data_image0
_chemical_formula_structural       H3CH3CSHCHCHS2C2HFeHSH2FeCH2SHC2NC2NSHFeH2CHCHCFeHCH2SH2SC2SCFeCHCHC2H6CS2HSCH2SH4C2H2NFeCSH2FeHCHCFeS2FeS2FeSFeS3CHC2HSC2H2C3HNH4CH3SC4H4CH2NHCHCHCHC2H3CHC2HC4H2SH2CHCHC2H5FeS2FeCFeH5NH3CHC2HSCH2C2H5CHC2HS2CH2CHC2H2C3H2NSHC2H3CNH2FeCSH8C2H3FeHFeSFeS2HFeS2C6HNH4CH6CH3FeH2CHCHCSC2H3C2HFeHCHSCS2FeCNC2FeH3SHSCHCH2CH5CHSCNFeS2HC2HCH2FeSCHSFeSCH3SHFeHC5NSNC2H3CH2SH2CSHFeHSH3SCH2FeC4SH2C2H3CH2CHSH2CFeCFeHCSCH2NH3CHFeSC2HSH2C2H5CHCH4SH2CH3CH3CH2CH2NH2C3HCHFeHCFeSFeSHSCFeS2FeS2Fe2S3C3H5C6H2CHCFeH2C6H4CH3SHNH5CH2SHC2H3CHSCHSH5CNH6CHCNSCNH2C2H6C2H2CH6C2H3FeHSHCHC2HNH2C2HCHCHCHSCH3SH2C2HFeHSH2SHC4HCH7FeCSHC2NH4SFe2SFeHSHC2HS2HCFeC2HC4HCHCH2C2H3CSNH2CFeHCS2CH3CSH3CHCHSHSH3C2H3SH2C4HNCHC2H2C3H2S2H6Fe2HSHFeS2HSH3C2HC5H3CHCH4FeHNC2H2SH2CH3CFeCHNCH2CHSFeH2Fe2S2HSFeSCH2NC2HCH4CHS2H4FeHC2S2H2CFeHC2HC3H3CH3CHSHCH2NH2C3HCH2SHFeSH4SH2C2HFeC2H2CHCHFeS2FeS2FeSFeS3HC3H5C8H4CH2CH3CH2C3H4CHC2H2CHCSH8SNC3SH3N2H2C3HCHNCH2CH2SFeCH2SC2HCH3CH3S2CH4FeS2CNHSHFeC3H4SCHNCSC2H7NHSC2H2CHCSCH4C2H3C2H2CH4SHFeS2FeH3CNHS2H2NC6H4CHSH2CFeCH4CFeCHFeSH3C2HSHCS2FeSFeCHC3FeH3C2H3CHC4SH7CHFeH4C2NCSNHSH3CHC3SH2CH4CSH3CHFeS2FeSH3SCFeH2CHC2HC2HCNSFeHC5SCH3CH2SHCH2SH3CFeS2FeSFeHS2FeS2CHFeSHSCHC7H4CSHC4H4C3H2C2H2FeH2SH2C2H2CH2CHCH3C2NCHC2H3CHNCSC2H2CH3FeH2C2H2CHCH2CH4SHC2HFeH2CH2CH4C2H2CS2HCN2CHCH2SHSHCHC3HSH7CH5CHSNC2FeH3CNHCHSHCH3CHS2FeH2CHSCFeS2HC2HCH2CHSH2CFeHCH2CH2NCH2CFeHSH2C2SHNSHSHCH3CHC2HSCHFeC2H6CH2CH3CFeC4H7SCH2CHCH3C2NH2CH
_chemical_formula_sum              "H768 C480 S192 Fe96 N48"
_cell_length_a       43.2799
_cell_length_b       47.8364
_cell_length_c       45.3178
_cell_angle_alpha    89.9766
_cell_angle_beta     89.9417
_cell_angle_gamma    89.6767

_space_group_name_H-M_alt    "P 1"
_space_group_IT_number       1

loop_
  _space_group_symop_operation_xyz
  'x, y, z'

loop_
  _atom_site_type_symbol
  _atom_site_label
  _atom_site_symmetry_multiplicity
  _atom_site_fract_x
  _atom_site_fract_y
  _atom_site_fract_z
  _atom_site_occupancy
  H   H1        1.0  0.48436  0.15980  0.34951  1.0000
  H   H2        1.0  0.50675  0.20794  0.29630  1.0000
  H   H3        1.0  0.45003  0.17299  0.29231  1.0000
  C   C1        1.0  0.51716  0.18791  0.29165  1.0000
  H   H4        1.0  0.49121  0.18183  0.25165  1.0000
  H   H5        1.0  0.48670  0.13866  0.31695  1.0000
  H   H6        1.0  0.39818  0.15654  0.35468  1.0000
  C   C2        1.0  0.47318  0.14221  0.33752  1.0000
  S   S1        1.0  0.54847  0.19374  0.34384  1.0000
  H   H7        1.0  0.33106  0.23032  0.36855  1.0000
  C   C3        1.0  0.53935  0.17675  0.31076  1.0000
  H   H8        1.0  0.40260  0.12932  0.30785  1.0000
  C   C4        1.0  0.50850  0.17316  0.26632  1.0000
  H   H9        1.0  0.55047  0.14456  0.14079  1.0000
  S   S2        1.0  0.47741  0.24716  0.33284  1.0000
  S   S3        1.0  0.53250  0.07431  0.17280  1.0000
  C   C5        1.0  0.52188  0.14714  0.26012  1.0000
  C   C6        1.0  0.54472  0.13625  0.27870  1.0000
  H   H10       1.0  0.41358  0.18062  0.30964  1.0000
  Fe  Fe1       1.0  0.44436  0.23497  0.36868  1.0000
  H   H11       1.0  0.23528  0.24542  0.53863  1.0000
  S   S4        1.0  0.39602  0.22117  0.35910  1.0000
  H   H12       1.0  0.47579  0.12316  0.35138  1.0000
  H   H13       1.0  0.44003  0.12261  0.29205  1.0000
  Fe  Fe2       1.0  0.53790  0.09052  0.21888  1.0000
  C   C7        1.0  0.43808  0.17467  0.31395  1.0000
  H   H14       1.0  0.44863  0.19233  0.32620  1.0000
  H   H15       1.0  0.43226  0.16857  0.37261  1.0000
  S   S5        1.0  0.53607  0.04833  0.24053  1.0000
  H   H16       1.0  0.57078  0.14247  0.31872  1.0000
  C   C8        1.0  0.57701  0.26533  0.47178  1.0000
  C   C9        1.0  0.27749  0.18769  0.52056  1.0000
  N   N1        1.0  0.44038  0.14836  0.33093  1.0000
  C   C10       1.0  0.42731  0.12529  0.31330  1.0000
  C   C11       1.0  0.42292  0.15132  0.35883  1.0000
  N   N2        1.0  0.57335  0.17000  0.17328  1.0000
  S   S6        1.0  0.50944  0.12866  0.22913  1.0000
  H   H17       1.0  0.42872  0.10506  0.32537  1.0000
  Fe  Fe3       1.0  0.51265  0.22429  0.36015  1.0000
  H   H18       1.0  0.42386  0.13186  0.37223  1.0000
  H   H19       1.0  0.20764  0.20157  0.55188  1.0000
  C   C12       1.0  0.56791  0.19649  0.15727  1.0000
  H   H20       1.0  0.10437  0.25607  0.50096  1.0000
  C   C13       1.0  0.57156  0.17509  0.20544  1.0000
  H   H21       1.0  0.27060  0.18709  0.49688  1.0000
  C   C14       1.0  0.25206  0.23245  0.52588  1.0000
  Fe  Fe4       1.0  0.29055  0.27477  0.46909  1.0000
  H   H22       1.0  0.21527  0.18873  0.51539  1.0000
  C   C15       1.0  0.37400  0.22354  0.39156  1.0000
  H   H23       1.0  0.56253  0.25821  0.49066  1.0000
  H   H24       1.0  0.56904  0.19330  0.13294  1.0000
  S   S7        1.0  0.31739  0.23525  0.47570  1.0000
  H   H25       1.0  0.27958  0.16577  0.52853  1.0000
  H   H26       1.0  0.16894  0.21759  0.49494  1.0000
  S   S8        1.0  0.49695  0.25127  0.46605  1.0000
  C   C16       1.0  0.37065  0.22404  0.44506  1.0000
  C   C17       1.0  0.38827  0.22144  0.41917  1.0000
  S   S9        1.0  0.52633  0.26207  0.38622  1.0000
  C   C18       1.0  0.32476  0.23226  0.41574  1.0000
  Fe  Fe5       1.0  0.48909  0.24880  0.41737  1.0000
  C   C19       1.0  0.16694  0.23422  0.51103  1.0000
  H   H27       1.0  0.41290  0.21779  0.42066  1.0000
  C   C20       1.0  0.34215  0.22852  0.38986  1.0000
  H   H28       1.0  0.52582  0.15714  0.17018  1.0000
  C   C21       1.0  0.33896  0.22978  0.44336  1.0000
  C   C22       1.0  0.55353  0.15114  0.30399  1.0000
  H   H29       1.0  0.54470  0.20537  0.16252  1.0000
  H   H30       1.0  0.19083  0.26392  0.48404  1.0000
  H   H31       1.0  0.24392  0.23178  0.50259  1.0000
  H   H32       1.0  0.38180  0.22249  0.46637  1.0000
  H   H33       1.0  0.55518  0.11615  0.27396  1.0000
  H   H34       1.0  0.30031  0.23691  0.41431  1.0000
  C   C23       1.0  0.17964  0.26040  0.50491  1.0000
  S   S10       1.0  0.47860  0.20897  0.39373  1.0000
  S   S11       1.0  0.13841  0.19573  0.54526  1.0000
  H   H35       1.0  0.56109  0.27483  0.45524  1.0000
  S   S12       1.0  0.45153  0.27356  0.39539  1.0000
  C   C24       1.0  0.54954  0.14954  0.16477  1.0000
  H   H36       1.0  0.08491  0.25576  0.53585  1.0000
  H   H37       1.0  0.55283  0.12962  0.17688  1.0000
  S   S13       1.0  0.24231  0.27681  0.45156  1.0000
  H   H38       1.0  0.27461  0.24354  0.52579  1.0000
  H   H39       1.0  0.54837  0.18322  0.21198  1.0000
  H   H40       1.0  0.57535  0.15547  0.21820  1.0000
  H   H41       1.0  0.30099  0.19708  0.52129  1.0000
  C   C25       1.0  0.22483  0.19006  0.53814  1.0000
  C   C26       1.0  0.15183  0.22945  0.53782  1.0000
  H   H42       1.0  0.09147  0.20581  0.49518  1.0000
  H   H43       1.0  0.22631  0.16841  0.54703  1.0000
  N   N3        1.0  0.25520  0.20404  0.53841  1.0000
  Fe  Fe6       1.0  0.53507  0.03220  0.19407  1.0000
  C   C27       1.0  0.16159  0.27749  0.55211  1.0000
  S   S14       1.0  0.10932  0.17667  0.62748  1.0000
  H   H44       1.0  0.13702  0.24757  0.57904  1.0000
  H   H45       1.0  0.26920  0.18494  0.57925  1.0000
  Fe  Fe7       1.0  0.10254  0.19098  0.58079  1.0000
  H   H46       1.0  0.25014  0.21823  0.58316  1.0000
  C   C28       1.0  0.14867  0.25119  0.55825  1.0000
  H   H47       1.0  0.28934  0.21657  0.57009  1.0000
  C   C29       1.0  0.26648  0.20601  0.56911  1.0000
  Fe  Fe8       1.0  0.38726  0.45597  0.31436  1.0000
  S   S15       1.0  0.39706  0.44343  0.26761  1.0000
  S   S16       1.0  0.42544  0.46663  0.34577  1.0000
  Fe  Fe9       1.0  0.31941  0.44181  0.31019  1.0000
  S   S17       1.0  0.32327  0.42717  0.26345  1.0000
  S   S18       1.0  0.27503  0.44104  0.33563  1.0000
  Fe  Fe10      1.0  0.36720  0.40668  0.27813  1.0000
  S   S19       1.0  0.38011  0.36256  0.26720  1.0000
  Fe  Fe11      1.0  0.35230  0.46538  0.25741  1.0000
  S   S20       1.0  0.34435  0.49059  0.21626  1.0000
  S   S21       1.0  0.36056  0.41754  0.32568  1.0000
  S   S22       1.0  0.34527  0.48175  0.30340  1.0000
  C   C30       1.0  0.20373  0.42749  0.24769  1.0000
  H   H48       1.0  0.46180  0.51080  0.48698  1.0000
  C   C31       1.0  0.30590  0.50192  0.21391  1.0000
  C   C32       1.0  0.29101  0.50216  0.18653  1.0000
  H   H49       1.0  0.25625  0.47230  0.27661  1.0000
  S   S23       1.0  0.28268  0.30489  0.50619  1.0000
  C   C33       1.0  0.42761  0.51831  0.31921  1.0000
  C   C34       1.0  0.55557  0.49623  0.46040  1.0000
  H   H50       1.0  0.49487  0.46116  0.41219  1.0000
  H   H51       1.0  0.43459  0.49770  0.40480  1.0000
  C   C35       1.0  0.25643  0.35096  0.36301  1.0000
  C   C36       1.0  0.49973  0.28667  0.47493  1.0000
  C   C37       1.0  0.44224  0.49894  0.33780  1.0000
  H   H52       1.0  0.17370  0.47678  0.25342  1.0000
  N   N4        1.0  0.36163  0.32569  0.36443  1.0000
  H   H53       1.0  0.25598  0.43302  0.55087  1.0000
  H   H54       1.0  0.26759  0.37910  0.51395  1.0000
  H   H55       1.0  0.20670  0.49667  0.26466  1.0000
  H   H56       1.0  0.21454  0.42945  0.30591  1.0000
  C   C38       1.0  0.19935  0.47762  0.25249  1.0000
  H   H57       1.0  0.21424  0.40786  0.25649  1.0000
  H   H58       1.0  0.27915  0.33954  0.32243  1.0000
  H   H59       1.0  0.48117  0.49127  0.36631  1.0000
  S   S24       1.0  0.49232  0.32878  0.34828  1.0000
  C   C39       1.0  0.46352  0.33833  0.32296  1.0000
  C   C40       1.0  0.45479  0.36642  0.32041  1.0000
  C   C41       1.0  0.42959  0.37402  0.30269  1.0000
  C   C42       1.0  0.41344  0.35359  0.28701  1.0000
  H   H60       1.0  0.45768  0.44839  0.40123  1.0000
  H   H61       1.0  0.36934  0.48457  0.42403  1.0000
  H   H62       1.0  0.46697  0.38225  0.33262  1.0000
  H   H63       1.0  0.42257  0.39568  0.30139  1.0000
  C   C43       1.0  0.56677  0.46137  0.49776  1.0000
  H   H64       1.0  0.17818  0.42507  0.24832  1.0000
  H   H65       1.0  0.25898  0.43525  0.27226  1.0000
  N   N5        1.0  0.21370  0.45209  0.26488  1.0000
  H   H66       1.0  0.30255  0.49348  0.16739  1.0000
  C   C44       1.0  0.42295  0.32565  0.28858  1.0000
  H   H67       1.0  0.37421  0.28213  0.36575  1.0000
  C   C45       1.0  0.33168  0.36342  0.54021  1.0000
  H   H68       1.0  0.20596  0.48067  0.22895  1.0000
  C   C46       1.0  0.27149  0.35660  0.33632  1.0000
  H   H69       1.0  0.41063  0.30984  0.27631  1.0000
  C   C47       1.0  0.20426  0.44873  0.29605  1.0000
  C   C48       1.0  0.47954  0.44255  0.41266  1.0000
  H   H70       1.0  0.17874  0.44736  0.29832  1.0000
  H   H71       1.0  0.28998  0.38845  0.30777  1.0000
  H   H72       1.0  0.21234  0.46656  0.30980  1.0000
  C   C49       1.0  0.24767  0.45438  0.26330  1.0000
  H   H73       1.0  0.21078  0.42933  0.22411  1.0000
  C   C50       1.0  0.44784  0.31801  0.30670  1.0000
  C   C51       1.0  0.57535  0.51492  0.47464  1.0000
  H   H74       1.0  0.25589  0.45736  0.24021  1.0000
  C   C52       1.0  0.26727  0.40641  0.34572  1.0000
  C   C53       1.0  0.27753  0.38428  0.32799  1.0000
  C   C54       1.0  0.24596  0.37312  0.38057  1.0000
  C   C55       1.0  0.25096  0.40083  0.37170  1.0000
  H   H75       1.0  0.47403  0.43816  0.43621  1.0000
  H   H76       1.0  0.53986  0.42868  0.41399  1.0000
  S   S25       1.0  0.25241  0.31622  0.37488  1.0000
  H   H77       1.0  0.30208  0.51233  0.25999  1.0000
  H   H78       1.0  0.38111  0.51817  0.46489  1.0000
  C   C56       1.0  0.46950  0.50621  0.35225  1.0000
  H   H79       1.0  0.45149  0.39875  0.38674  1.0000
  C   C57       1.0  0.24373  0.38579  0.52008  1.0000
  H   H80       1.0  0.48367  0.48861  0.53626  1.0000
  C   C58       1.0  0.24617  0.52458  0.20853  1.0000
  C   C59       1.0  0.35432  0.41673  0.55269  1.0000
  H   H81       1.0  0.53566  0.45512  0.46147  1.0000
  H   H82       1.0  0.50485  0.27933  0.52154  1.0000
  H   H83       1.0  0.42301  0.49108  0.44234  1.0000
  H   H84       1.0  0.56964  0.32050  0.48017  1.0000
  H   H85       1.0  0.24991  0.51361  0.16261  1.0000
  Fe  Fe12      1.0  0.29691  0.33754  0.47360  1.0000
  S   S26       1.0  0.24899  0.34540  0.45685  1.0000
  S   S27       1.0  0.32866  0.37379  0.48056  1.0000
  Fe  Fe13      1.0  0.23548  0.30984  0.48642  1.0000
  C   C60       1.0  0.50412  0.29490  0.50421  1.0000
  Fe  Fe14      1.0  0.25999  0.31212  0.42371  1.0000
  H   H86       1.0  0.36716  0.31029  0.32011  1.0000
  H   H87       1.0  0.49644  0.30062  0.42981  1.0000
  H   H88       1.0  0.38125  0.49255  0.38700  1.0000
  H   H89       1.0  0.23365  0.36894  0.40078  1.0000
  H   H90       1.0  0.35207  0.34520  0.32259  1.0000
  N   N6        1.0  0.39591  0.52222  0.41971  1.0000
  H   H91       1.0  0.50174  0.35047  0.44189  1.0000
  H   H92       1.0  0.52376  0.47903  0.53686  1.0000
  H   H93       1.0  0.40663  0.51269  0.30778  1.0000
  C   C61       1.0  0.33727  0.38223  0.51719  1.0000
  H   H94       1.0  0.39656  0.35614  0.35499  1.0000
  C   C62       1.0  0.34916  0.40866  0.52345  1.0000
  C   C63       1.0  0.52321  0.41098  0.41428  1.0000
  H   H95       1.0  0.35396  0.42314  0.50567  1.0000
  S   S28       1.0  0.53568  0.50566  0.42820  1.0000
  C   C64       1.0  0.50781  0.32325  0.51099  1.0000
  H   H96       1.0  0.51105  0.32952  0.53361  1.0000
  H   H97       1.0  0.24289  0.41792  0.38538  1.0000
  C   C65       1.0  0.29057  0.51228  0.23882  1.0000
  C   C66       1.0  0.35955  0.29757  0.37781  1.0000
  H   H98       1.0  0.22759  0.36930  0.51233  1.0000
  H   H99       1.0  0.18621  0.51099  0.06009  1.0000
  H   H100      1.0  0.34154  0.36660  0.37027  1.0000
  H   H101      1.0  0.40180  0.33757  0.38924  1.0000
  H   H102      1.0  0.51147  0.50888  0.51595  1.0000
  C   C67       1.0  0.42555  0.50765  0.42525  1.0000
  H   H103      1.0  0.23854  0.40519  0.50742  1.0000
  C   C68       1.0  0.49896  0.30678  0.45253  1.0000
  C   C69       1.0  0.50205  0.33510  0.45936  1.0000
  H   H104      1.0  0.57247  0.30342  0.51536  1.0000
  S   S29       1.0  0.19626  0.31388  0.51906  1.0000
  S   S30       1.0  0.41014  0.49781  0.52307  1.0000
  C   C70       1.0  0.50188  0.42522  0.36737  1.0000
  H   H105      1.0  0.35047  0.51213  0.40382  1.0000
  H   H106      1.0  0.56258  0.44094  0.50680  1.0000
  C   C71       1.0  0.37322  0.50199  0.40817  1.0000
  H   H107      1.0  0.53491  0.39250  0.40424  1.0000
  C   C72       1.0  0.17768  0.28192  0.52564  1.0000
  C   C73       1.0  0.50669  0.34332  0.48854  1.0000
  H   H108      1.0  0.45467  0.29640  0.30817  1.0000
  H   H109      1.0  0.31700  0.33820  0.38050  1.0000
  C   C74       1.0  0.50756  0.49714  0.53684  1.0000
  C   C75       1.0  0.39388  0.33549  0.36600  1.0000
  C   C76       1.0  0.26124  0.51358  0.18380  1.0000
  H   H110      1.0  0.46677  0.38854  0.42213  1.0000
  H   H111      1.0  0.48067  0.43089  0.35471  1.0000
  N   N7        1.0  0.24075  0.39024  0.55221  1.0000
  S   S31       1.0  0.30900  0.30694  0.43829  1.0000
  H   H112      1.0  0.19208  0.38160  0.55257  1.0000
  C   C77       1.0  0.26074  0.52363  0.23611  1.0000
  C   C78       1.0  0.34136  0.34544  0.38053  1.0000
  H   H113      1.0  0.28621  0.40782  0.55522  1.0000
  H   H114      1.0  0.51851  0.40582  0.43784  1.0000
  H   H115      1.0  0.32342  0.34269  0.53541  1.0000
  C   C79       1.0  0.35175  0.32422  0.33326  1.0000
  N   N8        1.0  0.49446  0.41821  0.39835  1.0000
  H   H116      1.0  0.40987  0.32050  0.35499  1.0000
  H   H117      1.0  0.51305  0.40724  0.35584  1.0000
  Fe  Fe15      1.0  0.54870  0.38250  0.53136  1.0000
  C   C80       1.0  0.47318  0.39415  0.39908  1.0000
  S   S32       1.0  0.51251  0.37855  0.49644  1.0000
  H   H118      1.0  0.34855  0.34776  0.40398  1.0000
  H   H119      1.0  0.48390  0.37527  0.38882  1.0000
  H   H120      1.0  0.36734  0.29759  0.40121  1.0000
  H   H121      1.0  0.45423  0.33765  0.54043  1.0000
  H   H122      1.0  0.20165  0.41781  0.54757  1.0000
  H   H123      1.0  0.51782  0.44337  0.36602  1.0000
  H   H124      1.0  0.40703  0.38276  0.54098  1.0000
  H   H125      1.0  0.44543  0.38689  0.52669  1.0000
  C   C81       1.0  0.55129  0.46949  0.47205  1.0000
  C   C82       1.0  0.43103  0.38863  0.54704  1.0000
  H   H126      1.0  0.43067  0.41103  0.55364  1.0000
  H   H127      1.0  0.44349  0.52236  0.43317  1.0000
  H   H128      1.0  0.33540  0.28964  0.37737  1.0000
  Fe  Fe16      1.0  0.48793  0.28380  0.36200  1.0000
  H   H129      1.0  0.32784  0.31600  0.33132  1.0000
  Fe  Fe17      1.0  0.56138  0.38529  0.59655  1.0000
  S   S33       1.0  0.34666  0.48716  0.58561  1.0000
  Fe  Fe18      1.0  0.42199  0.49070  0.63167  1.0000
  S   S34       1.0  0.41674  0.46042  0.59462  1.0000
  S   S35       1.0  0.46672  0.49502  0.65584  1.0000
  H   H130      1.0  0.21921  0.46647  0.83865  1.0000
  Fe  Fe19      1.0  0.36931  0.45344  0.61256  1.0000
  S   S36       1.0  0.35169  0.40941  0.61246  1.0000
  S   S37       1.0  0.37666  0.48023  0.65259  1.0000
  C   C83       1.0  0.48580  0.46262  0.65424  1.0000
  C   C84       1.0  0.51807  0.46159  0.65231  1.0000
  C   C85       1.0  0.53317  0.43599  0.64742  1.0000
  C   C86       1.0  0.51617  0.41125  0.64615  1.0000
  C   C87       1.0  0.48402  0.41212  0.64944  1.0000
  C   C88       1.0  0.46877  0.43787  0.65283  1.0000
  H   H131      1.0  0.32747  0.50590  0.68367  1.0000
  N   N9        1.0  0.51242  0.51502  0.56297  1.0000
  H   H132      1.0  0.47089  0.39299  0.64866  1.0000
  H   H133      1.0  0.44385  0.43856  0.65462  1.0000
  H   H134      1.0  0.31692  0.50708  0.73732  1.0000
  H   H135      1.0  0.15982  0.29414  0.56819  1.0000
  C   C89       1.0  0.34739  0.39849  0.57583  1.0000
  H   H136      1.0  0.48727  0.48747  0.59165  1.0000
  H   H137      1.0  0.33184  0.35722  0.58744  1.0000
  H   H138      1.0  0.27251  0.35701  0.56258  1.0000
  H   H139      1.0  0.24714  0.36665  0.59222  1.0000
  H   H140      1.0  0.26214  0.50238  0.77858  1.0000
  H   H141      1.0  0.25712  0.50435  0.84707  1.0000
  C   C90       1.0  0.24290  0.51829  0.83281  1.0000
  H   H142      1.0  0.16938  0.50818  0.89429  1.0000
  H   H143      1.0  0.55803  0.43535  0.64483  1.0000
  H   H144      1.0  0.10868  0.29293  0.82343  1.0000
  Fe  Fe20      1.0  0.39486  0.49593  0.57023  1.0000
  H   H145      1.0  0.11326  0.31801  0.79416  1.0000
  H   H146      1.0  0.19109  0.46991  0.80954  1.0000
  C   C91       1.0  0.20614  0.52174  0.79296  1.0000
  H   H147      1.0  0.23474  0.47480  0.77403  1.0000
  C   C92       1.0  0.24719  0.48745  0.79079  1.0000
  H   H148      1.0  0.26275  0.47322  0.80339  1.0000
  C   C93       1.0  0.51022  0.49774  0.58988  1.0000
  S   S38       1.0  0.53475  0.37949  0.63832  1.0000
  C   C94       1.0  0.42449  0.37454  0.59794  1.0000
  C   C95       1.0  0.31960  0.52504  0.69380  1.0000
  H   H149      1.0  0.43365  0.36185  0.61660  1.0000
  H   H150      1.0  0.53133  0.48064  0.65358  1.0000
  H   H151      1.0  0.19228  0.51046  0.77614  1.0000
  C   C96       1.0  0.24865  0.36403  0.56786  1.0000
  C   C97       1.0  0.10118  0.31388  0.81539  1.0000
  H   H152      1.0  0.20550  0.40191  0.58337  1.0000
  Fe  Fe21      1.0  0.35830  0.51492  0.62394  1.0000
  H   H153      1.0  0.41356  0.52475  0.70619  1.0000
  C   C98       1.0  0.20543  0.48175  0.82556  1.0000
  H   H154      1.0  0.51341  0.51053  0.61014  1.0000
  S   S39       1.0  0.56266  0.34986  0.56426  1.0000
  C   C99       1.0  0.33666  0.37158  0.56958  1.0000
  S   S40       1.0  0.13581  0.44466  0.88901  1.0000
  S   S41       1.0  0.11238  0.50049  0.92513  1.0000
  Fe  Fe22      1.0  0.13119  0.45835  0.93615  1.0000
  C   C100      1.0  0.17949  0.48711  0.02025  1.0000
  N   N10       1.0  0.22541  0.50230  0.81053  1.0000
  C   C101      1.0  0.15802  0.47749  0.99956  1.0000
  C   C102      1.0  0.12666  0.48376  0.00322  1.0000
  Fe  Fe23      1.0  0.11278  0.48550  0.87864  1.0000
  H   H155      1.0  0.10993  0.47635  0.98748  1.0000
  H   H156      1.0  0.10935  0.32965  0.83171  1.0000
  H   H157      1.0  0.56191  0.51170  0.56165  1.0000
  S   S42       1.0  0.17033  0.45895  0.96832  1.0000
  H   H158      1.0  0.45180  0.32682  0.57836  1.0000
  S   S43       1.0  0.12844  0.51615  0.84481  1.0000
  C   C103      1.0  0.13812  0.50940  0.04794  1.0000
  H   H159      1.0  0.18918  0.49218  0.84107  1.0000
  C   C104      1.0  0.11669  0.49942  0.02751  1.0000
  H   H160      1.0  0.20379  0.48234  0.01743  1.0000
  H   H161      1.0  0.52816  0.48093  0.59015  1.0000
  C   C105      1.0  0.31330  0.52568  0.72414  1.0000
  H   H162      1.0  0.26156  0.41585  0.58585  1.0000
  H   H163      1.0  0.40007  0.36833  0.59442  1.0000
  H   H164      1.0  0.42426  0.39679  0.60516  1.0000
  H   H165      1.0  0.48563  0.36488  0.59496  1.0000
  H   H166      1.0  0.09234  0.50401  0.03026  1.0000
  C   C106      1.0  0.16956  0.50330  0.04435  1.0000
  H   H167      1.0  0.47751  0.40025  0.58432  1.0000
  S   S44       1.0  0.54324  0.41670  0.56433  1.0000
  C   C107      1.0  0.47556  0.37808  0.57710  1.0000
  N   N11       1.0  0.44315  0.37058  0.57091  1.0000
  Fe  Fe24      1.0  0.08716  0.42945  0.89502  1.0000
  S   S45       1.0  0.08442  0.43952  0.94340  1.0000
  S   S46       1.0  0.40458  0.52722  0.60565  1.0000
  H   H168      1.0  0.23287  0.34674  0.56145  1.0000
  C   C108      1.0  0.26195  0.41272  0.56150  1.0000
  C   C109      1.0  0.44157  0.34104  0.56151  1.0000
  H   H169      1.0  0.49033  0.37535  0.55720  1.0000
  C   C110      1.0  0.20856  0.39828  0.55928  1.0000
  H   H170      1.0  0.36352  0.43719  0.55714  1.0000
  H   H171      1.0  0.41725  0.33447  0.55770  1.0000
  Fe  Fe25      1.0  0.22645  0.57692  0.10361  1.0000
  S   S47       1.0  0.21823  0.59779  0.14729  1.0000
  C   C111      1.0  0.09924  0.60713  0.07109  1.0000
  H   H172      1.0  0.53338  0.62159  0.32202  1.0000
  S   S48       1.0  0.15015  0.56821  0.14667  1.0000
  Fe  Fe26      1.0  0.17109  0.60755  0.12939  1.0000
  S   S49       1.0  0.14312  0.64713  0.13380  1.0000
  C   C112      1.0  0.53855  0.62154  0.29792  1.0000
  H   H173      1.0  0.40081  0.55013  0.45658  1.0000
  H   H174      1.0  0.55315  0.73968  0.14804  1.0000
  H   H175      1.0  0.42731  0.56094  0.30334  1.0000
  S   S50       1.0  0.47783  0.58812  0.33389  1.0000
  H   H176      1.0  0.10651  0.58698  0.06092  1.0000
  Fe  Fe27      1.0  0.19832  0.55636  0.16025  1.0000
  H   H177      1.0  0.27632  0.57650  0.18245  1.0000
  C   C113      1.0  0.16845  0.66168  0.08093  1.0000
  C   C114      1.0  0.14360  0.66523  0.10021  1.0000
  C   C115      1.0  0.11832  0.68169  0.09166  1.0000
  C   C116      1.0  0.45193  0.53023  0.49492  1.0000
  C   C117      1.0  0.35258  0.58212  0.16539  1.0000
  N   N12       1.0  0.31916  0.58128  0.15879  1.0000
  S   S51       1.0  0.20910  0.53930  0.20550  1.0000
  N   N13       1.0  0.54704  0.76038  0.10632  1.0000
  C   C118      1.0  0.51626  0.74807  0.10119  1.0000
  C   C119      1.0  0.30975  0.60742  0.14378  1.0000
  H   H178      1.0  0.41627  0.60015  0.52220  1.0000
  H   H179      1.0  0.57656  0.73575  0.40177  1.0000
  H   H180      1.0  0.32369  0.55973  0.11726  1.0000
  C   C120      1.0  0.57778  0.67615  0.33251  1.0000
  H   H181      1.0  0.54902  0.59967  0.24444  1.0000
  H   H182      1.0  0.11609  0.61184  0.08888  1.0000
  S   S52       1.0  0.54500  0.58629  0.45266  1.0000
  H   H183      1.0  0.18811  0.64958  0.08782  1.0000
  H   H184      1.0  0.36650  0.58409  0.14482  1.0000
  C   C121      1.0  0.27597  0.61840  0.07146  1.0000
  S   S53       1.0  0.12503  0.53053  0.07690  1.0000
  H   H185      1.0  0.48991  0.55096  0.54409  1.0000
  Fe  Fe28      1.0  0.55794  0.61043  0.41188  1.0000
  H   H186      1.0  0.32219  0.61015  0.12245  1.0000
  S   S54       1.0  0.46535  0.61250  0.48094  1.0000
  H   H187      1.0  0.55664  0.68335  0.32220  1.0000
  H   H188      1.0  0.28751  0.55458  0.13560  1.0000
  H   H189      1.0  0.28466  0.60737  0.13850  1.0000
  S   S55       1.0  0.18109  0.59030  0.08439  1.0000
  C   C122      1.0  0.30161  0.57832  0.18661  1.0000
  H   H190      1.0  0.56583  0.74257  0.06646  1.0000
  H   H191      1.0  0.56496  0.55479  0.29076  1.0000
  Fe  Fe29      1.0  0.53259  0.55203  0.42117  1.0000
  C   C123      1.0  0.31277  0.55718  0.13936  1.0000
  C   C124      1.0  0.57645  0.66031  0.35848  1.0000
  C   C125      1.0  0.38433  0.53447  0.44758  1.0000
  C   C126      1.0  0.46504  0.55564  0.48649  1.0000
  S   S56       1.0  0.27154  0.58290  0.07970  1.0000
  H   H192      1.0  0.52692  0.56837  0.28281  1.0000
  H   H193      1.0  0.36032  0.56265  0.17687  1.0000
  C   C127      1.0  0.46577  0.55319  0.33243  1.0000
  C   C128      1.0  0.25344  0.63748  0.08052  1.0000
  H   H194      1.0  0.50227  0.53848  0.36089  1.0000
  H   H195      1.0  0.31430  0.62612  0.15765  1.0000
  H   H196      1.0  0.22072  0.73803  0.06617  1.0000
  C   C129      1.0  0.43937  0.54556  0.31659  1.0000
  H   H197      1.0  0.54144  0.56947  0.31949  1.0000
  H   H198      1.0  0.51807  0.72671  0.09160  1.0000
  C   C130      1.0  0.42652  0.58063  0.51497  1.0000
  H   H199      1.0  0.57998  0.62299  0.25375  1.0000
  S   S57       1.0  0.20962  0.53462  0.11761  1.0000
  H   H200      1.0  0.30890  0.55928  0.19894  1.0000
  H   H201      1.0  0.37861  0.55569  0.39248  1.0000
  C   C131      1.0  0.56973  0.60217  0.25873  1.0000
  Fe  Fe30      1.0  0.16311  0.55030  0.10277  1.0000
  C   C132      1.0  0.45164  0.58091  0.49545  1.0000
  Fe  Fe31      1.0  0.49735  0.60245  0.44335  1.0000
  H   H202      1.0  0.39443  0.55484  0.53920  1.0000
  C   C133      1.0  0.42647  0.52991  0.51382  1.0000
  S   S58       1.0  0.51093  0.62968  0.40505  1.0000
  C   C134      1.0  0.11738  0.69333  0.06325  1.0000
  H   H203      1.0  0.35832  0.60007  0.17996  1.0000
  H   H204      1.0  0.50264  0.74665  0.12198  1.0000
  N   N14       1.0  0.56155  0.59975  0.29029  1.0000
  H   H205      1.0  0.23430  0.63037  0.09365  1.0000
  H   H206      1.0  0.23763  0.68023  0.07912  1.0000
  H   H207      1.0  0.09921  0.68491  0.10670  1.0000
  C   C135      1.0  0.41416  0.55505  0.52451  1.0000
  H   H208      1.0  0.55433  0.65529  0.36797  1.0000
  Fe  Fe32      1.0  0.50292  0.59170  0.37704  1.0000
  S   S59       1.0  0.55070  0.57423  0.38138  1.0000
  C   C136      1.0  0.54827  0.57184  0.29599  1.0000
  C   C137      1.0  0.56353  0.76307  0.07786  1.0000
  H   H209      1.0  0.48566  0.55556  0.47316  1.0000
  S   S60       1.0  0.48414  0.56682  0.41437  1.0000
  H   H210      1.0  0.30508  0.59653  0.20147  1.0000
  H   H211      1.0  0.56855  0.72097  0.11681  1.0000
  C   C138      1.0  0.40064  0.54472  0.39782  1.0000
  C   C139      1.0  0.56503  0.74217  0.12639  1.0000
  H   H212      1.0  0.51619  0.61813  0.28636  1.0000
  H   H213      1.0  0.32177  0.53737  0.14895  1.0000
  H   H214      1.0  0.50252  0.76088  0.08544  1.0000
  H   H215      1.0  0.41711  0.56071  0.40604  1.0000
  H   H216      1.0  0.54685  0.64274  0.29187  1.0000
  C   C140      1.0  0.25556  0.66567  0.07250  1.0000
  H   H217      1.0  0.24924  0.53227  0.25529  1.0000
  C   C141      1.0  0.48135  0.53315  0.34935  1.0000
  H   H218      1.0  0.54626  0.54027  0.54077  1.0000
  H   H219      1.0  0.36178  0.54530  0.44440  1.0000
  H   H220      1.0  0.41024  0.53635  0.37682  1.0000
  H   H221      1.0  0.57919  0.53545  0.46547  1.0000
  S   S61       1.0  0.41916  0.76764  0.06183  1.0000
  H   H222      1.0  0.55113  0.77749  0.06253  1.0000
  H   H223      1.0  0.08277  0.58911  0.12473  1.0000
  C   C142      1.0  0.40549  0.54033  0.68960  1.0000
  H   H224      1.0  0.40884  0.58690  0.65721  1.0000
  H   H225      1.0  0.30132  0.59237  0.67685  1.0000
  H   H226      1.0  0.18731  0.67080  0.03805  1.0000
  C   C143      1.0  0.30452  0.57368  0.69000  1.0000
  H   H227      1.0  0.39694  0.61090  0.68577  1.0000
  H   H228      1.0  0.09133  0.57801  0.98309  1.0000
  H   H229      1.0  0.11758  0.59736  0.93916  1.0000
  C   C144      1.0  0.12374  0.66684  0.86707  1.0000
  H   H230      1.0  0.54754  0.54201  0.58044  1.0000
  H   H231      1.0  0.22062  0.53739  0.78117  1.0000
  C   C145      1.0  0.20498  0.73830  0.04674  1.0000
  H   H232      1.0  0.49119  0.55075  0.58367  1.0000
  H   H233      1.0  0.38140  0.53495  0.68349  1.0000
  N   N15       1.0  0.40740  0.56922  0.70089  1.0000
  H   H234      1.0  0.25632  0.76846  0.03923  1.0000
  H   H235      1.0  0.13287  0.66783  0.80863  1.0000
  C   C146      1.0  0.15404  0.53880  0.86245  1.0000
  C   C147      1.0  0.25437  0.73043  0.84371  1.0000
  C   C148      1.0  0.14949  0.59671  0.98995  1.0000
  H   H236      1.0  0.12029  0.72817  0.82915  1.0000
  C   C149      1.0  0.30168  0.62773  0.05562  1.0000
  H   H237      1.0  0.23956  0.72508  0.86294  1.0000
  Fe  Fe33      1.0  0.32567  0.72140  0.02152  1.0000
  H   H238      1.0  0.19280  0.74464  0.98951  1.0000
  C   C150      1.0  0.31589  0.54920  0.67678  1.0000
  Fe  Fe34      1.0  0.34958  0.76028  0.97395  1.0000
  S   S62       1.0  0.39860  0.74579  0.97925  1.0000
  Fe  Fe35      1.0  0.37808  0.70296  0.98243  1.0000
  S   S63       1.0  0.39419  0.66503  0.95801  1.0000
  H   H239      1.0  0.28622  0.76238  0.80562  1.0000
  S   S64       1.0  0.32980  0.71714  0.97256  1.0000
  C   C151      1.0  0.13519  0.58049  0.94143  1.0000
  Fe  Fe36      1.0  0.29724  0.64636  0.82491  1.0000
  S   S65       1.0  0.28233  0.63526  0.77893  1.0000
  S   S66       1.0  0.33134  0.68050  0.83395  1.0000
  Fe  Fe37      1.0  0.25096  0.60814  0.85403  1.0000
  S   S67       1.0  0.23196  0.59351  0.81083  1.0000
  S   S68       1.0  0.23219  0.59207  0.89683  1.0000
  Fe  Fe38      1.0  0.28131  0.59124  0.79632  1.0000
  Fe  Fe39      1.0  0.23435  0.63851  0.79768  1.0000
  S   S69       1.0  0.19307  0.66045  0.77855  1.0000
  S   S70       1.0  0.30029  0.60207  0.84092  1.0000
  S   S71       1.0  0.24932  0.65327  0.84222  1.0000
  C   C152      1.0  0.19967  0.57307  0.88654  1.0000
  C   C153      1.0  0.18079  0.58306  0.86380  1.0000
  C   C154      1.0  0.15813  0.56585  0.85158  1.0000
  H   H240      1.0  0.18429  0.60382  0.85495  1.0000
  H   H241      1.0  0.14427  0.57326  0.83328  1.0000
  H   H242      1.0  0.13114  0.72267  0.86690  1.0000
  H   H243      1.0  0.33922  0.61911  0.95900  1.0000
  H   H244      1.0  0.10157  0.54319  0.97220  1.0000
  C   C155      1.0  0.24008  0.73230  0.76642  1.0000
  C   C156      1.0  0.23258  0.70386  0.76795  1.0000
  C   C157      1.0  0.20203  0.69573  0.77307  1.0000
  C   C158      1.0  0.17884  0.71606  0.77575  1.0000
  C   C159      1.0  0.18654  0.74447  0.77550  1.0000
  C   C160      1.0  0.10982  0.56183  0.98457  1.0000
  H   H245      1.0  0.31159  0.73669  0.82158  1.0000
  H   H246      1.0  0.15512  0.70988  0.77907  1.0000
  C   C161      1.0  0.39563  0.58881  0.67822  1.0000
  H   H247      1.0  0.23174  0.76059  0.95376  1.0000
  C   C162      1.0  0.43995  0.57577  0.70769  1.0000
  Fe  Fe40      1.0  0.38869  0.74774  0.02782  1.0000
  H   H248      1.0  0.27906  0.67079  0.97825  1.0000
  H   H249      1.0  0.36385  0.56702  0.72346  1.0000
  C   C163      1.0  0.38045  0.66883  0.92193  1.0000
  C   C164      1.0  0.37616  0.69557  0.91014  1.0000
  C   C165      1.0  0.36269  0.69888  0.88227  1.0000
  C   C166      1.0  0.35209  0.67554  0.86677  1.0000
  C   C167      1.0  0.35709  0.64874  0.87824  1.0000
  C   C168      1.0  0.37169  0.64535  0.90565  1.0000
  H   H250      1.0  0.38337  0.71376  0.92243  1.0000
  H   H251      1.0  0.35990  0.71960  0.87308  1.0000
  H   H252      1.0  0.35016  0.63062  0.86586  1.0000
  H   H253      1.0  0.37549  0.62462  0.91451  1.0000
  C   C169      1.0  0.32263  0.63181  0.97225  1.0000
  H   H254      1.0  0.16712  0.54345  0.99782  1.0000
  H   H255      1.0  0.15703  0.58840  0.93164  1.0000
  H   H256      1.0  0.31195  0.76027  0.88346  1.0000
  S   S72       1.0  0.34120  0.76589  0.02226  1.0000
  H   H257      1.0  0.24664  0.64971  0.96764  1.0000
  N   N16       1.0  0.11041  0.68709  0.84589  1.0000
  H   H258      1.0  0.16873  0.76012  0.77877  1.0000
  H   H259      1.0  0.28040  0.59336  0.98468  1.0000
  H   H260      1.0  0.09991  0.68908  0.79955  1.0000
  H   H261      1.0  0.21108  0.71972  0.03307  1.0000
  H   H262      1.0  0.18956  0.53347  0.80719  1.0000
  C   C170      1.0  0.18749  0.76323  0.00345  1.0000
  H   H263      1.0  0.13219  0.61400  0.98887  1.0000
  H   H264      1.0  0.26785  0.64147  0.00042  1.0000
  S   S73       1.0  0.14109  0.70339  0.00833  1.0000
  H   H265      1.0  0.26648  0.71109  0.83629  1.0000
  C   C171      1.0  0.21727  0.75259  0.77154  1.0000
  C   C172      1.0  0.46624  0.77248  0.02148  1.0000
  H   H266      1.0  0.45576  0.75537  0.00970  1.0000
  H   H267      1.0  0.30506  0.72399  0.87530  1.0000
  H   H268      1.0  0.15381  0.70740  0.83763  1.0000
  C   C173      1.0  0.29374  0.74475  0.87797  1.0000
  H   H269      1.0  0.45481  0.57380  0.68770  1.0000
  S   S74       1.0  0.32744  0.54994  0.63961  1.0000
  C   C174      1.0  0.29156  0.63995  0.92890  1.0000
  H   H270      1.0  0.14778  0.66085  0.86085  1.0000
  S   S75       1.0  0.29802  0.55102  0.77592  1.0000
  H   H271      1.0  0.12419  0.67553  0.88986  1.0000
  H   H272      1.0  0.15289  0.59119  0.01363  1.0000
  H   H273      1.0  0.31569  0.77293  0.83107  1.0000
  H   H274      1.0  0.27806  0.74333  0.89736  1.0000
  H   H275      1.0  0.28976  0.59337  0.73049  1.0000
  C   C175      1.0  0.19464  0.54653  0.89843  1.0000
  N   N17       1.0  0.29104  0.63057  0.96001  1.0000
  H   H276      1.0  0.25879  0.53352  0.82227  1.0000
  H   H277      1.0  0.32352  0.62392  0.99527  1.0000
  H   H278      1.0  0.41997  0.53747  0.66954  1.0000
  H   H279      1.0  0.11212  0.55555  0.00812  1.0000
  H   H280      1.0  0.29389  0.58721  0.94763  1.0000
  H   H281      1.0  0.33146  0.65359  0.97248  1.0000
  C   C176      1.0  0.30409  0.65609  0.04786  1.0000
  H   H282      1.0  0.44949  0.56119  0.72460  1.0000
  C   C177      1.0  0.29803  0.57429  0.72036  1.0000
  N   N18       1.0  0.27666  0.75266  0.85100  1.0000
  S   S76       1.0  0.37237  0.70349  0.03160  1.0000
  C   C178      1.0  0.38849  0.57186  0.72795  1.0000
  N   N19       1.0  0.13940  0.57223  0.97261  1.0000
  H   H283      1.0  0.30618  0.62594  0.91503  1.0000
  H   H284      1.0  0.18565  0.55691  0.96534  1.0000
  C   C179      1.0  0.29854  0.75632  0.82625  1.0000
  C   C180      1.0  0.16314  0.54996  0.97456  1.0000
  H   H285      1.0  0.25049  0.68824  0.76537  1.0000
  H   H286      1.0  0.32360  0.66315  0.03509  1.0000
  H   H287      1.0  0.26380  0.73847  0.76297  1.0000
  H   H288      1.0  0.10992  0.64727  0.86792  1.0000
  H   H289      1.0  0.37098  0.58457  0.67284  1.0000
  H   H290      1.0  0.23864  0.73703  0.82568  1.0000
  C   C181      1.0  0.27026  0.64897  0.97730  1.0000
  C   C182      1.0  0.30292  0.55039  0.73753  1.0000
  H   H291      1.0  0.28775  0.76046  0.96395  1.0000
  H   H292      1.0  0.30110  0.66144  0.92681  1.0000
  C   C183      1.0  0.24028  0.76784  0.02004  1.0000
  H   H293      1.0  0.16274  0.76148  0.00991  1.0000
  H   H294      1.0  0.24789  0.75000  0.00600  1.0000
  H   H295      1.0  0.26801  0.63993  0.91905  1.0000
  H   H296      1.0  0.17177  0.60507  0.98152  1.0000
  H   H297      1.0  0.20954  0.53857  0.91570  1.0000
  H   H298      1.0  0.12738  0.56259  0.92766  1.0000
  C   C184      1.0  0.27974  0.60150  0.96164  1.0000
  C   C185      1.0  0.12980  0.71241  0.84488  1.0000
  H   H299      1.0  0.25545  0.60001  0.95389  1.0000
  H   H300      1.0  0.31949  0.61302  0.04910  1.0000
  H   H301      1.0  0.39641  0.55718  0.74548  1.0000
  Fe  Fe41      1.0  0.09314  0.69680  0.99182  1.0000
  H   H302      1.0  0.46491  0.52823  0.56465  1.0000
  S   S77       1.0  0.28160  0.70989  0.04429  1.0000
  H   H303      1.0  0.10136  0.62391  0.05421  1.0000
  C   C186      1.0  0.16800  0.67389  0.05290  1.0000
  H   H304      1.0  0.38921  0.59343  0.73710  1.0000
  C   C187      1.0  0.10936  0.67425  0.81624  1.0000
  C   C188      1.0  0.28068  0.67496  0.05586  1.0000
  H   H305      1.0  0.44234  0.59745  0.71630  1.0000
  N   N20       1.0  0.20786  0.76446  0.02960  1.0000
  H   H306      1.0  0.09468  0.65522  0.81611  1.0000
  H   H307      1.0  0.15620  0.53092  0.96216  1.0000
  C   C189      1.0  0.14225  0.68939  0.04390  1.0000
  C   C190      1.0  0.24606  0.77711  0.94515  1.0000
  H   H308      1.0  0.10403  0.77309  0.88071  1.0000
  C   C191      1.0  0.27789  0.77675  0.95049  1.0000
  H   H309      1.0  0.24171  0.77664  0.87322  1.0000
  C   C192      1.0  0.54335  0.52788  0.56140  1.0000
  H   H310      1.0  0.18097  0.73531  0.05487  1.0000
  C   C193      1.0  0.48856  0.53723  0.56388  1.0000
  H   H311      1.0  0.22718  0.53049  0.84740  1.0000
  S   S78       1.0  0.17127  0.77640  0.84241  1.0000
  C   C194      1.0  0.17186  0.52934  0.88628  1.0000
  H   H312      1.0  0.09758  0.70562  0.05647  1.0000
  H   H313      1.0  0.50329  0.77743  0.99001  1.0000
  H   H314      1.0  0.54354  0.90063  0.19884  1.0000
  S   S79       1.0  0.55895  0.85114  0.15368  1.0000
  H   H315      1.0  0.57058  0.81814  0.20612  1.0000
  H   H316      1.0  0.21371  0.78998  0.06813  1.0000
  C   C195      1.0  0.53783  0.00510  0.12779  1.0000
  C   C196      1.0  0.55067  0.99679  0.10079  1.0000
  H   H317      1.0  0.53081  0.78734  0.14128  1.0000
  Fe  Fe42      1.0  0.57112  0.86496  0.10794  1.0000
  H   H318      1.0  0.53151  0.93520  0.18804  1.0000
  S   S80       1.0  0.53745  0.88012  0.07406  1.0000
  H   H319      1.0  0.54234  0.02579  0.13610  1.0000
  H   H320      1.0  0.45767  0.81083  0.08415  1.0000
  S   S81       1.0  0.50754  0.99524  0.17975  1.0000
  H   H321      1.0  0.49863  0.94585  0.14479  1.0000
  C   C197      1.0  0.51951  0.98658  0.14398  1.0000
  C   C198      1.0  0.51333  0.96004  0.13269  1.0000
  C   C199      1.0  0.52714  0.95140  0.10624  1.0000
  C   C200      1.0  0.54623  0.96958  0.09046  1.0000
  H   H322      1.0  0.56455  0.01129  0.08836  1.0000
  C   C201      1.0  0.54981  0.91898  0.18501  1.0000
  H   H323      1.0  0.57296  0.92437  0.23925  1.0000
  H   H324      1.0  0.52270  0.93075  0.09801  1.0000
  H   H325      1.0  0.56311  0.95852  0.22542  1.0000
  H   H326      1.0  0.50560  0.83194  0.06513  1.0000
  H   H327      1.0  0.53049  0.80294  0.10530  1.0000
  H   H328      1.0  0.54895  0.91199  0.16157  1.0000
  H   H329      1.0  0.57195  0.97020  0.17370  1.0000
  Fe  Fe43      1.0  0.57398  0.91156  0.06314  1.0000
  C   C202      1.0  0.54344  0.78829  0.11989  1.0000
  S   S82       1.0  0.56633  0.95781  0.05917  1.0000
  H   H330      1.0  0.56629  0.79790  0.12448  1.0000
  C   C203      1.0  0.46762  0.80345  0.06363  1.0000
  C   C204      1.0  0.57990  0.94084  0.22326  1.0000
  N   N21       1.0  0.58063  0.92991  0.19276  1.0000
  H   H331      1.0  0.10949  0.94798  0.81212  1.0000
  H   H332      1.0  0.13294  0.89177  0.72284  1.0000
  H   H333      1.0  0.09694  0.86411  0.81141  1.0000
  H   H334      1.0  0.08652  0.88050  0.66612  1.0000
  S   S83       1.0  0.19306  0.79721  0.92097  1.0000
  Fe  Fe44      1.0  0.17918  0.81062  0.87524  1.0000
  Fe  Fe45      1.0  0.19392  0.80536  0.81017  1.0000
  S   S84       1.0  0.33704  0.79509  0.94271  1.0000
  Fe  Fe46      1.0  0.15926  0.85599  0.83242  1.0000
  H   H335      1.0  0.43391  0.86768  0.00593  1.0000
  S   S85       1.0  0.14710  0.90167  0.82971  1.0000
  H   H336      1.0  0.15678  0.87929  0.77081  1.0000
  C   C205      1.0  0.29686  0.79707  0.93794  1.0000
  C   C206      1.0  0.12762  0.90397  0.74231  1.0000
  H   H337      1.0  0.45524  0.83555  0.00440  1.0000
  S   S86       1.0  0.13357  0.83146  0.86661  1.0000
  S   S87       1.0  0.20577  0.83792  0.84405  1.0000
  H   H338      1.0  0.38693  0.84024  0.01683  1.0000
  C   C207      1.0  0.39608  0.85688  0.96035  1.0000
  Fe  Fe47      1.0  0.56368  0.85205  0.04321  1.0000
  C   C208      1.0  0.13380  0.91217  0.79486  1.0000
  C   C209      1.0  0.42550  0.81399  0.95747  1.0000
  H   H339      1.0  0.45698  0.85940  0.97401  1.0000
  C   C210      1.0  0.14085  0.89667  0.76953  1.0000
  C   C211      1.0  0.50752  0.80640  0.02614  1.0000
  C   C212      1.0  0.28370  0.81839  0.92078  1.0000
  C   C213      1.0  0.11449  0.93562  0.79269  1.0000
  H   H340      1.0  0.38711  0.87395  0.97474  1.0000
  C   C214      1.0  0.10718  0.92667  0.74046  1.0000
  H   H341      1.0  0.18983  0.78213  0.98925  1.0000
  C   C215      1.0  0.44128  0.85043  0.99098  1.0000
  H   H342      1.0  0.40582  0.80287  0.94694  1.0000
  H   H343      1.0  0.41008  0.86661  0.94252  1.0000
  C   C216      1.0  0.19872  0.78844  0.04825  1.0000
  C   C217      1.0  0.39496  0.82414  0.00082  1.0000
  H   H344      1.0  0.40770  0.80790  0.01354  1.0000
  H   H345      1.0  0.37411  0.81401  0.99141  1.0000
  H   H346      1.0  0.37576  0.84676  0.94974  1.0000
  C   C218      1.0  0.10104  0.94273  0.76557  1.0000
  S   S88       1.0  0.54100  0.82191  0.01201  1.0000
  N   N22       1.0  0.41447  0.83638  0.97741  1.0000
  H   H347      1.0  0.24146  0.83556  0.90268  1.0000
  H   H348      1.0  0.29826  0.83426  0.91109  1.0000
  C   C219      1.0  0.25161  0.81907  0.91590  1.0000
  Fe  Fe48      1.0  0.12805  0.79974  0.83089  1.0000
  H   H349      1.0  0.43949  0.79813  0.96960  1.0000
  C   C220      1.0  0.49478  0.81549  0.05283  1.0000
  S   S89       1.0  0.22792  0.78733  0.77791  1.0000
  S   S90       1.0  0.14986  0.82575  0.79578  1.0000
  C   C221      1.0  0.25985  0.77913  0.85608  1.0000
  H   H350      1.0  0.44028  0.82244  0.93950  1.0000
  H   H351      1.0  0.27576  0.79607  0.86298  1.0000
  H   H352      1.0  0.08643  0.96095  0.76405  1.0000
  C   C222      1.0  0.23284  0.79824  0.92794  1.0000
  S   S91       1.0  0.08852  0.93417  0.70700  1.0000
  H   H353      1.0  0.24803  0.78643  0.83575  1.0000
  H   H354      1.0  0.24349  0.78743  0.00718  1.0000
  H   H355      1.0  0.20052  0.80848  0.03586  1.0000
  C   C223      1.0  0.49329  0.78477  0.01052  1.0000
  H   H356      1.0  0.08696  0.88060  0.61113  1.0000
  C   C224      1.0  0.45328  0.78200  0.04793  1.0000
  H   H357      1.0  0.17440  0.78642  0.05596  1.0000
  S   S92       1.0  0.90030  0.03416  0.52323  1.0000
  H   H358      1.0  0.05169  0.19483  0.49678  1.0000
  S   S93       1.0  0.61259  0.08897  0.13518  1.0000
  H   H359      1.0  0.71362  0.06472  0.09292  1.0000
  H   H360      1.0  0.69114  0.03468  0.22764  1.0000
  H   H361      1.0  0.72818  0.04308  0.28331  1.0000
  C   C225      1.0  0.92609  0.06670  0.41661  1.0000
  C   C226      1.0  0.69768  0.06160  0.11099  1.0000
  H   H362      1.0  0.03778  0.22927  0.45800  1.0000
  H   H363      1.0  0.07748  0.24000  0.45602  1.0000
  H   H364      1.0  0.04758  0.26548  0.46257  1.0000
  S   S94       1.0  0.58959  0.09196  0.21736  1.0000
  H   H365      1.0  0.62289  0.17366  0.17150  1.0000
  H   H366      1.0  0.94928  0.06363  0.42679  1.0000
  C   C227      1.0  0.06856  0.21027  0.50542  1.0000
  C   C228      1.0  0.64873  0.07221  0.13501  1.0000
  C   C229      1.0  0.66901  0.07556  0.11116  1.0000
  C   C230      1.0  0.83416  0.16002  0.53993  1.0000
  H   H367      1.0  0.66263  0.08902  0.09293  1.0000
  N   N23       1.0  0.73120  0.05861  0.23876  1.0000
  C   C231      1.0  0.69750  0.05624  0.23430  1.0000
  H   H368      1.0  0.91136  0.07726  0.43346  1.0000
  C   C232      1.0  0.77933  0.16614  0.54835  1.0000
  C   C233      1.0  0.65725  0.05507  0.15864  1.0000
  H   H369      1.0  0.02986  0.24159  0.53868  1.0000
  H   H370      1.0  0.60905  0.13877  0.17739  1.0000
  C   C234      1.0  0.80247  0.02793  0.40321  1.0000
  C   C235      1.0  0.80375  0.15117  0.53555  1.0000
  C   C236      1.0  0.05514  0.24372  0.46765  1.0000
  H   H371      1.0  0.77296  0.05295  0.21347  1.0000
  H   H372      1.0  0.60616  0.15408  0.14161  1.0000
  S   S95       1.0  0.87855  0.09697  0.54362  1.0000
  S   S96       1.0  0.82697  0.04681  0.53830  1.0000
  H   H373      1.0  0.58738  0.24639  0.46141  1.0000
  H   H374      1.0  0.07109  0.20622  0.52943  1.0000
  H   H375      1.0  0.92934  0.17854  0.54044  1.0000
  H   H376      1.0  0.86570  0.05460  0.41145  1.0000
  H   H377      1.0  0.74230  0.02956  0.20398  1.0000
  H   H378      1.0  0.63290  0.25260  0.49311  1.0000
  Fe  Fe49      1.0  0.58762  0.04793  0.23428  1.0000
  Fe  Fe50      1.0  0.90208  0.07744  0.50474  1.0000
  H   H379      1.0  0.72676  0.09360  0.26817  1.0000
  S   S97       1.0  0.94745  0.09157  0.48621  1.0000
  H   H380      1.0  0.01937  0.26580  0.51016  1.0000
  Fe  Fe51      1.0  0.83498  0.08922  0.51852  1.0000
  S   S98       1.0  0.79586  0.12000  0.51676  1.0000
  S   S99       1.0  0.85895  0.07348  0.47790  1.0000
  H   H381      1.0  0.58911  0.19046  0.21284  1.0000
  S   S100      1.0  0.62075  0.03443  0.26995  1.0000
  H   H382      1.0  0.85300  0.14939  0.52900  1.0000
  H   H383      1.0  0.73154  0.10273  0.22994  1.0000
  H   H384      1.0  0.76613  0.04117  0.26730  1.0000
  C   C237      1.0  0.73872  0.08758  0.24732  1.0000
  C   C238      1.0  0.74745  0.05136  0.21104  1.0000
  H   H385      1.0  0.92870  0.08148  0.39783  1.0000
  C   C239      1.0  0.99992  0.15134  0.52344  1.0000
  C   C240      1.0  0.99048  0.12815  0.50690  1.0000
  C   C241      1.0  0.95901  0.12275  0.50308  1.0000
  C   C242      1.0  0.93703  0.14130  0.51460  1.0000
  C   C243      1.0  0.94647  0.16453  0.53107  1.0000
  H   H386      1.0  0.02418  0.15528  0.52636  1.0000
  H   H387      1.0  0.00756  0.11397  0.49777  1.0000
  H   H388      1.0  0.91271  0.13779  0.51087  1.0000
  C   C244      1.0  0.70581  0.04414  0.13453  1.0000
  H   H389      1.0  0.74037  0.06532  0.19252  1.0000
  C   C245      1.0  0.68544  0.04069  0.15814  1.0000
  H   H390      1.0  0.79028  0.04717  0.39818  1.0000
  H   H391      1.0  0.93459  0.04064  0.36459  1.0000
  H   H392      1.0  0.89523  0.02985  0.45029  1.0000
  H   H393      1.0  0.01036  0.22929  0.50651  1.0000
  Fe  Fe52      1.0  0.85483  0.03154  0.49959  1.0000
  H   H394      1.0  0.68908  0.07064  0.21672  1.0000
  N   N24       1.0  0.91253  0.03988  0.40710  1.0000
  C   C246      1.0  0.97791  0.16918  0.53615  1.0000
  C   C247      1.0  0.74104  0.03920  0.26238  1.0000
  H   H395      1.0  0.76400  0.09013  0.25091  1.0000
  H   H396      1.0  0.97390  0.07461  0.54849  1.0000
  S   S101      1.0  0.81468  0.03652  0.08541  1.0000
  H   H397      1.0  0.81042  0.03893  0.44876  1.0000
  H   H398      1.0  0.60944  0.26524  0.52309  1.0000
  C   C248      1.0  0.88142  0.04504  0.39475  1.0000
  H   H399      1.0  0.64228  0.05304  0.17751  1.0000
  H   H400      1.0  0.75573  0.15972  0.54450  1.0000
  H   H401      1.0  0.88219  0.05946  0.37549  1.0000
  C   C249      1.0  0.62190  0.27163  0.50266  1.0000
  Fe  Fe53      1.0  0.58417  0.07263  0.17280  1.0000
  C   C250      1.0  0.60424  0.15877  0.16564  1.0000
  H   H402      1.0  0.68433  0.06110  0.25484  1.0000
  N   N25       1.0  0.05833  0.23932  0.49979  1.0000
  C   C251      1.0  0.02820  0.24428  0.51433  1.0000
  H   H403      1.0  0.58542  0.21248  0.16322  1.0000
  H   H404      1.0  0.63042  0.27698  0.44420  1.0000
  C   C252      1.0  0.08144  0.25895  0.51173  1.0000
  H   H405      1.0  0.67846  0.03458  0.05686  1.0000
  S   S102      1.0  0.58628  0.02863  0.18933  1.0000
  Fe  Fe54      1.0  0.03294  0.18879  0.58448  1.0000
  H   H406      1.0  0.98971  0.04347  0.78750  1.0000
  H   H407      1.0  0.07133  0.07319  0.82964  1.0000
  Fe  Fe55      1.0  0.79991  0.04456  0.03862  1.0000
  Fe  Fe56      1.0  0.78331  0.22270  0.63164  1.0000
  S   S103      1.0  0.74763  0.18924  0.63772  1.0000
  S   S104      1.0  0.82360  0.22089  0.60074  1.0000
  H   H408      1.0  0.97099  0.10055  0.63868  1.0000
  S   S105      1.0  0.92463  0.26860  0.77994  1.0000
  Fe  Fe57      1.0  0.75712  0.19518  0.68592  1.0000
  S   S106      1.0  0.79533  0.22582  0.67948  1.0000
  C   C253      1.0  0.81763  0.13605  0.61929  1.0000
  H   H409      1.0  0.92456  0.05374  0.69921  1.0000
  H   H410      1.0  0.93967  0.08082  0.62331  1.0000
  N   N26       1.0  0.03349  0.05451  0.80629  1.0000
  C   C254      1.0  0.00089  0.06109  0.79934  1.0000
  C   C255      1.0  0.79291  0.05589  0.93311  1.0000
  H   H411      1.0  0.92773  0.02793  0.74523  1.0000
  C   C256      1.0  0.03368  0.24696  0.68497  1.0000
  H   H412      1.0  0.01010  0.05334  0.58552  1.0000
  H   H413      1.0  0.94373  0.26644  0.86492  1.0000
  H   H414      1.0  0.01673  0.23896  0.64109  1.0000
  H   H415      1.0  0.82347  0.08446  0.59702  1.0000
  C   C257      1.0  0.81304  0.08585  0.61948  1.0000
  H   H416      1.0  0.80621  0.24307  0.78066  1.0000
  S   S107      1.0  0.66588  0.22806  0.62552  1.0000
  S   S108      1.0  0.98881  0.04702  0.72456  1.0000
  H   H417      1.0  0.91044  0.21093  0.76262  1.0000
  H   H418      1.0  0.80565  0.15658  0.62166  1.0000
  H   H419      1.0  0.83226  0.08362  0.63561  1.0000
  H   H420      1.0  0.94550  0.11634  0.61206  1.0000
  Fe  Fe58      1.0  0.75796  0.25836  0.68055  1.0000
  H   H421      1.0  0.99019  0.10273  0.70027  1.0000
  C   C258      1.0  0.02955  0.10342  0.67093  1.0000
  C   C259      1.0  0.04079  0.04890  0.69056  1.0000
  S   S109      1.0  0.03256  0.17441  0.63151  1.0000
  S   S110      1.0  0.76111  0.15824  0.71645  1.0000
  H   H422      1.0  0.75364  0.09752  0.60471  1.0000
  H   H423      1.0  0.82816  0.13558  0.59688  1.0000
  C   C260      1.0  0.95766  0.09658  0.61815  1.0000
  Fe  Fe59      1.0  0.71439  0.22515  0.64288  1.0000
  H   H424      1.0  0.86395  0.04761  0.98121  1.0000
  C   C261      1.0  0.90015  0.05981  0.70379  1.0000
  C   C262      1.0  0.06006  0.06093  0.66934  1.0000
  H   H425      1.0  0.78223  0.04396  0.97789  1.0000
  C   C263      1.0  0.98281  0.26081  0.66746  1.0000
  C   C264      1.0  0.78581  0.26854  0.74663  1.0000
  C   C265      1.0  0.66084  0.25649  0.60153  1.0000
  H   H426      1.0  0.75847  0.13476  0.60301  1.0000
  H   H427      1.0  0.90081  0.08105  0.71363  1.0000
  H   H428      1.0  0.86385  0.18891  0.56281  1.0000
  C   C266      1.0  0.78293  0.11370  0.65361  1.0000
  H   H429      1.0  0.82256  0.16858  0.69272  1.0000
  H   H430      1.0  0.77997  0.11244  0.57866  1.0000
  H   H431      1.0  0.02511  0.12442  0.66341  1.0000
  C   C267      1.0  0.05425  0.08802  0.65912  1.0000
  H   H432      1.0  0.76985  0.13350  0.65728  1.0000
  S   S111      1.0  0.88409  0.04920  0.60810  1.0000
  H   H433      1.0  0.01666  0.10244  0.56902  1.0000
  C   C268      1.0  0.77093  0.11438  0.60158  1.0000
  H   H434      1.0  0.76644  0.19975  0.57748  1.0000
  H   H435      1.0  0.07584  0.04605  0.78280  1.0000
  N   N27       1.0  0.79612  0.11250  0.62352  1.0000
  H   H436      1.0  0.83677  0.13554  0.63564  1.0000
  H   H437      1.0  0.76660  0.09625  0.65769  1.0000
  C   C269      1.0  0.00985  0.09115  0.69185  1.0000
  C   C270      1.0  0.01510  0.06361  0.70108  1.0000
  C   C271      1.0  0.01154  0.24784  0.66247  1.0000
  H   H438      1.0  0.80122  0.11269  0.67081  1.0000
  C   C272      1.0  0.82473  0.15601  0.71245  1.0000
  H   H439      1.0  0.79755  0.06753  0.62212  1.0000
  H   H440      1.0  0.85810  0.21785  0.89088  1.0000
  S   S112      1.0  0.06837  0.15747  0.57039  1.0000
  H   H441      1.0  0.94668  0.10064  0.56033  1.0000
  Fe  Fe60      1.0  0.07001  0.20599  0.63770  1.0000
  S   S113      1.0  0.72053  0.22823  0.69189  1.0000
  H   H442      1.0  0.83690  0.27567  0.69841  1.0000
  H   H443      1.0  0.90342  0.05431  0.97147  1.0000
  H   H444      1.0  0.84496  0.24698  0.86911  1.0000
  H   H445      1.0  0.61383  0.26423  0.61510  1.0000
  S   S114      1.0  0.06989  0.23141  0.67913  1.0000
  H   H446      1.0  0.03383  0.08049  0.84498  1.0000
  H   H447      1.0  0.78094  0.03834  0.92343  1.0000
  C   C273      1.0  0.78539  0.18859  0.56726  1.0000
  C   C274      1.0  0.80405  0.26393  0.77169  1.0000
  H   H448      1.0  0.87433  0.15247  0.70941  1.0000
  Fe  Fe61      1.0  0.87291  0.05330  0.55998  1.0000
  C   C275      1.0  0.85419  0.04991  0.73220  1.0000
  C   C276      1.0  0.84025  0.18266  0.55870  1.0000
  H   H449      1.0  0.92871  0.16087  0.72549  1.0000
  H   H450      1.0  0.01601  0.11294  0.60693  1.0000
  C   C277      1.0  0.85402  0.14681  0.72189  1.0000
  H   H451      1.0  0.93062  0.19691  0.71434  1.0000
  C   C278      1.0  0.94364  0.17973  0.72546  1.0000
  H   H452      1.0  0.83583  0.11233  0.91363  1.0000
  Fe  Fe62      1.0  0.85679  0.08596  0.85998  1.0000
  S   S115      1.0  0.88543  0.06368  0.82594  1.0000
  S   S116      1.0  0.81284  0.06761  0.87711  1.0000
  Fe  Fe63      1.0  0.90260  0.13304  0.86688  1.0000
  S   S117      1.0  0.93578  0.11491  0.83401  1.0000
  S   S118      1.0  0.90665  0.17384  0.89053  1.0000
  Fe  Fe64      1.0  0.89316  0.10665  0.80728  1.0000
  S   S119      1.0  0.89356  0.11908  0.75937  1.0000
  Fe  Fe65      1.0  0.92508  0.07394  0.85585  1.0000
  S   S120      1.0  0.96058  0.04333  0.87235  1.0000
  S   S121      1.0  0.86072  0.12789  0.83858  1.0000
  S   S122      1.0  0.89583  0.09299  0.89124  1.0000
  H   H453      1.0  0.99096  0.15906  0.75746  1.0000
  C   C279      1.0  0.85693  0.13058  0.74755  1.0000
  C   C280      1.0  0.83048  0.12306  0.76329  1.0000
  C   C281      1.0  0.80124  0.13173  0.75352  1.0000
  H   H454      1.0  0.98983  0.12882  0.58127  1.0000
  H   H455      1.0  0.96593  0.26183  0.64990  1.0000
  H   H456      1.0  0.70648  0.25357  0.58284  1.0000
  H   H457      1.0  0.83235  0.11005  0.78274  1.0000
  H   H458      1.0  0.78080  0.12558  0.76565  1.0000
  C   C282      1.0  0.81574  0.18133  0.87411  1.0000
  C   C283      1.0  0.79827  0.14845  0.72830  1.0000
  C   C284      1.0  0.97325  0.23443  0.84682  1.0000
  C   C285      1.0  0.97921  0.20569  0.84520  1.0000
  C   C286      1.0  0.95892  0.18677  0.85875  1.0000
  C   C287      1.0  0.93334  0.19673  0.87461  1.0000
  C   C288      1.0  0.92843  0.22550  0.87734  1.0000
  C   C289      1.0  0.94801  0.24427  0.86304  1.0000
  H   H459      1.0  0.99906  0.19812  0.83305  1.0000
  H   H460      1.0  0.96343  0.16460  0.85751  1.0000
  H   H461      1.0  0.90927  0.23342  0.89021  1.0000
  H   H462      1.0  0.97931  0.21971  0.77707  1.0000
  C   C290      1.0  0.79375  0.05899  0.96391  1.0000
  H   H463      1.0  0.95501  0.14509  0.77070  1.0000
  H   H464      1.0  0.78438  0.20656  0.82951  1.0000
  C   C291      1.0  0.90432  0.03618  0.75065  1.0000
  H   H465      1.0  0.04147  0.03432  0.76461  1.0000
  H   H466      1.0  0.86752  0.19296  0.84340  1.0000
  H   H467      1.0  0.83596  0.18704  0.81837  1.0000
  C   C292      1.0  0.81002  0.08117  0.97651  1.0000
  H   H468      1.0  0.77359  0.25129  0.73671  1.0000
  H   H469      1.0  0.98721  0.06508  0.81971  1.0000
  C   C293      1.0  0.80897  0.07457  0.91497  1.0000
  C   C294      1.0  0.82404  0.09744  0.92754  1.0000
  C   C295      1.0  0.82443  0.10081  0.95827  1.0000
  H   H470      1.0  0.02292  0.03040  0.84503  1.0000
  H   H471      1.0  0.04588  0.09767  0.81164  1.0000
  H   H472      1.0  0.90938  0.17557  0.77552  1.0000
  H   H473      1.0  0.83687  0.11808  0.96798  1.0000
  C   C296      1.0  0.79500  0.22035  0.84644  1.0000
  H   H474      1.0  0.90765  0.05657  0.76202  1.0000
  C   C297      1.0  0.84560  0.20198  0.83473  1.0000
  C   C298      1.0  0.02681  0.25843  0.71258  1.0000
  H   H475      1.0  0.05037  0.07067  0.76495  1.0000
  H   H476      1.0  0.92988  0.03804  0.65129  1.0000
  C   C299      1.0  0.83743  0.22732  0.88014  1.0000
  H   H477      1.0  0.00804  0.06403  0.62332  1.0000
  C   C300      1.0  0.97262  0.21256  0.75459  1.0000
  S   S123      1.0  0.81509  0.08325  0.01483  1.0000
  H   H478      1.0  0.79994  0.24080  0.83569  1.0000
  H   H479      1.0  0.83676  0.17134  0.88378  1.0000
  H   H480      1.0  0.88773  0.06142  0.68234  1.0000
  H   H481      1.0  0.85171  0.22144  0.82266  1.0000
  H   H482      1.0  0.77741  0.22432  0.86389  1.0000
  H   H483      1.0  0.97605  0.16950  0.79287  1.0000
  H   H484      1.0  0.80514  0.16595  0.85876  1.0000
  H   H485      1.0  0.85563  0.06998  0.74447  1.0000
  S   S124      1.0  0.74928  0.25800  0.63209  1.0000
  N   N28       1.0  0.88522  0.03955  0.72382  1.0000
  C   C301      1.0  0.96945  0.16428  0.76981  1.0000
  C   C302      1.0  0.81587  0.19634  0.57311  1.0000
  C   C303      1.0  0.99404  0.06085  0.60303  1.0000
  S   S125      1.0  0.99515  0.25807  0.82627  1.0000
  H   H486      1.0  0.93045  0.20140  0.79591  1.0000
  H   H487      1.0  0.96072  0.23034  0.74348  1.0000
  H   H488      1.0  0.96432  0.17503  0.71164  1.0000
  N   N29       1.0  0.82342  0.20773  0.85885  1.0000
  N   N30       1.0  0.95255  0.18769  0.75579  1.0000
  H   H489      1.0  0.99882  0.07986  0.78495  1.0000
  H   H490      1.0  0.79918  0.18489  0.89255  1.0000
  C   C304      1.0  0.68512  0.26537  0.58355  1.0000
  C   C305      1.0  0.97609  0.27257  0.69503  1.0000
  C   C306      1.0  0.92450  0.19418  0.77323  1.0000
  H   H491      1.0  0.99427  0.20837  0.74200  1.0000
  C   C307      1.0  0.88099  0.04665  0.96277  1.0000
  H   H492      1.0  0.04374  0.25743  0.73009  1.0000
  N   N31       1.0  0.97807  0.08689  0.59403  1.0000
  C   C308      1.0  0.00113  0.10871  0.58749  1.0000
  H   H493      1.0  0.82093  0.23313  0.89797  1.0000
  H   H494      1.0  0.87310  0.06171  0.94564  1.0000
  C   C309      1.0  0.04675  0.07751  0.82390  1.0000
  H   H495      1.0  0.97730  0.04381  0.60770  1.0000
  H   H496      1.0  0.83944  0.05359  0.71247  1.0000
  S   S126      1.0  0.06675  0.22342  0.59183  1.0000
  Fe  Fe66      1.0  0.07151  0.14615  0.61811  1.0000
  C   C310      1.0  0.05115  0.05126  0.77854  1.0000
  H   H497      1.0  0.85752  0.24770  0.65652  1.0000
  H   H498      1.0  0.07938  0.04907  0.66056  1.0000
  S   S127      1.0  0.07662  0.10081  0.62988  1.0000
  C   C311      1.0  0.99799  0.27098  0.71765  1.0000
  C   C312      1.0  0.63277  0.27124  0.60139  1.0000
  H   H499      1.0  0.89478  0.26364  0.66081  1.0000
  C   C313      1.0  0.87176  0.26602  0.65011  1.0000
  H   H500      1.0  0.84205  0.03481  0.74683  1.0000
  H   H501      1.0  0.06329  0.27258  0.79753  1.0000
  H   H502      1.0  0.93911  0.02777  0.81436  1.0000
  C   C314      1.0  0.95931  0.08149  0.56743  1.0000
  H   H503      1.0  0.94179  0.06497  0.57151  1.0000
  H   H504      1.0  0.87524  0.26470  0.62579  1.0000
  H   H505      1.0  0.89982  0.03179  0.90814  1.0000
  S   S128      1.0  0.98909  0.19666  0.55933  1.0000
  S   S129      1.0  0.75002  0.03453  0.04660  1.0000
  C   C315      1.0  0.03506  0.02824  0.82346  1.0000
  H   H506      1.0  0.81106  0.27760  0.64986  1.0000
  H   H507      1.0  0.04587  0.02817  0.69863  1.0000
  H   H508      1.0  0.64928  0.02797  0.02963  1.0000
  H   H509      1.0  0.60323  0.32540  0.50281  1.0000
  Fe  Fe67      1.0  0.61104  0.36417  0.55566  1.0000
  S   S130      1.0  0.59722  0.39321  0.51920  1.0000
  S   S131      1.0  0.65143  0.33575  0.54635  1.0000
  C   C316      1.0  0.59095  0.50674  0.50045  1.0000
  N   N32       1.0  0.60087  0.28536  0.48135  1.0000
  H   H510      1.0  0.63684  0.31011  0.46192  1.0000
  S   S132      1.0  0.60491  0.46994  0.54509  1.0000
  H   H511      1.0  0.64080  0.28592  0.50948  1.0000
  Fe  Fe68      1.0  0.59286  0.42540  0.55479  1.0000
  C   C317      1.0  0.58671  0.47988  0.51203  1.0000
  C   C318      1.0  0.61872  0.29484  0.45542  1.0000
  C   C319      1.0  0.58589  0.30974  0.49552  1.0000
  H   H512      1.0  0.07428  0.28110  0.50840  1.0000
  H   H513      1.0  0.60640  0.52114  0.51132  1.0000
  H   H514      1.0  0.60348  0.30527  0.43891  1.0000
  H   H515      1.0  0.70071  0.29640  0.55253  1.0000
  S   S133      1.0  0.76415  0.30035  0.70104  1.0000
  C   C320      1.0  0.68741  0.34380  0.68991  1.0000
  H   H516      1.0  0.70025  0.34623  0.63156  1.0000
  N   N33       1.0  0.85667  0.29262  0.65868  1.0000
  C   C321      1.0  0.03617  0.38971  0.86026  1.0000
  S   S134      1.0  0.94015  0.28882  0.70117  1.0000
  C   C322      1.0  0.69852  0.32506  0.64160  1.0000
  C   C323      1.0  0.67448  0.29599  0.67845  1.0000
  H   H517      1.0  0.79775  0.33833  0.73795  1.0000
  H   H518      1.0  0.71064  0.33741  0.69818  1.0000
  H   H519      1.0  0.65786  0.29473  0.69713  1.0000
  H   H520      1.0  0.66675  0.28089  0.66130  1.0000
  H   H521      1.0  0.99276  0.27917  0.73916  1.0000
  H   H522      1.0  0.02670  0.31177  0.83898  1.0000
  H   H523      1.0  0.60806  0.30725  0.58483  1.0000
  N   N34       1.0  0.67650  0.32471  0.66654  1.0000
  H   H524      1.0  0.04752  0.42789  0.83754  1.0000
  S   S135      1.0  0.61108  0.39741  0.59079  1.0000
  C   C324      1.0  0.05231  0.30979  0.84055  1.0000
  C   C325      1.0  0.62952  0.29561  0.58435  1.0000
  H   H525      1.0  0.67143  0.34395  0.70916  1.0000
  H   H526      1.0  0.63656  0.31968  0.63899  1.0000
  C   C326      1.0  0.05834  0.34351  0.80134  1.0000
  H   H527      1.0  0.68929  0.36564  0.68164  1.0000
  C   C327      1.0  0.98229  0.47022  0.88693  1.0000
  S   S136      1.0  0.07090  0.38741  0.87978  1.0000
  C   C328      1.0  0.87646  0.31630  0.64992  1.0000
  H   H528      1.0  0.81428  0.31479  0.64975  1.0000
  H   H529      1.0  0.06034  0.32469  0.85777  1.0000
  H   H530      1.0  0.96376  0.41740  0.87783  1.0000
  H   H531      1.0  0.69733  0.28855  0.68667  1.0000
  C   C329      1.0  0.64568  0.33394  0.65621  1.0000
  C   C330      1.0  0.65422  0.30497  0.56714  1.0000
  H   H532      1.0  0.64645  0.35528  0.64639  1.0000
  H   H533      1.0  0.62853  0.33435  0.67453  1.0000
  H   H534      1.0  0.03277  0.34590  0.79986  1.0000
  C   C331      1.0  0.79932  0.31761  0.74743  1.0000
  C   C332      1.0  0.95522  0.46472  0.93314  1.0000
  H   H535      1.0  0.82908  0.29443  0.61920  1.0000
  H   H536      1.0  0.86581  0.33669  0.65620  1.0000
  C   C333      1.0  0.78375  0.29532  0.73433  1.0000
  H   H537      1.0  0.01320  0.42468  0.90477  1.0000
  H   H538      1.0  0.87413  0.29134  0.70315  1.0000
  H   H539      1.0  0.94748  0.45006  0.95069  1.0000
  H   H540      1.0  0.72210  0.31853  0.64876  1.0000
  S   S137      1.0  0.06447  0.46932  0.88023  1.0000
  H   H541      1.0  0.93097  0.43916  0.88535  1.0000
  Fe  Fe69      1.0  0.93556  0.34629  0.79686  1.0000
  S   S138      1.0  0.97297  0.32094  0.77547  1.0000
  S   S139      1.0  0.94760  0.39093  0.80620  1.0000
  Fe  Fe70      1.0  0.89133  0.29840  0.80055  1.0000
  H   H542      1.0  0.01839  0.35178  0.87918  1.0000
  H   H543      1.0  0.99516  0.45973  0.86871  1.0000
  H   H544      1.0  0.06811  0.29754  0.76812  1.0000
  C   C334      1.0  0.81801  0.31289  0.77218  1.0000
  N   N35       1.0  0.06727  0.31532  0.81182  1.0000
  H   H545      1.0  0.94330  0.41339  0.91189  1.0000
  S   S140      1.0  0.92577  0.31507  0.83272  1.0000
  S   S141      1.0  0.89826  0.33156  0.76607  1.0000
  H   H546      1.0  0.99259  0.41947  0.93867  1.0000
  H   H547      1.0  0.93449  0.47581  0.92441  1.0000
  N   N36       1.0  0.97210  0.44987  0.90944  1.0000
  C   C335      1.0  0.98157  0.39078  0.82706  1.0000
  C   C336      1.0  0.98738  0.36886  0.84671  1.0000
  C   C337      1.0  0.01442  0.36850  0.86353  1.0000
  C   C338      1.0  0.85189  0.29314  0.69099  1.0000
  C   C339      1.0  0.03040  0.41182  0.84076  1.0000
  C   C340      1.0  0.00289  0.41252  0.82438  1.0000
  H   H548      1.0  0.97076  0.35243  0.84951  1.0000
  H   H549      1.0  0.84057  0.31294  0.69818  1.0000
  H   H550      1.0  0.83051  0.33005  0.78200  1.0000
  H   H551      1.0  0.99852  0.42945  0.80906  1.0000
  C   C341      1.0  0.95157  0.42907  0.89559  1.0000
  H   H552      1.0  0.69125  0.31048  0.62386  1.0000
  S   S142      1.0  0.02944  0.50687  0.94997  1.0000
  H   H553      1.0  0.89945  0.31513  0.66086  1.0000
  H   H554      1.0  0.01495  0.45047  0.93335  1.0000
  C   C342      1.0  0.68173  0.28948  0.56623  1.0000
  Fe  Fe71      1.0  0.93494  0.30282  0.74823  1.0000
  C   C343      1.0  0.99936  0.43547  0.92209  1.0000
  H   H555      1.0  0.99783  0.48627  0.89665  1.0000
  H   H556      1.0  0.96235  0.48148  0.87688  1.0000
  H   H557      1.0  0.97010  0.48070  0.94390  1.0000
  H   H558      1.0  0.05730  0.28822  0.84856  1.0000
  C   C344      1.0  0.05731  0.29413  0.79011  1.0000
  Fe  Fe72      1.0  0.06602  0.48089  0.92799  1.0000
  C   C345      1.0  0.82649  0.29507  0.64364  1.0000
  H   H559      1.0  0.88057  0.31651  0.62568  1.0000
  Fe  Fe73      1.0  0.96020  0.28837  0.80849  1.0000
  S   S143      1.0  0.84599  0.27964  0.81333  1.0000
  H   H560      1.0  0.06806  0.34799  0.77912  1.0000
  H   H561      1.0  0.03185  0.29464  0.78702  1.0000
  H   H562      1.0  0.06675  0.36003  0.81661  1.0000
  C   C346      1.0  0.82052  0.28603  0.78418  1.0000
  C   C347      1.0  0.77072  0.71442  0.18745  1.0000
  H   H563      1.0  0.58697  0.58596  0.25217  1.0000
  S   S144      1.0  0.68155  0.72890  0.24494  1.0000
  H   H564      1.0  0.05996  0.64979  0.07846  1.0000
  C   C348      1.0  0.61454  0.75425  0.35887  1.0000
  S   S145      1.0  0.68727  0.73180  0.31746  1.0000
  S   S146      1.0  0.60724  0.70320  0.28786  1.0000
  Fe  Fe74      1.0  0.71903  0.73480  0.27849  1.0000
  S   S147      1.0  0.76724  0.71714  0.27670  1.0000
  Fe  Fe75      1.0  0.64937  0.73029  0.28373  1.0000
  C   C349      1.0  0.82275  0.72198  0.20512  1.0000
  H   H565      1.0  0.75953  0.76163  0.11007  1.0000
  C   C350      1.0  0.76012  0.71309  0.21665  1.0000
  C   C351      1.0  0.04595  0.59790  0.05909  1.0000
  C   C352      1.0  0.96224  0.69056  0.08205  1.0000
  Fe  Fe76      1.0  0.91515  0.77513  0.12620  1.0000
  H   H566      1.0  0.58827  0.75111  0.13099  1.0000
  H   H567      1.0  0.75462  0.71216  0.16938  1.0000
  H   H568      1.0  0.59985  0.70760  0.38806  1.0000
  C   C353      1.0  0.60633  0.68321  0.32022  1.0000
  C   C354      1.0  0.63361  0.67459  0.33408  1.0000
  H   H569      1.0  0.84699  0.72529  0.20073  1.0000
  H   H570      1.0  0.03435  0.63292  0.10373  1.0000
  H   H571      1.0  0.65574  0.67940  0.32433  1.0000
  C   C355      1.0  0.80194  0.71938  0.18167  1.0000
  H   H572      1.0  0.59078  0.76313  0.35740  1.0000
  C   C356      1.0  0.81227  0.71961  0.23431  1.0000
  C   C357      1.0  0.95399  0.71523  0.09708  1.0000
  C   C358      1.0  0.60368  0.65207  0.37267  1.0000
  C   C359      1.0  0.01410  0.70812  0.07534  1.0000
  S   S148      1.0  0.81453  0.72325  0.14517  1.0000
  H   H573      1.0  0.60049  0.62420  0.30424  1.0000
  H   H574      1.0  0.93061  0.71810  0.10507  1.0000
  H   H575      1.0  0.03747  0.70528  0.06751  1.0000
  H   H576      1.0  0.65342  0.65279  0.37132  1.0000
  H   H577      1.0  0.83153  0.76122  0.28149  1.0000
  H   H578      1.0  0.98164  0.77401  0.18524  1.0000
  H   H579      1.0  0.66124  0.72866  0.41296  1.0000
  C   C360      1.0  0.78077  0.71596  0.24014  1.0000
  H   H580      1.0  0.73603  0.70934  0.22088  1.0000
  Fe  Fe77      1.0  0.85152  0.75550  0.14384  1.0000
  H   H581      1.0  0.02281  0.74907  0.09295  1.0000
  H   H582      1.0  0.02164  0.59723  0.06716  1.0000
  H   H583      1.0  0.82850  0.72099  0.25232  1.0000
  H   H584      1.0  0.70439  0.77392  0.10462  1.0000
  C   C361      1.0  0.00590  0.73271  0.09016  1.0000
  C   C362      1.0  0.97566  0.73663  0.10030  1.0000
  N   N37       1.0  0.62294  0.74712  0.38960  1.0000
  C   C363      1.0  0.99202  0.68751  0.07023  1.0000
  S   S149      1.0  0.89664  0.75669  0.16804  1.0000
  N   N38       1.0  0.06751  0.60553  0.08301  1.0000
  H   H585      1.0  0.60726  0.58713  0.30380  1.0000
  S   S150      1.0  0.60223  0.63417  0.40635  1.0000
  H   H586      1.0  0.58424  0.60259  0.33246  1.0000
  H   H587      1.0  0.67182  0.74923  0.38135  1.0000
  H   H588      1.0  0.94515  0.67451  0.07835  1.0000
  C   C364      1.0  0.60041  0.72695  0.40157  1.0000
  H   H589      1.0  0.60634  0.72051  0.42450  1.0000
  C   C365      1.0  0.05856  0.63298  0.09541  1.0000
  C   C366      1.0  0.63228  0.65927  0.36047  1.0000
  C   C367      1.0  0.58961  0.60354  0.30844  1.0000
  S   S151      1.0  0.87121  0.76954  0.10055  1.0000
  H   H590      1.0  0.07394  0.63895  0.11406  1.0000
  H   H591      1.0  0.04288  0.58250  0.11621  1.0000
  C   C368      1.0  0.65420  0.73451  0.39016  1.0000
  H   H592      1.0  0.65532  0.71519  0.37652  1.0000
  H   H593      1.0  0.61542  0.73557  0.34431  1.0000
  H   H594      1.0  0.58718  0.77162  0.08095  1.0000
  H   H595      1.0  0.07299  0.56309  0.09792  1.0000
  C   C369      1.0  0.06642  0.58412  0.10651  1.0000
  S   S152      1.0  0.96501  0.76955  0.11395  1.0000
  H   H596      1.0  0.62882  0.76817  0.43109  1.0000
  H   H597      1.0  0.63064  0.76990  0.34937  1.0000
  H   H598      1.0  0.78337  0.77406  0.30569  1.0000
  C   C370      1.0  0.62264  0.77278  0.40775  1.0000
  H   H599      1.0  0.78401  0.77320  0.25146  1.0000
  Fe  Fe78      1.0  0.67785  0.77555  0.24607  1.0000
  S   S153      1.0  0.64197  0.77683  0.28194  1.0000
  S   S154      1.0  0.05045  0.71836  0.00845  1.0000
  Fe  Fe79      1.0  0.03615  0.71859  0.96105  1.0000
  S   S155      1.0  0.01226  0.67723  0.96284  1.0000
  H   H600      1.0  0.99427  0.76335  0.00349  1.0000
  H   H601      1.0  0.96548  0.72555  0.97906  1.0000
  H   H602      1.0  0.98993  0.76327  0.88031  1.0000
  S   S156      1.0  0.00066  0.65970  0.04637  1.0000
  C   C371      1.0  0.06275  0.77343  0.85410  1.0000
  Fe  Fe80      1.0  0.03052  0.67512  0.00913  1.0000
  H   H603      1.0  0.92402  0.72615  0.97841  1.0000
  H   H604      1.0  0.01609  0.56026  0.97732  1.0000
  C   C372      1.0  0.01480  0.76544  0.88040  1.0000
  H   H605      1.0  0.04649  0.61348  0.04086  1.0000
  C   C373      1.0  0.02846  0.56393  0.95694  1.0000
  C   C374      1.0  0.03699  0.59123  0.94899  1.0000
  H   H606      1.0  0.05881  0.52898  0.89821  1.0000
  C   C375      1.0  0.05353  0.59583  0.92286  1.0000
  C   C376      1.0  0.03062  0.77059  0.85398  1.0000
  H   H607      1.0  0.03096  0.60863  0.96313  1.0000
  C   C377      1.0  0.94412  0.74360  0.03130  1.0000
  N   N39       1.0  0.94480  0.75942  0.00336  1.0000
  S   S157      1.0  0.07453  0.65343  0.99623  1.0000
  Fe  Fe81      1.0  0.05839  0.65988  0.94983  1.0000
  H   H608      1.0  0.07615  0.76277  0.92724  1.0000
  C   C378      1.0  0.06343  0.76485  0.90681  1.0000
  C   C379      1.0  0.03677  0.54134  0.93889  1.0000
  C   C380      1.0  0.05273  0.54617  0.91255  1.0000
  C   C381      1.0  0.03123  0.76229  0.90676  1.0000
  C   C382      1.0  0.94489  0.73962  0.97831  1.0000
  S   S158      1.0  0.01149  0.75426  0.93935  1.0000
  C   C383      1.0  0.06108  0.57334  0.90454  1.0000
  H   H609      1.0  0.94573  0.75080  0.95676  1.0000
  H   H610      1.0  0.89553  0.76539  0.00243  1.0000
  H   H611      1.0  0.06368  0.67613  0.85718  1.0000
  C   C384      1.0  0.07918  0.77078  0.88051  1.0000
  H   H612      1.0  0.06781  0.70976  0.83953  1.0000
  H   H613      1.0  0.01792  0.77261  0.83353  1.0000
  S   S159      1.0  0.06662  0.62925  0.91352  1.0000
  H   H614      1.0  0.05171  0.57704  0.04960  1.0000
  C   C385      1.0  0.07877  0.69485  0.85532  1.0000
  H   H615      1.0  0.07882  0.70523  0.87730  1.0000
  H   H616      1.0  0.07386  0.57679  0.88432  1.0000
  S   S160      1.0  0.08099  0.70138  0.94419  1.0000
  H   H617      1.0  0.94377  0.75788  0.05071  1.0000
  H   H618      1.0  0.96485  0.72987  0.03342  1.0000
  H   H619      1.0  0.92342  0.72998  0.03289  1.0000
  C   C386      1.0  0.97305  0.77662  0.00239  1.0000
  Fe  Fe82      1.0  0.83010  0.94713  0.26581  1.0000
  S   S161      1.0  0.83683  0.94675  0.31475  1.0000
  S   S162      1.0  0.86615  0.94671  0.23068  1.0000
  Fe  Fe83      1.0  0.76097  0.94428  0.26921  1.0000
  S   S163      1.0  0.72146  0.94368  0.23734  1.0000
  Fe  Fe84      1.0  0.80015  0.91384  0.31455  1.0000
  H   H620      1.0  0.78576  0.92826  0.11784  1.0000
  S   S164      1.0  0.79355  0.98024  0.26628  1.0000
  S   S165      1.0  0.79736  0.91107  0.26549  1.0000
  Fe  Fe85      1.0  0.85837  0.81224  0.11698  1.0000
  S   S166      1.0  0.90445  0.81961  0.13783  1.0000
  S   S167      1.0  0.82927  0.83976  0.08800  1.0000
  C   C387      1.0  0.74032  0.82303  0.37293  1.0000
  H   H621      1.0  0.70205  0.97444  0.06071  1.0000
  Fe  Fe86      1.0  0.88356  0.80094  0.17841  1.0000
  S   S168      1.0  0.89334  0.81770  0.22356  1.0000
  H   H622      1.0  0.00942  0.84201  0.15612  1.0000
  S   S169      1.0  0.60536  0.89891  0.09994  1.0000
  C   C388      1.0  0.83387  0.97830  0.41639  1.0000
  H   H623      1.0  0.76949  0.80941  0.30429  1.0000
  C   C389      1.0  0.73252  0.90955  0.39217  1.0000
  C   C390      1.0  0.87750  0.91170  0.22837  1.0000
  C   C391      1.0  0.87984  0.89864  0.20086  1.0000
  C   C392      1.0  0.88439  0.86967  0.19928  1.0000
  C   C393      1.0  0.88815  0.85400  0.22511  1.0000
  C   C394      1.0  0.88720  0.86730  0.25256  1.0000
  C   C395      1.0  0.88109  0.89603  0.25421  1.0000
  H   H624      1.0  0.87676  0.91069  0.18085  1.0000
  H   H625      1.0  0.88456  0.85959  0.17805  1.0000
  H   H626      1.0  0.89014  0.85528  0.27260  1.0000
  H   H627      1.0  0.87907  0.90608  0.27552  1.0000
  C   C396      1.0  0.78541  0.91711  0.40686  1.0000
  S   S170      1.0  0.80503  0.87696  0.34462  1.0000
  H   H628      1.0  0.73921  0.91205  0.36863  1.0000
  C   C397      1.0  0.71713  0.82560  0.35163  1.0000
  C   C398      1.0  0.72065  0.84454  0.32830  1.0000
  C   C399      1.0  0.74736  0.86099  0.32638  1.0000
  C   C400      1.0  0.81924  0.83133  0.27769  1.0000
  H   H629      1.0  0.70274  0.84650  0.31175  1.0000
  H   H630      1.0  0.74999  0.87561  0.30834  1.0000
  H   H631      1.0  0.94562  0.84470  0.18574  1.0000
  H   H632      1.0  0.97946  0.86270  0.19809  1.0000
  C   C401      1.0  0.69271  0.98056  0.27486  1.0000
  C   C402      1.0  0.69214  0.96719  0.24744  1.0000
  C   C403      1.0  0.66854  0.97338  0.22739  1.0000
  H   H633      1.0  0.71081  0.97584  0.29048  1.0000
  H   H634      1.0  0.66810  0.96312  0.20613  1.0000
  C   C404      1.0  0.86339  0.88520  0.10531  1.0000
  C   C405      1.0  0.83936  0.87519  0.08767  1.0000
  H   H635      1.0  0.80684  0.79765  0.23105  1.0000
  H   H636      1.0  0.95870  0.84006  0.22280  1.0000
  Fe  Fe87      1.0  0.76583  0.02276  0.09209  1.0000
  H   H637      1.0  0.83310  0.83612  0.25766  1.0000
  H   H638      1.0  0.94717  0.79349  0.17840  1.0000
  S   S171      1.0  0.77544  0.97836  0.08016  1.0000
  H   H639      1.0  0.78756  0.78847  0.11544  1.0000
  H   H640      1.0  0.81612  0.96944  0.13452  1.0000
  C   C406      1.0  0.79242  0.79512  0.25123  1.0000
  C   C407      1.0  0.83791  0.78365  0.27958  1.0000
  H   H641      1.0  0.58872  0.94540  0.14884  1.0000
  H   H642      1.0  0.92275  0.00659  0.37673  1.0000
  C   C408      1.0  0.58884  0.95267  0.17219  1.0000
  H   H643      1.0  0.80334  0.80127  0.32531  1.0000
  H   H644      1.0  0.79327  0.92265  0.38421  1.0000
  C   C409      1.0  0.96803  0.79260  0.19253  1.0000
  H   H645      1.0  0.73002  0.84683  0.11763  1.0000
  C   C410      1.0  0.64767  0.81388  0.19100  1.0000
  H   H646      1.0  0.82259  0.97482  0.17324  1.0000
  H   H647      1.0  0.62736  0.91461  0.19654  1.0000
  H   H648      1.0  0.83329  0.83697  0.29736  1.0000
  C   C411      1.0  0.80663  0.00769  0.38120  1.0000
  C   C412      1.0  0.62084  0.84066  0.15364  1.0000
  N   N40       1.0  0.81008  0.80163  0.27827  1.0000
  C   C413      1.0  0.64819  0.82954  0.16504  1.0000
  H   H649      1.0  0.64317  0.01873  0.09737  1.0000
  C   C414      1.0  0.61967  0.80963  0.20583  1.0000
  C   C415      1.0  0.64680  0.00724  0.26166  1.0000
  H   H650      1.0  0.87603  0.87112  0.11948  1.0000
  H   H651      1.0  0.63956  0.78834  0.39927  1.0000
  H   H652      1.0  0.97507  0.82451  0.14412  1.0000
  C   C416      1.0  0.68358  0.98149  0.07612  1.0000
  H   H653      1.0  0.60292  0.94870  0.23017  1.0000
  N   N41       1.0  0.75298  0.92576  0.41182  1.0000
  C   C417      1.0  0.82281  0.89371  0.06964  1.0000
  S   S172      1.0  0.76017  0.94354  0.31865  1.0000
  C   C418      1.0  0.74633  0.83032  0.12551  1.0000
  C   C419      1.0  0.77090  0.85776  0.34727  1.0000
  H   H654      1.0  0.73377  0.88675  0.39706  1.0000
  H   H655      1.0  0.87054  0.02529  0.38718  1.0000
  C   C420      1.0  0.63360  0.00365  0.08111  1.0000
  H   H656      1.0  0.95609  0.02279  0.39290  1.0000
  H   H657      1.0  0.84050  0.94591  0.15476  1.0000
  H   H658      1.0  0.85232  0.78591  0.25939  1.0000
  Fe  Fe88      1.0  0.82316  0.99281  0.06972  1.0000
  H   H659      1.0  0.76822  0.90556  0.14455  1.0000
  H   H660      1.0  0.77182  0.80898  0.24890  1.0000
  C   C421      1.0  0.01372  0.81660  0.20892  1.0000
  C   C422      1.0  0.78859  0.91903  0.14022  1.0000
  H   H661      1.0  0.84642  0.95923  0.42131  1.0000
  H   H662      1.0  0.74285  0.94605  0.16988  1.0000
  C   C423      1.0  0.81886  0.95855  0.15607  1.0000
  H   H663      1.0  0.81702  0.91402  0.19239  1.0000
  C   C424      1.0  0.67007  0.00055  0.28196  1.0000
  H   H664      1.0  0.74725  0.89784  0.44856  1.0000
  H   H665      1.0  0.75935  0.93250  0.45832  1.0000
  C   C425      1.0  0.87106  0.91366  0.10464  1.0000
  H   H666      1.0  0.75616  0.96095  0.38230  1.0000
  H   H667      1.0  0.02870  0.79867  0.20220  1.0000
  H   H668      1.0  0.76902  0.81539  0.07276  1.0000
  H   H669      1.0  0.00945  0.80468  0.15071  1.0000
  S   S173      1.0  0.68438  0.80439  0.35387  1.0000
  H   H670      1.0  0.77026  0.83802  0.12171  1.0000
  C   C426      1.0  0.93240  0.02691  0.38432  1.0000
  C   C427      1.0  0.99551  0.82272  0.15894  1.0000
  H   H671      1.0  0.76458  0.96877  0.42008  1.0000
  Fe  Fe89      1.0  0.79658  0.97652  0.31555  1.0000
  H   H672      1.0  0.66980  0.83320  0.15372  1.0000
  H   H673      1.0  0.79939  0.94378  0.20955  1.0000
  C   C428      1.0  0.74530  0.80783  0.07790  1.0000
  H   H674      1.0  0.72880  0.82372  0.06910  1.0000
  H   H675      1.0  0.78848  0.89409  0.40928  1.0000
  C   C429      1.0  0.76356  0.95848  0.16373  1.0000
  H   H676      1.0  0.80943  0.90529  0.13939  1.0000
  H   H677      1.0  0.67086  0.01119  0.30302  1.0000
  H   H678      1.0  0.75896  0.96830  0.14195  1.0000
  H   H679      1.0  0.73601  0.89040  0.07757  1.0000
  C   C430      1.0  0.76738  0.83880  0.37051  1.0000
  C   C431      1.0  0.59285  0.83673  0.16842  1.0000
  H   H680      1.0  0.67620  0.96290  0.08905  1.0000
  H   H681      1.0  0.88962  0.92140  0.11831  1.0000
  C   C432      1.0  0.82215  0.98278  0.38795  1.0000
  S   S174      1.0  0.68239  0.79982  0.20402  1.0000
  S   S175      1.0  0.83638  0.79790  0.15893  1.0000
  H   H682      1.0  0.76559  0.97566  0.18016  1.0000
  C   C433      1.0  0.64594  0.99337  0.23451  1.0000
  N   N42       1.0  0.74105  0.80361  0.10998  1.0000
  N   N43       1.0  0.79180  0.94096  0.16296  1.0000
  C   C434      1.0  0.79619  0.92773  0.19209  1.0000
  H   H683      1.0  0.77588  0.91486  0.19847  1.0000
  C   C435      1.0  0.82991  0.99858  0.43831  1.0000
  H   H684      1.0  0.62176  0.85253  0.13351  1.0000
  H   H685      1.0  0.69419  0.99670  0.09165  1.0000
  S   S176      1.0  0.86330  0.96784  0.08674  1.0000
  H   H686      1.0  0.82539  0.96703  0.37126  1.0000
  S   S177      1.0  0.71721  0.78140  0.27712  1.0000
  H   H687      1.0  0.78561  0.83622  0.38663  1.0000
  C   C436      1.0  0.79076  0.79634  0.30457  1.0000
  H   H688      1.0  0.72534  0.96326  0.40868  1.0000
  C   C437      1.0  0.74450  0.92037  0.44291  1.0000
  C   C438      1.0  0.74957  0.95596  0.40547  1.0000
  C   C439      1.0  0.60384  0.90723  0.19053  1.0000
  H   H689      1.0  0.59808  0.88941  0.20535  1.0000
  S   S178      1.0  0.84569  0.99257  0.47337  1.0000
  H   H690      1.0  0.73774  0.80825  0.39083  1.0000
  H   H691      1.0  0.70796  0.91623  0.39435  1.0000
  H   H692      1.0  0.79868  0.84543  0.27763  1.0000
  H   H693      1.0  0.80130  0.92741  0.42270  1.0000
  H   H694      1.0  0.61916  0.79738  0.22582  1.0000
  H   H695      1.0  0.72006  0.92641  0.44737  1.0000
  H   H696      1.0  0.59947  0.78298  0.40759  1.0000
  C   C440      1.0  0.59221  0.82129  0.19463  1.0000
  H   H697      1.0  0.62357  0.98577  0.09354  1.0000
  H   H698      1.0  0.60500  0.89873  0.16770  1.0000
  H   H699      1.0  0.61209  0.96128  0.17709  1.0000
  H   H700      1.0  0.70521  0.79089  0.13997  1.0000
  H   H701      1.0  0.74169  0.78812  0.06543  1.0000
  C   C441      1.0  0.72446  0.89914  0.05850  1.0000
  H   H702      1.0  0.62819  0.99820  0.21884  1.0000
  S   S179      1.0  0.79291  0.01394  0.34533  1.0000
  N   N44       1.0  0.98602  0.81866  0.19000  1.0000
  C   C442      1.0  0.91017  0.02085  0.43272  1.0000
  C   C443      1.0  0.85451  0.93214  0.08655  1.0000
  Fe  Fe90      1.0  0.68216  0.77816  0.31293  1.0000
  H   H703      1.0  0.61417  0.01428  0.06953  1.0000
  H   H704      1.0  0.00724  0.81341  0.23247  1.0000
  H   H705      1.0  0.85261  0.78892  0.29889  1.0000
  C   C444      1.0  0.96673  0.84261  0.19959  1.0000
  N   N45       1.0  0.65736  0.99411  0.05991  1.0000
  H   H706      1.0  0.69185  0.80966  0.10797  1.0000
  C   C445      1.0  0.83042  0.92214  0.06903  1.0000
  H   H707      1.0  0.73684  0.01710  0.25597  1.0000
  S   S180      1.0  0.59440  0.83414  0.07814  1.0000
  H   H708      1.0  0.02786  0.83592  0.20761  1.0000
  C   C446      1.0  0.70921  0.79407  0.11588  1.0000
  H   H709      1.0  0.74291  0.82799  0.14975  1.0000
  H   H710      1.0  0.69140  0.02671  0.17600  1.0000
  H   H711      1.0  0.76165  0.77920  0.14491  1.0000
  C   C447      1.0  0.76337  0.78235  0.12059  1.0000
  H   H712      1.0  0.89984  0.00042  0.42648  1.0000
  S   S181      1.0  0.67766  0.86247  0.07012  1.0000
  S   S182      1.0  0.74144  0.02674  0.13564  1.0000
  Fe  Fe91      1.0  0.62627  0.86924  0.06728  1.0000
  H   H713      1.0  0.95992  0.78896  0.21554  1.0000
  H   H714      1.0  0.93315  0.01667  0.44284  1.0000
  C   C448      1.0  0.81402  0.02335  0.43179  1.0000
  H   H715      1.0  0.99888  0.87320  0.81606  1.0000
  S   S183      1.0  0.00347  0.91976  0.71818  1.0000
  C   C449      1.0  0.01371  0.88520  0.63804  1.0000
  Fe  Fe92      1.0  0.97736  0.94917  0.68863  1.0000
  S   S184      1.0  0.95167  0.93804  0.64743  1.0000
  S   S185      1.0  0.01651  0.97879  0.68251  1.0000
  H   H716      1.0  0.75910  0.93039  0.05085  1.0000
  C   C450      1.0  0.93425  0.96896  0.63438  1.0000
  C   C451      1.0  0.94005  0.99420  0.64884  1.0000
  H   H717      1.0  0.63695  0.95385  0.05180  1.0000
  C   C452      1.0  0.91415  0.96868  0.61014  1.0000
  H   H718      1.0  0.95587  0.99493  0.66710  1.0000
  H   H719      1.0  0.91707  0.79001  0.98069  1.0000
  C   C453      1.0  0.89923  0.99348  0.60109  1.0000
  H   H720      1.0  0.88320  0.99312  0.58278  1.0000
  S   S186      1.0  0.59774  0.88485  0.02919  1.0000
  H   H721      1.0  0.02896  0.86189  0.86103  1.0000
  H   H722      1.0  0.04345  0.93097  0.61922  1.0000
  C   C454      1.0  0.04855  0.85539  0.84664  1.0000
  Fe  Fe93      1.0  0.04111  0.95153  0.71514  1.0000
  H   H723      1.0  0.90966  0.94925  0.59874  1.0000
  C   C455      1.0  0.94972  0.00974  0.82458  1.0000
  H   H724      1.0  0.89356  0.02150  0.76667  1.0000
  H   H725      1.0  0.00240  0.89436  0.65791  1.0000
  C   C456      1.0  0.05181  0.90109  0.82420  1.0000
  H   H726      1.0  0.01577  0.84325  0.79803  1.0000
  H   H727      1.0  0.91650  0.79287  0.02026  1.0000
  N   N46       1.0  0.04748  0.88984  0.63829  1.0000
  C   C457      1.0  0.89353  0.99871  0.97435  1.0000
  H   H728      1.0  0.97395  0.79156  0.02119  1.0000
  H   H729      1.0  0.92986  0.02499  0.93432  1.0000
  C   C458      1.0  0.69612  0.88829  0.04923  1.0000
  Fe  Fe94      1.0  0.76438  0.99102  0.03394  1.0000
  H   H730      1.0  0.04356  0.93000  0.65870  1.0000
  S   S187      1.0  0.73415  0.96572  0.00410  1.0000
  H   H731      1.0  0.66074  0.89000  0.01597  1.0000
  H   H732      1.0  0.03251  0.90924  0.83805  1.0000
  C   C459      1.0  0.96118  0.01148  0.85332  1.0000
  C   C460      1.0  0.68186  0.89908  0.02400  1.0000
  S   S188      1.0  0.81314  0.00191  0.02217  1.0000
  H   H733      1.0  0.07396  0.90560  0.83576  1.0000
  N   N47       1.0  0.04845  0.87085  0.81839  1.0000
  S   S189      1.0  0.02538  0.97644  0.75424  1.0000
  H   H734      1.0  0.98910  0.94506  0.86052  1.0000
  S   S190      1.0  0.97435  0.93145  0.80029  1.0000
  H   H735      1.0  0.05737  0.85375  0.66523  1.0000
  C   C461      1.0  0.06115  0.87673  0.66485  1.0000
  H   H736      1.0  0.94463  0.98374  0.78626  1.0000
  H   H737      1.0  0.68353  0.93020  0.98970  1.0000
  H   H738      1.0  0.81795  0.93621  0.05461  1.0000
  C   C462      1.0  0.85347  0.00921  0.93890  1.0000
  H   H739      1.0  0.07268  0.83831  0.79488  1.0000
  C   C463      1.0  0.97795  0.96300  0.85052  1.0000
  C   C464      1.0  0.96738  0.96152  0.82142  1.0000
  H   H740      1.0  0.07033  0.85900  0.85911  1.0000
  S   S191      1.0  0.95547  0.97276  0.72597  1.0000
  C   C465      1.0  0.72198  0.93397  0.01952  1.0000
  H   H741      1.0  0.84576  0.02304  0.92050  1.0000
  Fe  Fe95      1.0  0.98584  0.94663  0.75501  1.0000
  C   C466      1.0  0.01904  0.86588  0.80277  1.0000
  C   C467      1.0  0.69499  0.92163  0.00893  1.0000
  H   H742      1.0  0.66049  0.96702  0.02226  1.0000
  H   H743      1.0  0.87203  0.99622  0.72333  1.0000
  H   H744      1.0  0.89560  0.97686  0.96615  1.0000
  H   H745      1.0  0.97451  0.78883  0.98150  1.0000
  H   H746      1.0  0.05936  0.02198  0.82818  1.0000
  H   H747      1.0  0.05173  0.88687  0.59114  1.0000
  C   C468      1.0  0.95317  0.98489  0.80854  1.0000
  H   H748      1.0  0.91629  0.00480  0.98370  1.0000
  H   H749      1.0  0.98427  0.98946  0.88853  1.0000
  C   C469      1.0  0.06148  0.87737  0.61157  1.0000
  H   H750      1.0  0.07888  0.92461  0.63922  1.0000
  H   H751      1.0  0.68659  0.01164  0.02635  1.0000
  H   H752      1.0  0.04671  0.83243  0.84299  1.0000
  C   C470      1.0  0.07451  0.86104  0.79994  1.0000
  Fe  Fe96      1.0  0.99664  0.00058  0.72203  1.0000
  C   C471      1.0  0.66841  0.01818  0.04244  1.0000
  C   C472      1.0  0.64384  0.97316  0.03980  1.0000
  C   C473      1.0  0.05363  0.92017  0.63870  1.0000
  C   C474      1.0  0.97522  0.98810  0.86633  1.0000
  H   H753      1.0  0.05102  0.88558  0.68543  1.0000
  H   H754      1.0  0.85436  0.98748  0.93021  1.0000
  H   H755      1.0  0.00252  0.89526  0.61858  1.0000
  H   H756      1.0  0.62275  0.98139  0.02865  1.0000
  H   H757      1.0  0.05167  0.91335  0.80330  1.0000
  H   H758      1.0  0.02393  0.01064  0.81149  1.0000
  H   H759      1.0  0.05732  0.85444  0.61054  1.0000
  S   S192      1.0  0.08209  0.78070  0.82115  1.0000
  C   C475      1.0  0.92508  0.01873  0.64001  1.0000
  H   H760      1.0  0.87661  0.99864  0.99291  1.0000
  H   H761      1.0  0.00804  0.86255  0.63760  1.0000
  C   C476      1.0  0.73732  0.92206  0.04367  1.0000
  H   H762      1.0  0.83520  0.01002  0.95622  1.0000
  C   C477      1.0  0.90427  0.01838  0.61654  1.0000
  H   H763      1.0  0.01817  0.87742  0.78144  1.0000
  H   H764      1.0  0.86760  0.01405  0.68855  1.0000
  H   H765      1.0  0.90519  0.00438  0.70125  1.0000
  C   C478      1.0  0.88231  0.01235  0.70864  1.0000
  C   C479      1.0  0.90685  0.01775  0.92659  1.0000
  N   N48       1.0  0.88373  0.01806  0.95065  1.0000
  H   H766      1.0  0.90991  0.99644  0.91714  1.0000
  H   H767      1.0  0.07573  0.87264  0.77868  1.0000
  C   C480      1.0  0.91725  0.77774  0.00158  1.0000
  H   H768      1.0  0.80423  0.88605  0.05591  1.0000
