data_image0
_chemical_formula_structural       HCH3CSH5NHCHCH2FeCH2CHC2H2SFeC2SC2HCSFeSHS2CFeSFeS3CFeHFeHC3H5NH2CH2C2SHCHCHNCFeSCHC3H4CH2C2H2SH3SH4NHC2HCH3CH6S2CHCH2CH2SH3CHC3NH6CH2SCSHCSC2SHC4FeHC2H2CH6FeH2CNH2FeCH5CH2CH2CS2CSFeSHNFeHS2H3C6H4CS2HC2H4FeH2C2H5CHCNCHC2FeSCH3CH2C2H3CHSHCHC2HCNH2FeC2H3CFeH2C3SNSFeCSH4CS2HC2FeCH4CHSFeCH4SHCHCHCH3Fe2SFeCHSHCSC2SH2SC5H3FeH3CHSCHFeCHSCH3SHCH2SCFeNCHFeHCH3C4HCHFeC3H2NHSH2S2H3C2HCH2NH5CH2C2SCH3SHCHCSH4SNC2SCHCH2SH3CHC4HC2H2C2SH2CH2S2H3NHC2H2CNHSH3C2H2CHC3H3CH3C2FeCH4FeSCHCHFeCSH4FeC2H2SNSC2SFeCHCHSCH2CH4CHCHFeSC2HC2HSCHC2H3C2HC4H2CHCHNCFeS2H6FeH3CS4HSHCH2CSHCFeH2FeSCH2CSFeSFeSHCSFeSFeSHCSC3SHC6H4C2HC2HSCHCHNC4H7FeH5C3HFeH2CSHFeCSH4CSNCH4N2H3CHCH4CH4CH4CH2CHSCH2SC2S2NHCHFeCSFeH2CFeCHC2S3HSNSCH3CHFeH2CSFeHCHCHSH2CHC2HCNHC2HCHCHCHNH3S2FeS2FeS2H2SFeSFeS4H2C2HCHCHC6H4SC2HSHFeH8C2H2SH3FeNH2CH2CH7C2HCHC3HFeH3SHC3HFeCH3CFeCH5SH2C2HFeH2SHSCH2SCH2SCH3CSH4CH3CHCNH5C2SC2HCHC2HFeNC3H2CNHCHFeCH3C2H3FeHSCHC2HCHSFeH2SH8CHC2H4NH2CHCH2CH5NHCH3CHCH2C
_chemical_formula_sum              "H512 C320 S128 N32 Fe64"
_cell_length_a       39.6328
_cell_length_b       39.273
_cell_length_c       62.7929
_cell_angle_alpha    87.79
_cell_angle_beta     87.807
_cell_angle_gamma    106.066

_space_group_name_H-M_alt    "P 1"
_space_group_IT_number       1

loop_
  _space_group_symop_operation_xyz
  'x, y, z'

loop_
  _atom_site_type_symbol
  _atom_site_label
  _atom_site_symmetry_multiplicity
  _atom_site_fract_x
  _atom_site_fract_y
  _atom_site_fract_z
  _atom_site_occupancy
  H   H1        1.0  0.24413  0.42578  0.05841  1.0000
  C   C1        1.0  0.23911  0.41236  0.04305  1.0000
  H   H2        1.0  0.25386  0.35130  0.05393  1.0000
  H   H3        1.0  0.22892  0.42979  0.03219  1.0000
  H   H4        1.0  0.16775  0.39505  0.04479  1.0000
  C   C2        1.0  0.20782  0.36007  0.02550  1.0000
  S   S1        1.0  0.14141  0.42191  0.00200  1.0000
  H   H5        1.0  0.18426  0.39417  0.07086  1.0000
  H   H6        1.0  0.18886  0.33320  0.02731  1.0000
  H   H7        1.0  0.26494  0.41098  0.03613  1.0000
  H   H8        1.0  0.19682  0.37619  0.01411  1.0000
  H   H9        1.0  0.21026  0.32769  0.06401  1.0000
  N   N1        1.0  0.21397  0.37670  0.04627  1.0000
  H   H10       1.0  0.25210  0.41675  0.99673  1.0000
  C   C3        1.0  0.22867  0.35459  0.06078  1.0000
  H   H11       1.0  0.23457  0.36704  0.07636  1.0000
  C   C4        1.0  0.18032  0.37983  0.05577  1.0000
  H   H12       1.0  0.16119  0.35341  0.05937  1.0000
  H   H13       1.0  0.23266  0.35729  0.01783  1.0000
  Fe  Fe1       1.0  0.12252  0.46062  0.98178  1.0000
  C   C5        1.0  0.29155  0.41306  0.10758  1.0000
  H   H14       1.0  0.22303  0.48790  0.08886  1.0000
  H   H15       1.0  0.27664  0.38543  0.10792  1.0000
  C   C6        1.0  0.28959  0.43317  0.12532  1.0000
  H   H16       1.0  0.31649  0.43209  0.99848  1.0000
  C   C7        1.0  0.44924  0.39760  0.97205  1.0000
  C   C8        1.0  0.30873  0.46894  0.12503  1.0000
  H   H17       1.0  0.34975  0.47604  0.07563  1.0000
  H   H18       1.0  0.27298  0.42109  0.13921  1.0000
  S   S2        1.0  0.18520  0.46887  0.05136  1.0000
  Fe  Fe2       1.0  0.17429  0.47050  0.01665  1.0000
  C   C9        1.0  0.26800  0.41376  0.98302  1.0000
  C   C10       1.0  0.30459  0.42275  0.98393  1.0000
  S   S3        1.0  0.30592  0.49365  0.14744  1.0000
  C   C11       1.0  0.33037  0.48436  0.10705  1.0000
  C   C12       1.0  0.03491  0.34343  0.97162  1.0000
  H   H19       1.0  0.45133  0.39566  0.98963  1.0000
  C   C13       1.0  0.31331  0.42843  0.08969  1.0000
  S   S4        1.0  0.41686  0.45118  0.05837  1.0000
  Fe  Fe3       1.0  0.36339  0.42757  0.04639  1.0000
  S   S5        1.0  0.22056  0.47694  0.99386  1.0000
  H   H20       1.0  0.40923  0.48979  0.10587  1.0000
  S   S6        1.0  0.31581  0.40267  0.06781  1.0000
  S   S7        1.0  0.44395  0.46869  0.00743  1.0000
  C   C14       1.0  0.33287  0.46409  0.08943  1.0000
  Fe  Fe4       1.0  0.38800  0.44326  0.99998  1.0000
  S   S8        1.0  0.47370  0.39087  0.03702  1.0000
  Fe  Fe5       1.0  0.43592  0.42348  0.03182  1.0000
  S   S9        1.0  0.36503  0.47314  0.02355  1.0000
  S   S10       1.0  0.38179  0.39567  0.02206  1.0000
  S   S11       1.0  0.06519  0.45077  0.97465  1.0000
  C   C15       1.0  0.00308  0.39835  0.97464  1.0000
  Fe  Fe6       1.0  0.18574  0.43212  0.97732  1.0000
  H   H21       1.0  0.30487  0.49628  0.20722  1.0000
  Fe  Fe7       1.0  0.42032  0.49417  0.03317  1.0000
  H   H22       1.0  0.44007  0.49727  0.12659  1.0000
  C   C16       1.0  0.03985  0.40619  0.97439  1.0000
  C   C17       1.0  0.05572  0.37860  0.97298  1.0000
  C   C18       1.0  0.39880  0.34624  0.97495  1.0000
  H   H23       1.0  0.40154  0.34249  0.99242  1.0000
  H   H24       1.0  0.08406  0.38442  0.97257  1.0000
  H   H25       1.0  0.38077  0.36333  0.97291  1.0000
  H   H26       1.0  0.46075  0.33596  0.98467  1.0000
  H   H27       1.0  0.35075  0.50440  0.21225  1.0000
  N   N2        1.0  0.33709  0.48805  0.36816  1.0000
  H   H28       1.0  0.26508  0.49076  0.29801  1.0000
  H   H29       1.0  0.10952  0.41450  0.43144  1.0000
  C   C19       1.0  0.05995  0.42617  0.43669  1.0000
  H   H30       1.0  0.30600  0.45963  0.39543  1.0000
  H   H31       1.0  0.06322  0.46696  0.39812  1.0000
  C   C20       1.0  0.31297  0.45549  0.37854  1.0000
  C   C21       1.0  0.09667  0.49763  0.34818  1.0000
  S   S12       1.0  0.03543  0.38253  0.43273  1.0000
  H   H32       1.0  0.35865  0.45954  0.34514  1.0000
  C   C22       1.0  0.11695  0.46964  0.43762  1.0000
  H   H33       1.0  0.28795  0.44710  0.37019  1.0000
  C   C23       1.0  0.04351  0.45239  0.44152  1.0000
  H   H34       1.0  0.32201  0.47421  0.33634  1.0000
  N   N3        1.0  0.09827  0.49077  0.37138  1.0000
  C   C24       1.0  0.09668  0.43482  0.43486  1.0000
  Fe  Fe8       1.0  0.47814  0.50526  0.42090  1.0000
  S   S13       1.0  0.45695  0.49367  0.45489  1.0000
  C   C25       1.0  0.06279  0.47208  0.38061  1.0000
  H   H35       1.0  0.32505  0.43305  0.37872  1.0000
  C   C26       1.0  0.12230  0.46854  0.37511  1.0000
  C   C27       1.0  0.34500  0.50439  0.43916  1.0000
  C   C28       1.0  0.10063  0.49620  0.44169  1.0000
  H   H36       1.0  0.08682  0.47248  0.33992  1.0000
  H   H37       1.0  0.34255  0.47979  0.43136  1.0000
  H   H38       1.0  0.42743  0.49133  0.35119  1.0000
  H   H39       1.0  0.11305  0.44247  0.36775  1.0000
  C   C29       1.0  0.34587  0.48142  0.34588  1.0000
  H   H40       1.0  0.14524  0.47578  0.43684  1.0000
  H   H41       1.0  0.14932  0.48180  0.36828  1.0000
  C   C30       1.0  0.36964  0.49833  0.37995  1.0000
  C   C31       1.0  0.06386  0.48738  0.44400  1.0000
  H   H42       1.0  0.01512  0.44601  0.44281  1.0000
  H   H43       1.0  0.21070  0.49633  0.31681  1.0000
  S   S14       1.0  0.27899  0.49870  0.42709  1.0000
  H   H44       1.0  0.12436  0.46309  0.39245  1.0000
  H   H45       1.0  0.36427  0.50483  0.39655  1.0000
  H   H46       1.0  0.38251  0.47647  0.38100  1.0000
  S   S15       1.0  0.45454  0.47830  0.39201  1.0000
  H   H47       1.0  0.04382  0.48792  0.37805  1.0000
  H   H48       1.0  0.05217  0.44588  0.37358  1.0000
  H   H49       1.0  0.36435  0.50540  0.33764  1.0000
  H   H50       1.0  0.07402  0.43608  0.50270  1.0000
  N   N4        1.0  0.05182  0.37934  0.50343  1.0000
  H   H51       1.0  0.04097  0.42080  0.48385  1.0000
  C   C32       1.0  0.02441  0.37947  0.52005  1.0000
  C   C33       1.0  0.03746  0.35166  0.48830  1.0000
  H   H52       1.0  0.02795  0.32485  0.49651  1.0000
  C   C34       1.0  0.08222  0.37178  0.51353  1.0000
  H   H53       1.0  0.10334  0.37146  0.50138  1.0000
  H   H54       1.0  0.01476  0.35323  0.52895  1.0000
  H   H55       1.0  0.07443  0.34546  0.52241  1.0000
  C   C35       1.0  0.06323  0.41442  0.49183  1.0000
  H   H56       1.0  0.03426  0.39989  0.53182  1.0000
  H   H57       1.0  0.09378  0.39218  0.52502  1.0000
  H   H58       1.0  0.08398  0.41532  0.47920  1.0000
  H   H59       1.0  0.00108  0.38515  0.51298  1.0000
  H   H60       1.0  0.01475  0.35666  0.48024  1.0000
  H   H61       1.0  0.05733  0.35082  0.47543  1.0000
  S   S16       1.0  0.20624  0.38949  0.96349  1.0000
  S   S17       1.0  0.16465  0.46716  0.95578  1.0000
  C   C36       1.0  0.30955  0.40748  0.94721  1.0000
  H   H62       1.0  0.26036  0.38667  0.93225  1.0000
  C   C37       1.0  0.27275  0.39688  0.94664  1.0000
  H   H63       1.0  0.43333  0.41625  0.96874  1.0000
  H   H64       1.0  0.44582  0.31268  0.96120  1.0000
  C   C38       1.0  0.42870  0.36658  0.94062  1.0000
  H   H65       1.0  0.41109  0.38380  0.93747  1.0000
  H   H66       1.0  0.45434  0.37903  0.93177  1.0000
  S   S18       1.0  0.37134  0.43551  0.96630  1.0000
  H   H67       1.0  0.47600  0.40995  0.96463  1.0000
  H   H68       1.0  0.32558  0.40553  0.93322  1.0000
  H   H69       1.0  0.30811  0.49234  0.97040  1.0000
  C   C39       1.0  0.29929  0.50040  0.95488  1.0000
  H   H70       1.0  0.02700  0.42044  0.91115  1.0000
  C   C40       1.0  0.01744  0.39114  0.91416  1.0000
  C   C41       1.0  0.25201  0.40060  0.96447  1.0000
  C   C42       1.0  0.45677  0.33950  0.96734  1.0000
  N   N5        1.0  0.43335  0.36242  0.96372  1.0000
  H   H71       1.0  0.01920  0.38571  0.93155  1.0000
  H   H72       1.0  0.38573  0.31982  0.96890  1.0000
  H   H73       1.0  0.48327  0.35118  0.95929  1.0000
  H   H74       1.0  0.41689  0.34053  0.93372  1.0000
  H   H75       1.0  0.29179  0.47645  0.94528  1.0000
  H   H76       1.0  0.03617  0.37910  0.90573  1.0000
  C   C43       1.0  0.32546  0.42049  0.96589  1.0000
  H   H77       1.0  0.35196  0.49327  0.92902  1.0000
  H   H78       1.0  0.04739  0.32229  0.97029  1.0000
  S   S19       1.0  0.27181  0.57851  0.14421  1.0000
  C   C44       1.0  0.23397  0.60478  0.98918  1.0000
  S   S20       1.0  0.30188  0.64376  0.18924  1.0000
  H   H79       1.0  0.36386  0.61847  0.01835  1.0000
  C   C45       1.0  0.33038  0.51725  0.20726  1.0000
  S   S21       1.0  0.26019  0.61750  0.08687  1.0000
  C   C46       1.0  0.31580  0.58753  0.04967  1.0000
  C   C47       1.0  0.28506  0.70926  0.08512  1.0000
  S   S22       1.0  0.29483  0.70263  0.00248  1.0000
  H   H80       1.0  0.23445  0.64238  0.01353  1.0000
  C   C48       1.0  0.29848  0.74258  0.05126  1.0000
  C   C49       1.0  0.41923  0.55842  0.09378  1.0000
  C   C50       1.0  0.23730  0.57637  0.07759  1.0000
  C   C51       1.0  0.23857  0.54498  0.08840  1.0000
  Fe  Fe9       1.0  0.31356  0.62067  0.15867  1.0000
  H   H81       1.0  0.21087  0.58525  0.99610  1.0000
  C   C52       1.0  0.20346  0.54182  0.05039  1.0000
  C   C53       1.0  0.21966  0.57481  0.05860  1.0000
  H   H82       1.0  0.25221  0.54589  0.10301  1.0000
  H   H83       1.0  0.31739  0.75116  0.03719  1.0000
  C   C54       1.0  0.24732  0.63712  0.99902  1.0000
  H   H84       1.0  0.21873  0.59903  0.05013  1.0000
  H   H85       1.0  0.34422  0.76338  0.08206  1.0000
  H   H86       1.0  0.27278  0.72823  0.04493  1.0000
  H   H87       1.0  0.39993  0.56558  0.10472  1.0000
  H   H88       1.0  0.18989  0.54071  0.03573  1.0000
  H   H89       1.0  0.43380  0.58315  0.08439  1.0000
  Fe  Fe10      1.0  0.29354  0.60836  0.11330  1.0000
  H   H90       1.0  0.25869  0.69390  0.08016  1.0000
  H   H91       1.0  0.36546  0.56023  0.03405  1.0000
  C   C55       1.0  0.33988  0.65653  0.20370  1.0000
  N   N6        1.0  0.31062  0.71962  0.06664  1.0000
  H   H92       1.0  0.30217  0.56509  0.06108  1.0000
  H   H93       1.0  0.33186  0.69432  0.04183  1.0000
  Fe  Fe11      1.0  0.31415  0.55142  0.13902  1.0000
  C   C56       1.0  0.27730  0.66251  0.99007  1.0000
  H   H94       1.0  0.28757  0.67192  0.05064  1.0000
  H   H95       1.0  0.49597  0.91365  0.01398  1.0000
  H   H96       1.0  0.45174  0.90943  0.02338  1.0000
  H   H97       1.0  0.29345  0.69193  0.09706  1.0000
  H   H98       1.0  0.29521  0.76680  0.05866  1.0000
  C   C57       1.0  0.33875  0.54898  0.02808  1.0000
  H   H99       1.0  0.28181  0.73277  0.09339  1.0000
  H   H100      1.0  0.34217  0.60009  0.05574  1.0000
  C   C58       1.0  0.31350  0.68745  0.05613  1.0000
  H   H101      1.0  0.32543  0.52533  0.03872  1.0000
  H   H102      1.0  0.34216  0.53977  0.01184  1.0000
  C   C59       1.0  0.46984  0.53581  0.09083  1.0000
  S   S23       1.0  0.33202  0.65311  0.12814  1.0000
  S   S24       1.0  0.33237  0.57771  0.10672  1.0000
  C   C60       1.0  0.34540  0.73902  0.07397  1.0000
  S   S25       1.0  0.35385  0.59049  0.15660  1.0000
  Fe  Fe12      1.0  0.36881  0.61919  0.12477  1.0000
  S   S26       1.0  0.42603  0.64016  0.11584  1.0000
  H   H103      1.0  0.32233  0.62681  0.01324  1.0000
  N   N7        1.0  0.31853  0.57539  0.02788  1.0000
  Fe  Fe13      1.0  0.42172  0.74637  0.01422  1.0000
  H   H104      1.0  0.28368  0.55092  0.00382  1.0000
  S   S27       1.0  0.44780  0.76261  0.04465  1.0000
  S   S28       1.0  0.38730  0.77822  0.00185  1.0000
  H   H105      1.0  0.47395  0.91323  0.06035  1.0000
  H   H106      1.0  0.42840  0.66942  0.19811  1.0000
  H   H107      1.0  0.45026  0.62647  0.03591  1.0000
  C   C61       1.0  0.43236  0.67314  0.09544  1.0000
  C   C62       1.0  0.46274  0.70168  0.09449  1.0000
  C   C63       1.0  0.46731  0.72911  0.07881  1.0000
  C   C64       1.0  0.44214  0.72734  0.06359  1.0000
  C   C65       1.0  0.41217  0.69826  0.06417  1.0000
  C   C66       1.0  0.40692  0.67143  0.08036  1.0000
  H   H108      1.0  0.46089  0.87710  0.00628  1.0000
  H   H109      1.0  0.32306  0.66971  0.06717  1.0000
  H   H110      1.0  0.39271  0.69685  0.05251  1.0000
  H   H111      1.0  0.38346  0.64930  0.08109  1.0000
  C   C67       1.0  0.44212  0.61508  0.02086  1.0000
  S   S29       1.0  0.38407  0.69448  0.00791  1.0000
  S   S30       1.0  0.45389  0.74893  0.98379  1.0000
  H   H112      1.0  0.48233  0.70303  0.10622  1.0000
  C   C68       1.0  0.40289  0.66702  0.20582  1.0000
  C   C69       1.0  0.33669  0.60610  0.01343  1.0000
  H   H113      1.0  0.42111  0.53592  0.99725  1.0000
  H   H114      1.0  0.26879  0.53524  0.03082  1.0000
  H   H115      1.0  0.44171  0.57450  0.13293  1.0000
  H   H116      1.0  0.30611  0.57256  0.19736  1.0000
  Fe  Fe14      1.0  0.35210  0.72615  0.99253  1.0000
  H   H117      1.0  0.34572  0.51164  0.10692  1.0000
  H   H118      1.0  0.37559  0.65834  0.17665  1.0000
  C   C70       1.0  0.49934  0.84665  0.97277  1.0000
  C   C71       1.0  0.46104  0.56848  0.12135  1.0000
  H   H119      1.0  0.49052  0.75154  0.07839  1.0000
  H   H120      1.0  0.27423  0.54205  0.21492  1.0000
  H   H121      1.0  0.47596  0.59429  0.11322  1.0000
  H   H122      1.0  0.30056  0.60740  0.05012  1.0000
  H   H123      1.0  0.44311  0.66522  0.00539  1.0000
  C   C72       1.0  0.42148  0.58602  0.98185  1.0000
  H   H124      1.0  0.44459  0.83183  0.06059  1.0000
  C   C73       1.0  0.28292  0.55910  0.02056  1.0000
  N   N8        1.0  0.44327  0.54304  0.10581  1.0000
  C   C74       1.0  0.44166  0.84874  0.04651  1.0000
  H   H125      1.0  0.35536  0.72226  0.08552  1.0000
  C   C75       1.0  0.42562  0.56404  0.99911  1.0000
  C   C76       1.0  0.43593  0.57862  0.01862  1.0000
  Fe  Fe15      1.0  0.41231  0.69993  0.97599  1.0000
  S   S31       1.0  0.43947  0.55126  0.04060  1.0000
  C   C77       1.0  0.43773  0.63698  0.00365  1.0000
  H   H126      1.0  0.33896  0.59847  0.99671  1.0000
  H   H127      1.0  0.49503  0.81846  0.97532  1.0000
  H   H128      1.0  0.26657  0.57797  0.02118  1.0000
  C   C78       1.0  0.37297  0.66043  0.19371  1.0000
  H   H129      1.0  0.36535  0.74717  0.06038  1.0000
  H   H130      1.0  0.42277  0.86375  0.05121  1.0000
  C   C79       1.0  0.49128  0.89659  0.05553  1.0000
  C   C80       1.0  0.42286  0.50959  0.11721  1.0000
  H   H131      1.0  0.40438  0.53956  0.08240  1.0000
  H   H132      1.0  0.48498  0.56041  0.08154  1.0000
  H   H133      1.0  0.48934  0.83315  0.01993  1.0000
  C   C81       1.0  0.42695  0.62241  0.98422  1.0000
  H   H134      1.0  0.49547  0.88129  0.07001  1.0000
  S   S32       1.0  0.15201  0.50899  0.99860  1.0000
  H   H135      1.0  0.36947  0.58600  0.20423  1.0000
  C   C82       1.0  0.22205  0.51209  0.08036  1.0000
  H   H136      1.0  0.42963  0.83042  0.03402  1.0000
  C   C83       1.0  0.30054  0.56180  0.21417  1.0000
  C   C84       1.0  0.29367  0.65547  0.97133  1.0000
  H   H137      1.0  0.33720  0.52755  0.19039  1.0000
  C   C85       1.0  0.47086  0.89413  0.01976  1.0000
  N   N9        1.0  0.47594  0.87274  0.03863  1.0000
  H   H138      1.0  0.45731  0.51652  0.07899  1.0000
  H   H139      1.0  0.40223  0.51410  0.12845  1.0000
  Fe  Fe16      1.0  0.19607  0.51172  0.97443  1.0000
  C   C86       1.0  0.36229  0.57339  0.22057  1.0000
  C   C87       1.0  0.20457  0.51044  0.06133  1.0000
  H   H140      1.0  0.47977  0.55812  0.13060  1.0000
  H   H141      1.0  0.48883  0.52466  0.09931  1.0000
  H   H142      1.0  0.34760  0.55341  0.97215  1.0000
  C   C88       1.0  0.50003  0.85149  0.03269  1.0000
  Fe  Fe17      1.0  0.41750  0.77848  0.97077  1.0000
  H   H143      1.0  0.31694  0.55218  0.25458  1.0000
  H   H144      1.0  0.09354  0.54204  0.37964  1.0000
  C   C89       1.0  0.29834  0.66459  0.32897  1.0000
  C   C90       1.0  0.31697  0.66231  0.44333  1.0000
  C   C91       1.0  0.36681  0.66709  0.23777  1.0000
  S   S33       1.0  0.47968  0.56277  0.42007  1.0000
  N   N10       1.0  0.27955  0.68323  0.34318  1.0000
  S   S34       1.0  0.26744  0.57616  0.39237  1.0000
  Fe  Fe18      1.0  0.45472  0.76224  0.45378  1.0000
  C   C92       1.0  0.46189  0.54139  0.33879  1.0000
  S   S35       1.0  0.33707  0.53237  0.29875  1.0000
  H   H145      1.0  0.24464  0.69065  0.31919  1.0000
  H   H146      1.0  0.31080  0.64713  0.33832  1.0000
  H   H147      1.0  0.28416  0.72647  0.32023  1.0000
  H   H148      1.0  0.23686  0.67003  0.36702  1.0000
  C   C93       1.0  0.31325  0.68347  0.42565  1.0000
  S   S36       1.0  0.49147  0.74549  0.43107  1.0000
  S   S37       1.0  0.19963  0.54518  0.34750  1.0000
  H   H149      1.0  0.26290  0.63963  0.36638  1.0000
  C   C94       1.0  0.29869  0.53680  0.31156  1.0000
  C   C95       1.0  0.26982  0.56705  0.33620  1.0000
  Fe  Fe19      1.0  0.17910  0.55452  0.42564  1.0000
  C   C96       1.0  0.30034  0.56452  0.32517  1.0000
  H   H150      1.0  0.31685  0.68842  0.36767  1.0000
  H   H151      1.0  0.32522  0.58364  0.32751  1.0000
  H   H152      1.0  0.31985  0.68364  0.31910  1.0000
  H   H153      1.0  0.27116  0.58817  0.34685  1.0000
  C   C97       1.0  0.26370  0.70633  0.33016  1.0000
  H   H154      1.0  0.28032  0.64766  0.31797  1.0000
  S   S38       1.0  0.19271  0.59675  0.39905  1.0000
  Fe  Fe20      1.0  0.24632  0.61232  0.41241  1.0000
  C   C98       1.0  0.30458  0.70509  0.35751  1.0000
  H   H155      1.0  0.29133  0.71942  0.36857  1.0000
  H   H156      1.0  0.23245  0.63938  0.34591  1.0000
  H   H157      1.0  0.32639  0.72500  0.34839  1.0000
  H   H158      1.0  0.38911  0.52192  0.37211  1.0000
  S   S39       1.0  0.27780  0.66969  0.40906  1.0000
  H   H159      1.0  0.24939  0.72084  0.34042  1.0000
  C   C99       1.0  0.25161  0.65691  0.35609  1.0000
  H   H160      1.0  0.29760  0.56126  0.45232  1.0000
  C   C100      1.0  0.35131  0.56705  0.46027  1.0000
  H   H161      1.0  0.29741  0.63735  0.44730  1.0000
  C   C101      1.0  0.38037  0.55354  0.45787  1.0000
  H   H162      1.0  0.36443  0.67046  0.25465  1.0000
  H   H163      1.0  0.49446  0.77709  0.33795  1.0000
  H   H164      1.0  0.33583  0.73237  0.40706  1.0000
  Fe  Fe21      1.0  0.21286  0.55783  0.38115  1.0000
  Fe  Fe22      1.0  0.42383  0.64741  0.27596  1.0000
  S   S40       1.0  0.43670  0.67347  0.24313  1.0000
  Fe  Fe23      1.0  0.45543  0.61504  0.31183  1.0000
  C   C102      1.0  0.31964  0.55018  0.45106  1.0000
  H   H165      1.0  0.33970  0.51952  0.24976  1.0000
  S   S41       1.0  0.45357  0.67046  0.30412  1.0000
  H   H166      1.0  0.33706  0.54177  0.36026  1.0000
  C   C103      1.0  0.33867  0.71586  0.42069  1.0000
  S   S42       1.0  0.45857  0.81390  0.43575  1.0000
  C   C104      1.0  0.31662  0.51883  0.44045  1.0000
  C   C105      1.0  0.47147  0.50968  0.37090  1.0000
  S   S43       1.0  0.12554  0.54075  0.44266  1.0000
  H   H167      1.0  0.38218  0.62856  0.43722  1.0000
  H   H168      1.0  0.38475  0.57954  0.38734  1.0000
  S   S44       1.0  0.43088  0.59314  0.28193  1.0000
  C   C106      1.0  0.39972  0.66946  0.22794  1.0000
  C   C107      1.0  0.43928  0.76056  0.38228  1.0000
  C   C108      1.0  0.46939  0.77577  0.36915  1.0000
  C   C109      1.0  0.47146  0.76493  0.34830  1.0000
  C   C110      1.0  0.44424  0.73744  0.34104  1.0000
  H   H169      1.0  0.43091  0.67499  0.38880  1.0000
  H   H170      1.0  0.43722  0.76924  0.39828  1.0000
  H   H171      1.0  0.36167  0.59493  0.23144  1.0000
  Fe  Fe24      1.0  0.46268  0.55221  0.45456  1.0000
  H   H172      1.0  0.31139  0.65823  0.23335  1.0000
  H   H173      1.0  0.38753  0.75189  0.42926  1.0000
  H   H174      1.0  0.12318  0.51162  0.34080  1.0000
  C   C111      1.0  0.37130  0.70614  0.45115  1.0000
  H   H175      1.0  0.44580  0.54375  0.32559  1.0000
  S   S45       1.0  0.23096  0.57392  0.44099  1.0000
  C   C112      1.0  0.41160  0.73409  0.37472  1.0000
  H   H176      1.0  0.42762  0.63263  0.43096  1.0000
  Fe  Fe25      1.0  0.40106  0.65348  0.32179  1.0000
  C   C113      1.0  0.38942  0.58912  0.40368  1.0000
  H   H177      1.0  0.36609  0.57496  0.41412  1.0000
  S   S46       1.0  0.38228  0.68410  0.34690  1.0000
  C   C114      1.0  0.40427  0.64021  0.42537  1.0000
  H   H178      1.0  0.49712  0.69880  0.35794  1.0000
  H   H179      1.0  0.40994  0.66958  0.42582  1.0000
  H   H180      1.0  0.34034  0.62380  0.40899  1.0000
  S   S47       1.0  0.37074  0.63505  0.29304  1.0000
  H   H181      1.0  0.44602  0.72909  0.32498  1.0000
  C   C115      1.0  0.41464  0.72142  0.35444  1.0000
  H   H182      1.0  0.38827  0.72286  0.38487  1.0000
  H   H183      1.0  0.41837  0.63859  0.37182  1.0000
  S   S48       1.0  0.40510  0.59950  0.33191  1.0000
  C   C116      1.0  0.23750  0.54254  0.33318  1.0000
  Fe  Fe26      1.0  0.38010  0.58260  0.30127  1.0000
  N   N11       1.0  0.39539  0.62793  0.40380  1.0000
  C   C117      1.0  0.31987  0.51696  0.36830  1.0000
  H   H184      1.0  0.44901  0.63798  0.39211  1.0000
  Fe  Fe27      1.0  0.24759  0.53638  0.41954  1.0000
  H   H185      1.0  0.35563  0.62825  0.38141  1.0000
  C   C118      1.0  0.36796  0.72693  0.43322  1.0000
  H   H186      1.0  0.41228  0.58097  0.40961  1.0000
  H   H187      1.0  0.36633  0.66572  0.39773  1.0000
  H   H188      1.0  0.38394  0.56230  0.22549  1.0000
  C   C119      1.0  0.45147  0.51181  0.35326  1.0000
  C   C120      1.0  0.36303  0.63674  0.39769  1.0000
  C   C121      1.0  0.34570  0.67390  0.45623  1.0000
  C   C122      1.0  0.42479  0.64563  0.38847  1.0000
  H   H189      1.0  0.39916  0.51188  0.44497  1.0000
  C   C123      1.0  0.31917  0.53121  0.24358  1.0000
  H   H190      1.0  0.05105  0.50781  0.44724  1.0000
  Fe  Fe28      1.0  0.49906  0.79906  0.41496  1.0000
  C   C124      1.0  0.37706  0.52231  0.44722  1.0000
  C   C125      1.0  0.33690  0.66067  0.22566  1.0000
  C   C126      1.0  0.11141  0.52486  0.38164  1.0000
  H   H191      1.0  0.29864  0.58423  0.22404  1.0000
  H   H192      1.0  0.31316  0.52284  0.38488  1.0000
  N   N12       1.0  0.32810  0.54588  0.22139  1.0000
  H   H193      1.0  0.11377  0.52069  0.39906  1.0000
  S   S49       1.0  0.19497  0.51429  0.40632  1.0000
  H   H194      1.0  0.13787  0.53997  0.37483  1.0000
  H   H195      1.0  0.47246  0.64680  0.46689  1.0000
  S   S50       1.0  0.40758  0.71920  0.46718  1.0000
  S   S51       1.0  0.42139  0.57690  0.46669  1.0000
  H   H196      1.0  0.35350  0.59102  0.46870  1.0000
  H   H197      1.0  0.46635  0.69054  0.46733  1.0000
  H   H198      1.0  0.29369  0.51013  0.24490  1.0000
  C   C127      1.0  0.49310  0.56793  0.34150  1.0000
  C   C128      1.0  0.26640  0.51218  0.30857  1.0000
  H   H199      1.0  0.07897  0.51456  0.34478  1.0000
  C   C129      1.0  0.23569  0.51535  0.31916  1.0000
  H   H200      1.0  0.29488  0.50975  0.35981  1.0000
  H   H201      1.0  0.34817  0.65774  0.47012  1.0000
  N   N13       1.0  0.46882  0.66621  0.49818  1.0000
  H   H202      1.0  0.42074  0.67738  0.50844  1.0000
  H   H203      1.0  0.43032  0.61717  0.50794  1.0000
  H   H204      1.0  0.45664  0.71579  0.50188  1.0000
  H   H205      1.0  0.47275  0.61264  0.50040  1.0000
  H   H206      1.0  0.45589  0.69038  0.52642  1.0000
  C   C130      1.0  0.44976  0.68836  0.50930  1.0000
  H   H207      1.0  0.46582  0.63066  0.52560  1.0000
  H   H208      1.0  0.43028  0.65244  0.47451  1.0000
  C   C131      1.0  0.45916  0.66390  0.47570  1.0000
  C   C132      1.0  0.45908  0.63016  0.50857  1.0000
  S   S52       1.0  0.49633  0.78656  0.47640  1.0000
  C   C133      1.0  0.33645  0.56013  0.95712  1.0000
  H   H209      1.0  0.29237  0.61918  0.94643  1.0000
  H   H210      1.0  0.31310  0.56935  0.96146  1.0000
  H   H211      1.0  0.46458  0.90681  0.94822  1.0000
  S   S53       1.0  0.43783  0.83070  0.95165  1.0000
  H   H212      1.0  0.28987  0.54941  0.92650  1.0000
  C   C134      1.0  0.47588  0.85974  0.96111  1.0000
  H   H213      1.0  0.37968  0.53803  0.93034  1.0000
  C   C135      1.0  0.48263  0.89651  0.95728  1.0000
  S   S54       1.0  0.23526  0.55832  0.95724  1.0000
  H   H214      1.0  0.41403  0.57487  0.96668  1.0000
  H   H215      1.0  0.30575  0.51713  0.91286  1.0000
  H   H216      1.0  0.33363  0.56171  0.91445  1.0000
  H   H217      1.0  0.35648  0.58304  0.94887  1.0000
  S   S55       1.0  0.37853  0.72950  0.95994  1.0000
  N   N14       1.0  0.32692  0.52932  0.94357  1.0000
  C   C136      1.0  0.31353  0.53983  0.92342  1.0000
  C   C137      1.0  0.35828  0.51691  0.93894  1.0000
  S   S56       1.0  0.41834  0.64907  0.96328  1.0000
  C   C138      1.0  0.27996  0.62375  0.96129  1.0000
  H   H218      1.0  0.31640  0.67489  0.96415  1.0000
  C   C139      1.0  0.25031  0.59820  0.97022  1.0000
  H   H219      1.0  0.36903  0.50894  0.95388  1.0000
  H   H220      1.0  0.27493  0.50849  0.95818  1.0000
  S   S57       1.0  0.59154  0.04092  0.99428  1.0000
  H   H221      1.0  0.96538  0.15534  0.98802  1.0000
  H   H222      1.0  0.60076  0.17688  0.00741  1.0000
  H   H223      1.0  0.87483  0.14636  0.01052  1.0000
  C   C140      1.0  0.72990  0.11243  0.98609  1.0000
  H   H224      1.0  0.95399  0.35740  0.97397  1.0000
  C   C141      1.0  0.58642  0.17321  0.99299  1.0000
  C   C142      1.0  0.98228  0.36318  0.97339  1.0000
  C   C143      1.0  0.90065  0.12704  0.97419  1.0000
  C   C144      1.0  0.78165  0.32909  0.97327  1.0000
  H   H225      1.0  0.69578  0.22107  0.01966  1.0000
  C   C145      1.0  0.58056  0.20245  0.98186  1.0000
  C   C146      1.0  0.51764  0.36715  0.01058  1.0000
  H   H226      1.0  0.62837  0.45798  0.97475  1.0000
  H   H227      1.0  0.69129  0.16161  0.97465  1.0000
  C   C147      1.0  0.78542  0.15875  0.98149  1.0000
  C   C148      1.0  0.53866  0.36924  0.99181  1.0000
  S   S58       1.0  0.80645  0.30874  0.98920  1.0000
  H   H228      1.0  0.75012  0.15070  0.00942  1.0000
  H   H229      1.0  0.80420  0.18143  0.98748  1.0000
  C   C149      1.0  0.68523  0.22983  0.00489  1.0000
  H   H230      1.0  0.70622  0.50046  0.97547  1.0000
  H   H231      1.0  0.95370  0.18602  0.00535  1.0000
  S   S59       1.0  0.60001  0.24539  0.98998  1.0000
  S   S60       1.0  0.69064  0.09266  0.00124  1.0000
  H   H232      1.0  0.73604  0.31375  0.99489  1.0000
  H   H233      1.0  0.71529  0.44133  0.98361  1.0000
  H   H234      1.0  0.69058  0.16423  0.00316  1.0000
  N   N15       1.0  0.69636  0.21388  0.98586  1.0000
  H   H235      1.0  0.50896  0.45091  0.00867  1.0000
  C   C150      1.0  0.75478  0.14143  0.99388  1.0000
  C   C151      1.0  0.99817  0.33568  0.97165  1.0000
  H   H236      1.0  0.65308  0.16634  0.98891  1.0000
  H   H237      1.0  0.54656  0.34628  0.98703  1.0000
  C   C152      1.0  0.73517  0.22343  0.98381  1.0000
  N   N16       1.0  0.91357  0.16129  0.98434  1.0000
  H   H238      1.0  0.65611  0.22229  0.00727  1.0000
  S   S61       1.0  0.87074  0.25108  0.97961  1.0000
  H   H239      1.0  0.86209  0.16878  0.98818  1.0000
  H   H240      1.0  0.74640  0.21482  0.99836  1.0000
  H   H241      1.0  0.89350  0.19344  0.00571  1.0000
  C   C153      1.0  0.88479  0.16776  0.99783  1.0000
  C   C154      1.0  0.51707  0.42810  0.00398  1.0000
  H   H242      1.0  0.50923  0.34252  0.02019  1.0000
  H   H243      1.0  0.89131  0.10459  0.98630  1.0000
  C   C155      1.0  0.53810  0.43025  0.98526  1.0000
  H   H244      1.0  0.93511  0.13904  0.01062  1.0000
  C   C156      1.0  0.50574  0.39616  0.01622  1.0000
  C   C157      1.0  0.74672  0.32627  0.97954  1.0000
  C   C158      1.0  0.94324  0.16031  0.99769  1.0000
  H   H245      1.0  0.54565  0.45460  0.97538  1.0000
  H   H246      1.0  0.57994  0.11678  0.99352  1.0000
  H   H247      1.0  0.65849  0.45339  0.99472  1.0000
  C   C159      1.0  0.68225  0.17490  0.98820  1.0000
  H   H248      1.0  0.93471  0.21656  0.97467  1.0000
  H   H249      1.0  0.99069  0.41957  0.97593  1.0000
  H   H250      1.0  0.63491  0.41565  0.98089  1.0000
  C   C160      1.0  0.54789  0.40048  0.97884  1.0000
  C   C161      1.0  0.57445  0.13916  0.98523  1.0000
  Fe  Fe29      1.0  0.64791  0.06022  0.98180  1.0000
  C   C162      1.0  0.64873  0.44449  0.97892  1.0000
  H   H251      1.0  0.69431  0.25927  0.00343  1.0000
  H   H252      1.0  0.74667  0.25256  0.98142  1.0000
  H   H253      1.0  0.59499  0.42579  0.43940  1.0000
  H   H254      1.0  0.54801  0.45302  0.45053  1.0000
  Fe  Fe30      1.0  0.90470  0.31911  0.44204  1.0000
  S   S62       1.0  0.65161  0.41168  0.46188  1.0000
  C   C163      1.0  0.59468  0.43618  0.45511  1.0000
  H   H255      1.0  0.63777  0.23258  0.46309  1.0000
  C   C164      1.0  0.81982  0.17217  0.45971  1.0000
  H   H256      1.0  0.80996  0.39674  0.44752  1.0000
  Fe  Fe31      1.0  0.97878  0.36860  0.44464  1.0000
  C   C165      1.0  0.56823  0.45173  0.46135  1.0000
  S   S63       1.0  0.95304  0.31271  0.45721  1.0000
  H   H257      1.0  0.89454  0.24119  0.45425  1.0000
  H   H258      1.0  0.76091  0.30249  0.43824  1.0000
  H   H259      1.0  0.75126  0.35483  0.41962  1.0000
  H   H260      1.0  0.77184  0.36091  0.45589  1.0000
  Fe  Fe32      1.0  0.91489  0.39333  0.45644  1.0000
  C   C166      1.0  0.86785  0.22579  0.45198  1.0000
  C   C167      1.0  0.73619  0.23970  0.47044  1.0000
  H   H261      1.0  0.80425  0.30176  0.44490  1.0000
  H   H262      1.0  0.81468  0.35784  0.46161  1.0000
  S   S64       1.0  0.89489  0.44117  0.45306  1.0000
  N   N17       1.0  0.80150  0.35034  0.42892  1.0000
  S   S65       1.0  0.70964  0.09959  0.44661  1.0000
  C   C168      1.0  0.81273  0.21839  0.43492  1.0000
  C   C169      1.0  0.78905  0.31134  0.43257  1.0000
  S   S66       1.0  0.86368  0.28050  0.42453  1.0000
  Fe  Fe33      1.0  0.67445  0.12308  0.46661  1.0000
  C   C170      1.0  0.83832  0.36067  0.42033  1.0000
  H   H263      1.0  0.85544  0.35165  0.43147  1.0000
  C   C171      1.0  0.79941  0.36732  0.44933  1.0000
  H   H264      1.0  0.79662  0.22819  0.42406  1.0000
  S   S67       1.0  0.93235  0.37253  0.42646  1.0000
  C   C172      1.0  0.77924  0.36209  0.41353  1.0000
  H   H265      1.0  0.78803  0.39141  0.41047  1.0000
  H   H266      1.0  0.84109  0.34835  0.40492  1.0000
  C   C173      1.0  0.79901  0.18524  0.44587  1.0000
  H   H267      1.0  0.79204  0.29744  0.41779  1.0000
  H   H268      1.0  0.77255  0.16954  0.44334  1.0000
  H   H269      1.0  0.78016  0.34959  0.39798  1.0000
  H   H270      1.0  0.84901  0.39000  0.41789  1.0000
  C   C174      1.0  0.84708  0.23882  0.43808  1.0000
  H   H271      1.0  0.72447  0.18735  0.45845  1.0000
  C   C175      1.0  0.85436  0.19233  0.46258  1.0000
  H   H272      1.0  0.87676  0.50281  0.46661  1.0000
  Fe  Fe34      1.0  0.68057  0.04847  0.46461  1.0000
  S   S68       1.0  0.64951  0.16489  0.45553  1.0000
  C   C176      1.0  0.71406  0.20899  0.46264  1.0000
  C   C177      1.0  0.67837  0.20595  0.46061  1.0000
  H   H273      1.0  0.59824  0.00855  0.46115  1.0000
  C   C178      1.0  0.66530  0.23471  0.46494  1.0000
  C   C179      1.0  0.62009  0.43312  0.46939  1.0000
  H   H274      1.0  0.59284  0.47237  0.51159  1.0000
  S   S69       1.0  0.63163  0.33809  0.55835  1.0000
  C   C180      1.0  0.70742  0.24238  0.53238  1.0000
  H   H275      1.0  0.78921  0.44914  0.61514  1.0000
  C   C181      1.0  0.67360  0.26493  0.68026  1.0000
  C   C182      1.0  0.64247  0.30909  0.57706  1.0000
  H   H276      1.0  0.71948  0.22767  0.68338  1.0000
  H   H277      1.0  0.63945  0.44514  0.50051  1.0000
  H   H278      1.0  0.58849  0.28375  0.58724  1.0000
  C   C183      1.0  0.61567  0.28443  0.58920  1.0000
  C   C184      1.0  0.65473  0.21814  0.55482  1.0000
  H   H279      1.0  0.69387  0.24318  0.71765  1.0000
  C   C185      1.0  0.65904  0.26089  0.60613  1.0000
  C   C186      1.0  0.62395  0.26020  0.60366  1.0000
  C   C187      1.0  0.67753  0.31001  0.57975  1.0000
  C   C188      1.0  0.57856  0.37838  0.52844  1.0000
  H   H280      1.0  0.82077  0.47250  0.59446  1.0000
  H   H281      1.0  0.74134  0.43995  0.58933  1.0000
  C   C189      1.0  0.83970  0.48544  0.49355  1.0000
  H   H282      1.0  0.88044  0.25589  0.51892  1.0000
  C   C190      1.0  0.69236  0.21157  0.68051  1.0000
  H   H283      1.0  0.60316  0.24074  0.61276  1.0000
  N   N18       1.0  0.67783  0.21044  0.53773  1.0000
  C   C191      1.0  0.66737  0.22824  0.71275  1.0000
  Fe  Fe35      1.0  0.72290  0.34378  0.49932  1.0000
  S   S70       1.0  0.74979  0.30371  0.48830  1.0000
  S   S71       1.0  0.68559  0.41777  0.52135  1.0000
  H   H284      1.0  0.57515  0.37263  0.54602  1.0000
  H   H285      1.0  0.72316  0.25110  0.54649  1.0000
  H   H286      1.0  0.60986  0.21910  0.68985  1.0000
  H   H287      1.0  0.67328  0.10626  0.58345  1.0000
  H   H288      1.0  0.83378  0.40731  0.57494  1.0000
  H   H289      1.0  0.51220  0.34174  0.53984  1.0000
  Fe  Fe36      1.0  0.67458  0.36106  0.53322  1.0000
  H   H290      1.0  0.69800  0.26510  0.52650  1.0000
  H   H291      1.0  0.66898  0.22455  0.56972  1.0000
  H   H292      1.0  0.70944  0.17449  0.53293  1.0000
  C   C192      1.0  0.69156  0.18096  0.54522  1.0000
  S   S72       1.0  0.66922  0.22927  0.62319  1.0000
  S   S73       1.0  0.53483  0.48394  0.49006  1.0000
  S   S74       1.0  0.66516  0.33890  0.50104  1.0000
  S   S75       1.0  0.66658  0.07689  0.54195  1.0000
  H   H293      1.0  0.64487  0.24117  0.55015  1.0000
  S   S76       1.0  0.64231  0.07135  0.48220  1.0000
  H   H294      1.0  0.72532  0.23745  0.51951  1.0000
  C   C193      1.0  0.59314  0.46199  0.49588  1.0000
  H   H295      1.0  0.63157  0.19494  0.55888  1.0000
  H   H296      1.0  0.62872  0.20705  0.66576  1.0000
  C   C194      1.0  0.68585  0.28606  0.59432  1.0000
  S   S77       1.0  0.73762  0.39867  0.48416  1.0000
  H   H297      1.0  0.59065  0.36033  0.48877  1.0000
  C   C195      1.0  0.56260  0.31565  0.52275  1.0000
  Fe  Fe37      1.0  0.74404  0.10890  0.47463  1.0000
  H   H298      1.0  0.51224  0.37278  0.51803  1.0000
  H   H299      1.0  0.79945  0.40027  0.55650  1.0000
  Fe  Fe38      1.0  0.74134  0.41584  0.51771  1.0000
  S   S78       1.0  0.96394  0.39458  0.47324  1.0000
  C   C196      1.0  0.76112  0.43744  0.57690  1.0000
  H   H300      1.0  0.63516  0.17604  0.52190  1.0000
  H   H301      1.0  0.67441  0.19395  0.50546  1.0000
  C   C197      1.0  0.72864  0.13151  0.58598  1.0000
  S   S79       1.0  0.71850  0.05563  0.49089  1.0000
  Fe  Fe39      1.0  0.93533  0.33917  0.48469  1.0000
  S   S80       1.0  0.94181  0.31955  0.51768  1.0000
  Fe  Fe40      1.0  0.79359  0.25112  0.64502  1.0000
  S   S81       1.0  0.82823  0.25284  0.61574  1.0000
  H   H302      1.0  0.69071  0.20910  0.66299  1.0000
  C   C198      1.0  0.77035  0.38686  0.59633  1.0000
  S   S82       1.0  0.75565  0.23714  0.58915  1.0000
  Fe  Fe41      1.0  0.78571  0.20562  0.60679  1.0000
  S   S83       1.0  0.79922  0.16295  0.58865  1.0000
  Fe  Fe42      1.0  0.79559  0.28427  0.60036  1.0000
  S   S84       1.0  0.81422  0.33106  0.57693  1.0000
  H   H303      1.0  0.66985  0.15630  0.54904  1.0000
  C   C199      1.0  0.85023  0.41854  0.48853  1.0000
  S   S85       1.0  0.73128  0.36116  0.53271  1.0000
  C   C200      1.0  0.78913  0.23664  0.69738  1.0000
  C   C201      1.0  0.77388  0.20086  0.69390  1.0000
  C   C202      1.0  0.70349  0.09889  0.55560  1.0000
  S   S86       1.0  0.75363  0.20051  0.63757  1.0000
  H   H304      1.0  0.78040  0.18975  0.67933  1.0000
  C   C203      1.0  0.90903  0.32622  0.53510  1.0000
  C   C204      1.0  0.88949  0.34954  0.52931  1.0000
  C   C205      1.0  0.86109  0.35200  0.54263  1.0000
  C   C206      1.0  0.85205  0.33084  0.56158  1.0000
  C   C207      1.0  0.87247  0.30861  0.56763  1.0000
  C   C208      1.0  0.90100  0.30639  0.55448  1.0000
  H   H305      1.0  0.89601  0.36548  0.51451  1.0000
  H   H306      1.0  0.84555  0.36945  0.53788  1.0000
  H   H307      1.0  0.86632  0.29292  0.58237  1.0000
  H   H308      1.0  0.91623  0.28853  0.55908  1.0000
  C   C209      1.0  0.80720  0.44573  0.60186  1.0000
  C   C210      1.0  0.82059  0.45646  0.50669  1.0000
  H   H309      1.0  0.71304  0.28701  0.59627  1.0000
  C   C211      1.0  0.76655  0.12468  0.55625  1.0000
  C   C212      1.0  0.76233  0.13780  0.57627  1.0000
  H   H310      1.0  0.75001  0.38826  0.60870  1.0000
  S   S87       1.0  0.81517  0.26464  0.67718  1.0000
  C   C213      1.0  0.56736  0.46438  0.48181  1.0000
  H   H311      1.0  0.79257  0.12937  0.54872  1.0000
  C   C214      1.0  0.74952  0.17957  0.70906  1.0000
  H   H312      1.0  0.82612  0.44436  0.56018  1.0000
  N   N19       1.0  0.82482  0.23031  0.52050  1.0000
  C   C215      1.0  0.79963  0.20212  0.50968  1.0000
  C   C216      1.0  0.81430  0.26355  0.51865  1.0000
  C   C217      1.0  0.86040  0.23627  0.51039  1.0000
  C   C218      1.0  0.82508  0.21931  0.54325  1.0000
  H   H313      1.0  0.80686  0.17664  0.51074  1.0000
  H   H314      1.0  0.79894  0.20935  0.49243  1.0000
  H   H315      1.0  0.77253  0.19683  0.51685  1.0000
  H   H316      1.0  0.83364  0.28563  0.52584  1.0000
  H   H317      1.0  0.81252  0.27194  0.50167  1.0000
  H   H318      1.0  0.78840  0.26083  0.52698  1.0000
  H   H319      1.0  0.86846  0.21127  0.51030  1.0000
  Fe  Fe43      1.0  0.68234  0.08247  0.50706  1.0000
  H   H320      1.0  0.86171  0.24676  0.49358  1.0000
  H   H321      1.0  0.79858  0.21392  0.55138  1.0000
  H   H322      1.0  0.84340  0.24004  0.55208  1.0000
  H   H323      1.0  0.83351  0.19460  0.54521  1.0000
  H   H324      1.0  0.70652  0.18736  0.55987  1.0000
  C   C219      1.0  0.65766  0.20016  0.51855  1.0000
  C   C220      1.0  0.82587  0.42301  0.50420  1.0000
  C   C221      1.0  0.73712  0.10580  0.54576  1.0000
  H   H325      1.0  0.75730  0.36774  0.58449  1.0000
  Fe  Fe44      1.0  0.68065  0.39569  0.48885  1.0000
  H   H326      1.0  0.78957  0.37523  0.60424  1.0000
  H   H327      1.0  0.72533  0.14161  0.60148  1.0000
  C   C222      1.0  0.63057  0.20754  0.68344  1.0000
  S   S88       1.0  0.71102  0.13623  0.49329  1.0000
  H   H328      1.0  0.85420  0.39274  0.48676  1.0000
  Fe  Fe45      1.0  0.72739  0.23676  0.62066  1.0000
  C   C223      1.0  0.56257  0.35749  0.49355  1.0000
  S   S89       1.0  0.76448  0.28702  0.63047  1.0000
  H   H329      1.0  0.64708  0.22182  0.51229  1.0000
  H   H330      1.0  0.68875  0.18444  0.68783  1.0000
  H   H331      1.0  0.74681  0.42073  0.56437  1.0000
  H   H332      1.0  0.73700  0.15210  0.70606  1.0000
  C   C224      1.0  0.69927  0.11139  0.57584  1.0000
  S   S90       1.0  0.78719  0.46096  0.52448  1.0000
  N   N20       1.0  0.66593  0.22809  0.68926  1.0000
  C   C225      1.0  0.81291  0.41840  0.56868  1.0000
  H   H333      1.0  0.74064  0.09622  0.53015  1.0000
  H   H334      1.0  0.77337  0.46432  0.56924  1.0000
  H   H335      1.0  0.81087  0.40043  0.51418  1.0000
  H   H336      1.0  0.54564  0.29330  0.51435  1.0000
  N   N21       1.0  0.55551  0.34971  0.51678  1.0000
  N   N22       1.0  0.78788  0.42209  0.58594  1.0000
  H   H337      1.0  0.69832  0.32945  0.57086  1.0000
  H   H338      1.0  0.55679  0.38266  0.48845  1.0000
  H   H339      1.0  0.82766  0.43484  0.60892  1.0000
  C   C226      1.0  0.86298  0.48064  0.47731  1.0000
  H   H340      1.0  0.62427  0.17950  0.68981  1.0000
  C   C227      1.0  0.51835  0.34741  0.52239  1.0000
  H   H341      1.0  0.67294  0.26568  0.66252  1.0000
  H   H342      1.0  0.65413  0.27829  0.68643  1.0000
  H   H343      1.0  0.55810  0.30923  0.54025  1.0000
  H   H344      1.0  0.59046  0.31667  0.51872  1.0000
  C   C228      1.0  0.61950  0.44644  0.48966  1.0000
  H   H345      1.0  0.66547  0.01226  0.52066  1.0000
  H   H346      1.0  0.60679  0.38179  0.52396  1.0000
  H   H347      1.0  0.70024  0.28103  0.68427  1.0000
  H   H348      1.0  0.54621  0.33609  0.48419  1.0000
  C   C229      1.0  0.72267  0.26759  0.47606  1.0000
  H   H349      1.0  0.57298  0.40422  0.52504  1.0000
  H   H350      1.0  0.60750  0.02526  0.52539  1.0000
  H   H351      1.0  0.67724  0.28745  0.47615  1.0000
  H   H352      1.0  0.87065  0.18211  0.47311  1.0000
  C   C230      1.0  0.68752  0.26557  0.47265  1.0000
  H   H353      1.0  0.76363  0.24155  0.47236  1.0000
  H   H354      1.0  0.66181  0.20080  0.72006  1.0000
  C   C231      1.0  0.78151  0.25066  0.71657  1.0000
  H   H355      1.0  0.79330  0.27841  0.71923  1.0000
  S   S91       1.0  0.80278  0.13167  0.47447  1.0000
  C   C232      1.0  0.86810  0.44715  0.47468  1.0000
  H   H356      1.0  0.64789  0.24060  0.72000  1.0000
  H   H357      1.0  0.50016  0.32604  0.51388  1.0000
  S   S92       1.0  0.88434  0.34020  0.47098  1.0000
  C   C233      1.0  0.66064  0.31075  0.85265  1.0000
  C   C234      1.0  0.54706  0.16299  0.95665  1.0000
  S   S93       1.0  0.57092  0.26658  0.88849  1.0000
  S   S94       1.0  0.64836  0.00835  0.96841  1.0000
  N   N23       1.0  0.60231  0.16483  0.89790  1.0000
  H   H358      1.0  0.99747  0.37040  0.87508  1.0000
  C   C235      1.0  0.62875  0.25800  0.83566  1.0000
  H   H359      1.0  0.64016  0.14033  0.88497  1.0000
  Fe  Fe46      1.0  0.58655  0.35345  0.94789  1.0000
  C   C236      1.0  0.72536  0.33863  0.96569  1.0000
  S   S95       1.0  0.61557  0.35521  0.91644  1.0000
  Fe  Fe47      1.0  0.60223  0.28590  0.96352  1.0000
  H   H360      1.0  0.57623  0.07360  0.86852  1.0000
  H   H361      1.0  0.62673  0.23983  0.82296  1.0000
  C   C237      1.0  0.56086  0.19732  0.96366  1.0000
  Fe  Fe48      1.0  0.65621  0.34125  0.93590  1.0000
  C   C238      1.0  0.60115  0.25278  0.85117  1.0000
  H   H362      1.0  0.65353  0.18768  0.88264  1.0000
  C   C239      1.0  0.63389  0.30441  0.86879  1.0000
  C   C240      1.0  0.68283  0.22723  0.96659  1.0000
  S   S96       1.0  0.71280  0.36977  0.92820  1.0000
  S   S97       1.0  0.61905  0.12245  0.83679  1.0000
  S   S98       1.0  0.63388  0.28274  0.93375  1.0000
  H   H363      1.0  0.63627  0.32221  0.88161  1.0000
  S   S99       1.0  0.55639  0.29590  0.94694  1.0000
  N   N24       1.0  0.74664  0.29131  0.88537  1.0000
  S   S100      1.0  0.54092  0.09193  0.95658  1.0000
  C   C241      1.0  0.63905  0.16449  0.89326  1.0000
  H   H364      1.0  0.65342  0.16462  0.90814  1.0000
  H   H365      1.0  0.55586  0.13178  0.91478  1.0000
  H   H366      1.0  0.96890  0.33207  0.93002  1.0000
  C   C242      1.0  0.58403  0.16428  0.87777  1.0000
  H   H367      1.0  0.95292  0.37257  0.87859  1.0000
  Fe  Fe49      1.0  0.63173  0.03052  0.93853  1.0000
  H   H368      1.0  0.58488  0.10824  0.90424  1.0000
  H   H369      1.0  0.55580  0.21970  0.95515  1.0000
  C   C243      1.0  0.61152  0.05114  0.88585  1.0000
  S   S101      1.0  0.57409  0.00929  0.94661  1.0000
  Fe  Fe50      1.0  0.59015  0.29677  0.91721  1.0000
  H   H370      1.0  0.92982  0.38350  0.91404  1.0000
  C   C244      1.0  0.66316  0.43966  0.94166  1.0000
  H   H371      1.0  0.55799  0.16951  0.88033  1.0000
  C   C245      1.0  0.58407  0.13327  0.91165  1.0000
  H   H372      1.0  0.59628  0.13340  0.92731  1.0000
  S   S102      1.0  0.63607  0.08414  0.95099  1.0000
  H   H373      1.0  0.57922  0.13814  0.87050  1.0000
  H   H374      1.0  0.57776  0.23085  0.85026  1.0000
  C   C246      1.0  0.60400  0.27553  0.86801  1.0000
  H   H375      1.0  0.69104  0.21587  0.95198  1.0000
  C   C247      1.0  0.60301  0.07218  0.86952  1.0000
  C   C248      1.0  0.67203  0.06801  0.87199  1.0000
  H   H376      1.0  0.59975  0.18444  0.86570  1.0000
  C   C249      1.0  0.60203  0.19724  0.90901  1.0000
  N   N25       1.0  0.67762  0.45180  0.96227  1.0000
  H   H377      1.0  0.98883  0.41222  0.87960  1.0000
  C   C250      1.0  0.62928  0.09232  0.85497  1.0000
  C   C251      1.0  0.76746  0.11668  0.95409  1.0000
  H   H378      1.0  0.61459  0.19810  0.92460  1.0000
  C   C252      1.0  0.64599  0.04887  0.88698  1.0000
  H   H379      1.0  0.61598  0.22154  0.89913  1.0000
  C   C253      1.0  0.55467  0.13401  0.96707  1.0000
  H   H380      1.0  0.64970  0.41083  0.94277  1.0000
  C   C254      1.0  0.74047  0.19404  0.72772  1.0000
  H   H381      1.0  0.57469  0.19878  0.91238  1.0000
  N   N26       1.0  0.82765  0.18669  0.76741  1.0000
  H   H382      1.0  0.95776  0.38974  0.93627  1.0000
  H   H383      1.0  0.88082  0.19138  0.77576  1.0000
  H   H384      1.0  0.80155  0.31946  0.88214  1.0000
  S   S103      1.0  0.89128  0.32651  0.94983  1.0000
  S   S104      1.0  0.82188  0.26094  0.93948  1.0000
  Fe  Fe51      1.0  0.87195  0.29262  0.92240  1.0000
  S   S105      1.0  0.87139  0.31443  0.88888  1.0000
  S   S106      1.0  0.90167  0.25339  0.93016  1.0000
  Fe  Fe52      1.0  0.74604  0.19220  0.81906  1.0000
  S   S107      1.0  0.74571  0.23129  0.79229  1.0000
  S   S108      1.0  0.79651  0.18797  0.83240  1.0000
  H   H385      1.0  0.65359  0.22008  0.96758  1.0000
  H   H386      1.0  0.53106  0.15902  0.94290  1.0000
  S   S109      1.0  0.83154  0.16544  0.94673  1.0000
  Fe  Fe53      1.0  0.70638  0.18583  0.77857  1.0000
  S   S110      1.0  0.70691  0.16806  0.74505  1.0000
  Fe  Fe54      1.0  0.69894  0.23900  0.81063  1.0000
  S   S111      1.0  0.69388  0.29278  0.81769  1.0000
  S   S112      1.0  0.71054  0.14575  0.80392  1.0000
  S   S113      1.0  0.70248  0.20350  0.83876  1.0000
  S   S114      1.0  0.56926  0.40208  0.95381  1.0000
  H   H387      1.0  0.71684  0.49675  0.94771  1.0000
  H   H388      1.0  0.74975  0.24078  0.74597  1.0000
  C   C255      1.0  0.71450  0.29490  0.89670  1.0000
  C   C256      1.0  0.75701  0.22937  0.73172  1.0000
  H   H389      1.0  0.77335  0.34613  0.88954  1.0000
  C   C257      1.0  0.82908  0.22324  0.77305  1.0000
  H   H390      1.0  0.82297  0.34877  0.94889  1.0000
  C   C258      1.0  0.79584  0.34619  0.95368  1.0000
  H   H391      1.0  0.81006  0.23362  0.76404  1.0000
  C   C259      1.0  0.85132  0.27950  0.87280  1.0000
  C   C260      1.0  0.83881  0.28667  0.85301  1.0000
  C   C261      1.0  0.82099  0.25865  0.84074  1.0000
  C   C262      1.0  0.81683  0.22345  0.84791  1.0000
  C   C263      1.0  0.82986  0.21638  0.86749  1.0000
  C   C264      1.0  0.84645  0.24428  0.88007  1.0000
  H   H392      1.0  0.84243  0.31386  0.84730  1.0000
  H   H393      1.0  0.81112  0.26427  0.82556  1.0000
  H   H394      1.0  0.82666  0.18920  0.87311  1.0000
  H   H395      1.0  0.85562  0.23830  0.89535  1.0000
  S   S115      1.0  0.65936  0.19745  0.79427  1.0000
  C   C265      1.0  0.79204  0.14602  0.96171  1.0000
  C   C266      1.0  0.65842  0.28715  0.83630  1.0000
  H   H396      1.0  0.68329  0.33358  0.85308  1.0000
  S   S116      1.0  0.65677  0.02250  0.90725  1.0000
  H   H397      1.0  0.64327  0.45320  0.93666  1.0000
  Fe  Fe55      1.0  0.85299  0.22412  0.94961  1.0000
  H   H398      1.0  0.77248  0.10673  0.93880  1.0000
  H   H399      1.0  0.83483  0.15907  0.73939  1.0000
  H   H400      1.0  0.68428  0.10601  0.84518  1.0000
  H   H401      1.0  0.86216  0.20409  0.73940  1.0000
  H   H402      1.0  0.78283  0.31527  0.90876  1.0000
  H   H403      1.0  0.98693  0.32405  0.90476  1.0000
  H   H404      1.0  0.70983  0.32103  0.89254  1.0000
  H   H405      1.0  0.71980  0.27494  0.85690  1.0000
  C   C267      1.0  0.73952  0.35567  0.94608  1.0000
  C   C268      1.0  0.83566  0.18624  0.74424  1.0000
  H   H406      1.0  0.69876  0.06639  0.87293  1.0000
  H   H407      1.0  0.77161  0.17233  0.76486  1.0000
  S   S117      1.0  0.62904  0.34328  0.96746  1.0000
  H   H408      1.0  0.69073  0.27409  0.89241  1.0000
  H   H409      1.0  0.78575  0.16167  0.79041  1.0000
  H   H410      1.0  0.76650  0.29161  0.85293  1.0000
  Fe  Fe56      1.0  0.57971  0.06081  0.96225  1.0000
  N   N27       1.0  0.98113  0.37667  0.90737  1.0000
  H   H411      1.0  0.71702  0.07799  0.95994  1.0000
  H   H412      1.0  0.71653  0.29328  0.91432  1.0000
  C   C269      1.0  0.74325  0.29508  0.86213  1.0000
  H   H413      1.0  0.94223  0.32612  0.90726  1.0000
  H   H414      1.0  0.78625  0.37434  0.92544  1.0000
  C   C270      1.0  0.75143  0.25603  0.89082  1.0000
  H   H415      1.0  0.85295  0.14656  0.77590  1.0000
  H   H416      1.0  0.74043  0.32165  0.85723  1.0000
  H   H417      1.0  0.82262  0.22442  0.79039  1.0000
  H   H418      1.0  0.84815  0.17457  0.79709  1.0000
  H   H419      1.0  0.59133  0.03649  0.89744  1.0000
  H   H420      1.0  0.87809  0.12703  0.96408  1.0000
  H   H421      1.0  0.78952  0.13541  0.76821  1.0000
  C   C271      1.0  0.79211  0.16299  0.77294  1.0000
  C   C272      1.0  0.96928  0.33803  0.91255  1.0000
  H   H422      1.0  0.85567  0.24178  0.76938  1.0000
  C   C273      1.0  0.77503  0.36044  0.94038  1.0000
  H   H423      1.0  0.75410  0.25214  0.90826  1.0000
  C   C274      1.0  0.85362  0.17425  0.77953  1.0000
  C   C275      1.0  0.77739  0.31928  0.89175  1.0000
  C   C276      1.0  0.66382  0.09031  0.85624  1.0000
  H   H424      1.0  0.81626  0.19526  0.73475  1.0000
  Fe  Fe57      1.0  0.66672  0.16095  0.82089  1.0000
  H   H425      1.0  0.96560  0.42326  0.91511  1.0000
  H   H426      1.0  0.72898  0.23429  0.88589  1.0000
  H   H427      1.0  0.77559  0.25269  0.88260  1.0000
  S   S118      1.0  0.97281  0.29171  0.96850  1.0000
  H   H428      1.0  0.69249  0.25668  0.96461  1.0000
  C   C277      1.0  0.70358  0.43277  0.96821  1.0000
  C   C278      1.0  0.69499  0.49035  0.96020  1.0000
  C   C279      1.0  0.73610  0.10035  0.96606  1.0000
  H   H429      1.0  0.90402  0.19112  0.95700  1.0000
  Fe  Fe58      1.0  0.84379  0.29086  0.96781  1.0000
  C   C280      1.0  0.95752  0.39407  0.91866  1.0000
  H   H430      1.0  0.68414  0.44416  0.92871  1.0000
  H   H431      1.0  0.94774  0.18665  0.95737  1.0000
  H   H432      1.0  0.72540  0.43717  0.95578  1.0000
  C   C281      1.0  0.98009  0.38331  0.88411  1.0000
  Fe  Fe59      1.0  0.91691  0.28421  0.95928  1.0000
  C   C282      1.0  0.92556  0.19016  0.96764  1.0000
  H   H433      1.0  0.92150  0.12141  0.96368  1.0000
  H   H434      1.0  0.67608  0.50542  0.95569  1.0000
  H   H435      1.0  0.74458  0.21088  0.97004  1.0000
  H   H436      1.0  0.69138  0.40361  0.96992  1.0000
  H   H437      1.0  0.69807  0.33507  0.97030  1.0000
  S   S119      1.0  0.56834  0.93502  0.99176  1.0000
  H   H438      1.0  0.52628  0.86877  0.02680  1.0000
  H   H439      1.0  0.54653  0.85961  0.99026  1.0000
  C   C283      1.0  0.53441  0.90676  0.97828  1.0000
  C   C284      1.0  0.52864  0.87006  0.98116  1.0000
  H   H440      1.0  0.51730  0.91491  0.04998  1.0000
  Fe  Fe60      1.0  0.59065  0.99093  0.97771  1.0000
  H   H441      1.0  0.50405  0.83459  0.04649  1.0000
  H   H442      1.0  0.52633  0.93380  0.36906  1.0000
  S   S120      1.0  0.54454  0.82559  0.43385  1.0000
  H   H443      1.0  0.53059  0.73907  0.36197  1.0000
  S   S121      1.0  0.51772  0.56694  0.46548  1.0000
  C   C285      1.0  0.66356  0.53499  0.45618  1.0000
  H   H444      1.0  0.64885  0.53459  0.41475  1.0000
  H   H445      1.0  0.53952  0.67782  0.33636  1.0000
  S   S122      1.0  0.58084  0.61355  0.41723  1.0000
  C   C286      1.0  0.56981  0.95333  0.40117  1.0000
  H   H446      1.0  0.57402  0.71716  0.34046  1.0000
  H   H447      1.0  0.53913  0.58412  0.35985  1.0000
  S   S123      1.0  0.57846  0.75369  0.46155  1.0000
  C   C287      1.0  0.57900  0.71521  0.44868  1.0000
  H   H448      1.0  0.59791  0.57489  0.45260  1.0000
  H   H449      1.0  0.58815  0.89513  0.41321  1.0000
  H   H450      1.0  0.53457  0.89154  0.36564  1.0000
  C   C288      1.0  0.51876  0.71128  0.36840  1.0000
  S   S124      1.0  0.66521  0.99488  0.45022  1.0000
  H   H451      1.0  0.52809  0.89714  0.42427  1.0000
  H   H452      1.0  0.61185  0.55234  0.41761  1.0000
  H   H453      1.0  0.51683  0.65445  0.39421  1.0000
  H   H454      1.0  0.55100  0.96963  0.39974  1.0000
  C   C289      1.0  0.57361  0.70903  0.38303  1.0000
  H   H455      1.0  0.59370  0.69415  0.38440  1.0000
  H   H456      1.0  0.59440  0.96739  0.39172  1.0000
  H   H457      1.0  0.52373  0.63773  0.43410  1.0000
  C   C290      1.0  0.52242  0.89947  0.40718  1.0000
  H   H458      1.0  0.50777  0.64019  0.36751  1.0000
  C   C291      1.0  0.56034  0.69012  0.34738  1.0000
  N   N28       1.0  0.54533  0.69129  0.36918  1.0000
  H   H459      1.0  0.63640  0.67484  0.42630  1.0000
  H   H460      1.0  0.65023  0.60769  0.43050  1.0000
  H   H461      1.0  0.58727  0.73650  0.37676  1.0000
  H   H462      1.0  0.51964  0.53331  0.38606  1.0000
  H   H463      1.0  0.57658  0.95280  0.41821  1.0000
  C   C292      1.0  0.62782  0.53744  0.42622  1.0000
  C   C293      1.0  0.61159  0.67884  0.43171  1.0000
  S   S125      1.0  0.53445  0.51442  0.42901  1.0000
  C   C294      1.0  0.52865  0.65471  0.37786  1.0000
  C   C295      1.0  0.54808  0.65794  0.43607  1.0000
  H   H464      1.0  0.68748  0.59028  0.42771  1.0000
  C   C296      1.0  0.58013  0.65276  0.42908  1.0000
  H   H465      1.0  0.67677  0.60620  0.45287  1.0000
  C   C297      1.0  0.61106  0.70980  0.44192  1.0000
  C   C298      1.0  0.54753  0.68958  0.44541  1.0000
  H   H466      1.0  0.61047  0.51029  0.43055  1.0000
  Fe  Fe61      1.0  0.53420  0.57101  0.43079  1.0000
  N   N29       1.0  0.55473  0.91705  0.39402  1.0000
  C   C299      1.0  0.61713  0.93005  0.45523  1.0000
  C   C300      1.0  0.56049  0.95688  0.46522  1.0000
  C   C301      1.0  0.66536  0.59154  0.43883  1.0000
  H   H467      1.0  0.56997  0.86885  0.39135  1.0000
  H   H468      1.0  0.56971  0.93176  0.36093  1.0000
  C   C302      1.0  0.51454  0.56417  0.35805  1.0000
  N   N30       1.0  0.64265  0.55569  0.44533  1.0000
  H   H469      1.0  0.56306  0.71104  0.39948  1.0000
  C   C303      1.0  0.54598  0.91868  0.37140  1.0000
  H   H470      1.0  0.60526  0.90890  0.38648  1.0000
  Fe  Fe62      1.0  0.53322  0.77362  0.45227  1.0000
  C   C304      1.0  0.61377  0.55878  0.46008  1.0000
  H   H471      1.0  0.57951  0.67405  0.34720  1.0000
  H   H472      1.0  0.52290  0.69388  0.45057  1.0000
  H   H473      1.0  0.54819  0.63912  0.37893  1.0000
  C   C305      1.0  0.50350  0.53533  0.37288  1.0000
  C   C306      1.0  0.58066  0.89656  0.39635  1.0000
  H   H474      1.0  0.68547  0.53184  0.44551  1.0000
  H   H475      1.0  0.63543  0.72971  0.44441  1.0000
  H   H476      1.0  0.59547  0.53236  0.46481  1.0000
  Fe  Fe63      1.0  0.51351  0.50911  0.46301  1.0000
  H   H477      1.0  0.57993  0.87854  0.45988  1.0000
  S   S126      1.0  0.50411  0.60725  0.32553  1.0000
  C   C307      1.0  0.59429  0.98020  0.46098  1.0000
  H   H478      1.0  0.63908  0.91952  0.45152  1.0000
  C   C308      1.0  0.62267  0.96677  0.45596  1.0000
  C   C309      1.0  0.58351  0.90679  0.45968  1.0000
  H   H479      1.0  0.64705  0.50786  0.46127  1.0000
  C   C310      1.0  0.55500  0.92011  0.46441  1.0000
  H   H480      1.0  0.50685  0.71291  0.38453  1.0000
  S   S127      1.0  0.50524  0.80636  0.37938  1.0000
  Fe  Fe64      1.0  0.50404  0.83682  0.45621  1.0000
  H   H481      1.0  0.50248  0.91452  0.40619  1.0000
  H   H482      1.0  0.51004  0.87219  0.40205  1.0000
  S   S128      1.0  0.51239  0.89133  0.46908  1.0000
  H   H483      1.0  0.53849  0.96736  0.46884  1.0000
  H   H484      1.0  0.63271  0.99925  0.55506  1.0000
  H   H485      1.0  0.66706  0.96739  0.51847  1.0000
  H   H486      1.0  0.61256  0.91802  0.52385  1.0000
  H   H487      1.0  0.63560  0.95449  0.55439  1.0000
  H   H488      1.0  0.62385  0.57154  0.47495  1.0000
  H   H489      1.0  0.52232  0.66635  0.49072  1.0000
  H   H490      1.0  0.57069  0.92736  0.52699  1.0000
  C   C311      1.0  0.61944  0.97233  0.54958  1.0000
  H   H491      1.0  0.59542  0.93726  0.50195  1.0000
  C   C312      1.0  0.59776  0.93739  0.51954  1.0000
  C   C313      1.0  0.65081  0.98585  0.51527  1.0000
  H   H492      1.0  0.51540  0.70955  0.49116  1.0000
  H   H493      1.0  0.59344  0.96285  0.55843  1.0000
  H   H494      1.0  0.56790  0.98924  0.52859  1.0000
  H   H495      1.0  0.59142  0.99945  0.50313  1.0000
  N   N31       1.0  0.61563  0.97331  0.52625  1.0000
  H   H496      1.0  0.51542  0.68471  0.51575  1.0000
  H   H497      1.0  0.64908  0.98845  0.49764  1.0000
  C   C314      1.0  0.50714  0.68237  0.49902  1.0000
  H   H498      1.0  0.83533  0.51122  0.49526  1.0000
  C   C315      1.0  0.59465  0.99785  0.52061  1.0000
  H   H499      1.0  0.67514  0.54782  0.47073  1.0000
  H   H500      1.0  0.54958  0.87355  0.90509  1.0000
  C   C316      1.0  0.61435  0.91911  0.89763  1.0000
  H   H501      1.0  0.54445  0.88320  0.93249  1.0000
  H   H502      1.0  0.58499  0.97167  0.90554  1.0000
  H   H503      1.0  0.54746  0.94483  0.92126  1.0000
  H   H504      1.0  0.58830  0.93414  0.94763  1.0000
  H   H505      1.0  0.55379  0.93609  0.89378  1.0000
  N   N32       1.0  0.58830  0.91959  0.91502  1.0000
  H   H506      1.0  0.63263  0.94615  0.89400  1.0000
  C   C317      1.0  0.56771  0.94411  0.90862  1.0000
  H   H507      1.0  0.62153  0.91316  0.94037  1.0000
  H   H508      1.0  0.60137  0.91003  0.88265  1.0000
  H   H509      1.0  0.63069  0.90123  0.90200  1.0000
  C   C318      1.0  0.56430  0.88356  0.91937  1.0000
  H   H510      1.0  0.62619  0.95827  0.93160  1.0000
  C   C319      1.0  0.60688  0.93176  0.93449  1.0000
  H   H511      1.0  0.57883  0.86428  0.92431  1.0000
  H   H512      1.0  0.51565  0.94834  0.96392  1.0000
  C   C320      1.0  0.51171  0.92003  0.96599  1.0000
