data_image0
_chemical_formula_structural       HCH2NHCH3CHSCHC3HFeH3SHCH2S2C2HSFeSHSFeHCH3CH3CHCH2NC2H4CNH3C3HFeSC3SH4C3HCH4SH3FeSFeCH2CHCH3SC2HNFeHS2CHCH4C2HC2H3CNHCFeHSH2SH3CSFe2H2SCH2SH4CH3CHCH2C2NSHC2SH3C2FeHSHC2H3SHCNCHCH2FeH4CHCH3CHCSC2S2FeHSCHCHCSFeH2CHNHCSFeHSH2FeC2H5SC4HNFeSC2HCSFeC2H7CH2C2H2CHCH3SNHC2HSCSH3C2H2SFeHSFeC4HCS3H3C5H2NHC2H3CH6CH2S2H4C2NH4C2SCH2CH2FeSH3CH3CHNHCHCHSH2C2HCHSCFeH2SHCSCHCSFeHCHSCH5C3NCH2CH3Fe2SC3H4SCSC2H2FeSFe2S2HCSCSHCHCFeHCHCH3CFeCHNC2HSH2SNC2SH4CH2CH3SFeSC2HCHSH5CHCH3CNHCH6C3NC2H3SCH5CH4CH2FeSH2CHC2SHFeS3FeH3C2H2CSC4FeSFeSH2CHCHSH2C2H2SFeH2CH2C2SNC2HCH4CH4Fe2HCSC2Fe2SH3SH3FeSHCH2CH2NHCHSC2SHCHFeHSH2CHC3H2CHC2H2CH2CH5SHCHNSC3HCHC3H4CH2CH5C5HCHSHSFe2S2HCH2SHSHNCHCHC2H2CH2CH6CHCFe2SFe2SHSC3HCHCHCHNC2H4C2SH3CH2C2NH2CH8CH3CNH3CHSC2H3CH2CH3SC4HSFe2SFe2CSCSH3CH2C2HNCHC2HCH2SC3H2CH2SHSFeSH2C4SCHCHNH5CH2CHCHCNHC2H4SHCH3SHSHFeCSC3H2CSC2HFeC2HSHSFeSHFe2H2CHCH4CHCHC2NSC5SFeH9SFeHSFeHSHFeC3HCSCHNC3H3CHCH4SCH5CFeCH3SFeS2H3SCH2C2SH3NCHC2HCH3CFeCHSH2CH2CHCNCH6C2S2FeS2H2CH2CH3CHCH2C2HSFeS2H3CHCH3NC2HCSH2SFeSH4FeH2SFeSC4HNCHC2H8SCFeH2CH3SFeC2SCSFeHSCHCHCFeSCHC2HCH3CHCSCH5CH3NHCSFeSCH2C2SCH2S2NH2CH5C2FeCH6NC4H10SFeCH2CHC2HCHFeS2C2H2CH2CH2CSCH3CH2CH2CH6SCNCSC2HCFeCHNH6CH2C2H2NHC2HSCH4CH3CH3CHCHCHCFeS2HCHC4FeHSCSFeH2CNCH3C2H2S2H3CH2CH2CS2H5CH6CH2C2NSHC3FeCSHSCHFeCFeSHFeCH6CHC3SNCH2CHCHC2H3SFeHS2HC3SC3HCNHCH3C2H7FeS2FeHC2HCFeS2H3NHCHCHCH2SHCSC2H2FeHCSH3CFeH4C3H3CHCHNCFeSHC2H2CHSH3FeS2HC2NHC2H3SFeCHCHCH2CSH6C2NHCSCH2CHS2HCH
_chemical_formula_sum              "H768 C480 N48 S192 Fe96"
_cell_length_a       53.3054
_cell_length_b       53.284
_cell_length_c       43.4824
_cell_angle_alpha    89.9717
_cell_angle_beta     89.6748
_cell_angle_gamma    119.36

_space_group_name_H-M_alt    "P 1"
_space_group_IT_number       1

loop_
  _space_group_symop_operation_xyz
  'x, y, z'

loop_
  _atom_site_type_symbol
  _atom_site_label
  _atom_site_symmetry_multiplicity
  _atom_site_fract_x
  _atom_site_fract_y
  _atom_site_fract_z
  _atom_site_occupancy
  H   H1        1.0  0.13235  0.11945  0.07504  1.0000
  C   C1        1.0  0.13335  0.12372  0.04989  1.0000
  H   H2        1.0  0.11381  0.10589  0.03922  1.0000
  H   H3        1.0  0.13207  0.14385  0.04677  1.0000
  N   N1        1.0  0.15999  0.12655  0.03596  1.0000
  H   H4        1.0  0.18610  0.14626  0.07584  1.0000
  C   C2        1.0  0.18522  0.15042  0.05091  1.0000
  H   H5        1.0  0.16023  0.09403  0.06511  1.0000
  H   H6        1.0  0.20573  0.15392  0.04030  1.0000
  H   H7        1.0  0.18103  0.10117  0.03053  1.0000
  C   C3        1.0  0.16090  0.09948  0.04029  1.0000
  H   H8        1.0  0.14246  0.08102  0.02885  1.0000
  S   S1        1.0  0.01153  0.21545  0.04759  1.0000
  C   C4        1.0  0.03737  0.31714  0.10386  1.0000
  H   H9        1.0  0.04032  0.31537  0.07947  1.0000
  C   C5        1.0  0.01238  0.29628  0.15164  1.0000
  C   C6        1.0  0.01596  0.29355  0.11993  1.0000
  C   C7        1.0  0.02985  0.32235  0.16711  1.0000
  H   H10       1.0  0.02675  0.32418  0.19144  1.0000
  Fe  Fe1       1.0  0.99603  0.24769  0.05209  1.0000
  H   H11       1.0  0.99585  0.27817  0.16427  1.0000
  H   H12       1.0  0.10016  0.31132  0.18648  1.0000
  H   H13       1.0  0.14854  0.32393  0.16541  1.0000
  S   S2        1.0  0.15939  0.20331  0.02359  1.0000
  H   H14       1.0  0.10022  0.18515  0.03787  1.0000
  C   C8        1.0  0.10811  0.20408  0.02343  1.0000
  H   H15       1.0  0.06729  0.20373  0.02326  1.0000
  H   H16       1.0  0.18468  0.17096  0.04885  1.0000
  S   S3        1.0  0.23614  0.22681  0.05331  1.0000
  S   S4        1.0  0.07358  0.37946  0.16907  1.0000
  C   C9        1.0  0.05090  0.34610  0.15089  1.0000
  C   C10       1.0  0.05466  0.34329  0.11926  1.0000
  H   H17       1.0  0.07090  0.36153  0.10651  1.0000
  S   S5        1.0  0.05115  0.40639  0.24802  1.0000
  Fe  Fe2       1.0  0.07639  0.39045  0.22000  1.0000
  S   S6        1.0  0.11914  0.42930  0.23133  1.0000
  H   H18       1.0  0.05933  0.48204  0.23834  1.0000
  S   S7        1.0  0.07829  0.36265  0.25793  1.0000
  Fe  Fe3       1.0  0.09408  0.44304  0.26231  1.0000
  H   H19       1.0  0.14222  0.33163  0.22106  1.0000
  C   C11       1.0  0.10522  0.33371  0.18099  1.0000
  H   H20       1.0  0.09260  0.33955  0.19712  1.0000
  H   H21       1.0  0.09698  0.33357  0.15746  1.0000
  H   H22       1.0  0.14511  0.34636  0.13678  1.0000
  C   C12       1.0  0.15217  0.34602  0.16078  1.0000
  H   H23       1.0  0.17580  0.36106  0.16173  1.0000
  H   H24       1.0  0.17001  0.36840  0.21682  1.0000
  H   H25       1.0  0.13544  0.36026  0.23195  1.0000
  C   C13       1.0  0.14644  0.35357  0.21457  1.0000
  H   H26       1.0  0.13382  0.38469  0.15262  1.0000
  C   C14       1.0  0.14181  0.38356  0.17593  1.0000
  H   H27       1.0  0.13041  0.39045  0.19248  1.0000
  H   H28       1.0  0.16516  0.39962  0.17691  1.0000
  N   N2        1.0  0.13641  0.35420  0.18308  1.0000
  C   C15       1.0  0.19752  0.42544  0.24208  1.0000
  C   C16       1.0  0.22501  0.43548  0.22890  1.0000
  H   H29       1.0  0.18209  0.43003  0.23105  1.0000
  H   H30       1.0  0.23072  0.44794  0.20782  1.0000
  H   H31       1.0  0.19679  0.49054  0.25304  1.0000
  H   H32       1.0  0.16256  0.48509  0.26677  1.0000
  C   C17       1.0  0.11246  0.13497  0.50204  1.0000
  N   N3        1.0  0.14172  0.15919  0.49617  1.0000
  H   H33       1.0  0.10065  0.12607  0.48019  1.0000
  H   H34       1.0  0.14770  0.14052  0.45474  1.0000
  H   H35       1.0  0.11324  0.11711  0.51456  1.0000
  C   C18       1.0  0.15815  0.14906  0.47728  1.0000
  C   C19       1.0  0.23382  0.13860  0.51307  1.0000
  C   C20       1.0  0.23039  0.09100  0.51509  1.0000
  H   H36       1.0  0.16036  0.13173  0.48923  1.0000
  Fe  Fe4       1.0  0.01398  0.26384  0.47568  1.0000
  S   S8        1.0  0.03422  0.28283  0.42896  1.0000
  C   C21       1.0  0.03074  0.30544  0.40123  1.0000
  C   C22       1.0  0.00933  0.31339  0.40298  1.0000
  C   C23       1.0  0.04977  0.31488  0.37594  1.0000
  S   S9        1.0  0.00083  0.21685  0.48055  1.0000
  H   H37       1.0  0.06642  0.30889  0.37436  1.0000
  H   H38       1.0  0.99784  0.22121  0.41075  1.0000
  H   H39       1.0  0.99464  0.30643  0.42237  1.0000
  H   H40       1.0  0.23309  0.49321  0.28914  1.0000
  C   C24       1.0  0.14773  0.24966  0.51387  1.0000
  C   C25       1.0  0.13975  0.18246  0.47971  1.0000
  C   C26       1.0  0.10077  0.24705  0.50867  1.0000
  H   H41       1.0  0.13760  0.27249  0.47957  1.0000
  C   C27       1.0  0.12949  0.25781  0.49894  1.0000
  H   H42       1.0  0.08701  0.25345  0.49677  1.0000
  H   H43       1.0  0.12669  0.18994  0.49288  1.0000
  H   H44       1.0  0.12962  0.17530  0.45677  1.0000
  H   H45       1.0  0.16137  0.20165  0.47605  1.0000
  S   S10       1.0  0.18336  0.26337  0.49964  1.0000
  H   H46       1.0  0.24052  0.26564  0.31962  1.0000
  H   H47       1.0  0.23110  0.28543  0.27158  1.0000
  H   H48       1.0  0.18042  0.16673  0.47263  1.0000
  Fe  Fe5       1.0  0.22004  0.25403  0.50907  1.0000
  S   S11       1.0  0.22644  0.22695  0.47354  1.0000
  Fe  Fe6       1.0  0.23952  0.20913  0.51353  1.0000
  C   C28       1.0  0.04763  0.33214  0.35269  1.0000
  H   H49       1.0  0.00283  0.40649  0.35439  1.0000
  H   H50       1.0  0.06254  0.33926  0.33348  1.0000
  C   C29       1.0  0.00693  0.33038  0.37944  1.0000
  H   H51       1.0  0.04539  0.48653  0.35969  1.0000
  C   C30       1.0  0.04062  0.47778  0.33592  1.0000
  H   H52       1.0  0.01223  0.43686  0.37904  1.0000
  H   H53       1.0  0.00908  0.43853  0.29354  1.0000
  H   H54       1.0  0.05984  0.49158  0.32136  1.0000
  S   S12       1.0  0.10879  0.48987  0.27553  1.0000
  C   C31       1.0  0.02747  0.43677  0.30312  1.0000
  C   C32       1.0  0.00832  0.42959  0.35469  1.0000
  H   H55       1.0  0.06388  0.45257  0.37057  1.0000
  N   N4        1.0  0.03374  0.44731  0.33508  1.0000
  Fe  Fe7       1.0  0.05663  0.38151  0.28723  1.0000
  H   H56       1.0  0.04636  0.44939  0.28778  1.0000
  S   S13       1.0  0.02239  0.36099  0.32476  1.0000
  S   S14       1.0  0.09805  0.41878  0.30253  1.0000
  C   C33       1.0  0.02610  0.33987  0.35419  1.0000
  H   H57       1.0  0.07814  0.45805  0.33211  1.0000
  C   C34       1.0  0.05859  0.44496  0.34643  1.0000
  H   H58       1.0  0.05415  0.42221  0.34586  1.0000
  H   H59       1.0  0.02185  0.41372  0.30173  1.0000
  H   H60       1.0  0.02250  0.48045  0.32708  1.0000
  H   H61       1.0  0.15105  0.47784  0.32234  1.0000
  C   C35       1.0  0.18014  0.47999  0.27133  1.0000
  C   C36       1.0  0.19036  0.40977  0.26963  1.0000
  H   H62       1.0  0.22605  0.49003  0.32992  1.0000
  C   C37       1.0  0.21593  0.48274  0.30698  1.0000
  C   C38       1.0  0.23780  0.41340  0.27005  1.0000
  H   H63       1.0  0.17092  0.45637  0.26879  1.0000
  H   H64       1.0  0.20516  0.39169  0.30480  1.0000
  H   H65       1.0  0.20797  0.45914  0.30566  1.0000
  C   C39       1.0  0.16951  0.47382  0.32563  1.0000
  N   N5        1.0  0.19230  0.48934  0.30233  1.0000
  H   H66       1.0  0.16094  0.45009  0.32418  1.0000
  C   C40       1.0  0.21053  0.40374  0.28345  1.0000
  Fe  Fe8       1.0  0.11951  0.40227  0.27042  1.0000
  H   H67       1.0  0.17773  0.48050  0.34937  1.0000
  S   S15       1.0  0.15714  0.39846  0.28857  1.0000
  H   H68       1.0  0.09950  0.14191  0.51627  1.0000
  H   H69       1.0  0.08145  0.32802  0.93243  1.0000
  S   S16       1.0  0.22606  0.01164  0.54484  1.0000
  H   H70       1.0  0.21873  0.06858  0.52189  1.0000
  H   H71       1.0  0.15937  0.15358  0.53839  1.0000
  H   H72       1.0  0.19881  0.10096  0.53414  1.0000
  C   C41       1.0  0.21912  0.10943  0.52198  1.0000
  S   S17       1.0  0.21822  0.16063  0.52147  1.0000
  Fe  Fe9       1.0  0.99939  0.26749  0.54406  1.0000
  Fe  Fe10      1.0  0.02403  0.22877  0.52570  1.0000
  H   H73       1.0  0.02332  0.23381  0.63565  1.0000
  H   H74       1.0  0.01841  0.25519  0.60700  1.0000
  S   S18       1.0  0.00684  0.29884  0.58333  1.0000
  C   C42       1.0  0.03258  0.24635  0.61413  1.0000
  H   H75       1.0  0.06071  0.29563  0.58178  1.0000
  H   H76       1.0  0.04964  0.29913  0.63613  1.0000
  S   S19       1.0  0.03997  0.27581  0.51907  1.0000
  H   H77       1.0  0.14448  0.17742  0.54100  1.0000
  H   H78       1.0  0.03122  0.23093  0.59610  1.0000
  H   H79       1.0  0.07269  0.24422  0.64923  1.0000
  H   H80       1.0  0.08032  0.24173  0.60938  1.0000
  C   C43       1.0  0.08056  0.25674  0.62746  1.0000
  H   H81       1.0  0.05481  0.27791  0.66489  1.0000
  H   H82       1.0  0.10340  0.27357  0.63075  1.0000
  H   H83       1.0  0.08548  0.30727  0.64639  1.0000
  C   C44       1.0  0.06323  0.28934  0.64260  1.0000
  H   H84       1.0  0.09641  0.30330  0.59167  1.0000
  C   C45       1.0  0.07379  0.28567  0.58934  1.0000
  H   H85       1.0  0.09997  0.20513  0.56794  1.0000
  H   H86       1.0  0.15107  0.22498  0.55116  1.0000
  C   C46       1.0  0.13704  0.23083  0.53902  1.0000
  C   C47       1.0  0.10816  0.21981  0.54860  1.0000
  N   N6        1.0  0.06256  0.26953  0.61842  1.0000
  S   S20       1.0  0.05364  0.21342  0.54591  1.0000
  H   H87       1.0  0.07352  0.27136  0.57053  1.0000
  C   C48       1.0  0.08988  0.22783  0.53341  1.0000
  C   C49       1.0  0.15654  0.17022  0.52578  1.0000
  S   S21       1.0  0.23086  0.23467  0.54954  1.0000
  H   H88       1.0  0.17842  0.18890  0.52217  1.0000
  H   H89       1.0  0.01194  0.32990  0.63906  1.0000
  H   H90       1.0  0.14172  0.11532  0.99069  1.0000
  C   C50       1.0  0.16056  0.13275  0.00273  1.0000
  C   C51       1.0  0.23460  0.12820  0.99817  1.0000
  Fe  Fe11      1.0  0.23045  0.01248  0.00865  1.0000
  H   H91       1.0  0.22891  0.14222  0.98569  1.0000
  S   S22       1.0  0.21664  0.04473  0.99249  1.0000
  H   H92       1.0  0.20901  0.09107  0.96982  1.0000
  C   C52       1.0  0.22353  0.09928  0.98912  1.0000
  C   C53       1.0  0.23119  0.08093  0.00480  1.0000
  H   H93       1.0  0.18037  0.13510  0.99145  1.0000
  H   H94       1.0  0.16011  0.15320  0.99872  1.0000
  H   H95       1.0  0.03050  0.30290  0.88778  1.0000
  S   S23       1.0  0.01782  0.27161  0.00835  1.0000
  H   H96       1.0  0.06789  0.32170  0.87737  1.0000
  C   C54       1.0  0.06265  0.30637  0.93692  1.0000
  N   N7        1.0  0.05607  0.28725  0.91000  1.0000
  C   C55       1.0  0.04954  0.30012  0.88323  1.0000
  H   H97       1.0  0.04450  0.28625  0.86251  1.0000
  C   C56       1.0  0.03092  0.25893  0.91716  1.0000
  H   H98       1.0  0.01174  0.26092  0.92381  1.0000
  H   H99       1.0  0.03566  0.24834  0.93658  1.0000
  Fe  Fe12      1.0  0.03079  0.23725  0.00267  1.0000
  H   H100      1.0  0.02468  0.24407  0.89719  1.0000
  H   H101      1.0  0.04403  0.30935  0.94332  1.0000
  H   H102      1.0  0.99632  0.30383  0.93430  1.0000
  H   H103      1.0  0.06782  0.29728  0.95747  1.0000
  C   C57       1.0  0.13689  0.21786  0.01310  1.0000
  H   H104      1.0  0.08670  0.27387  0.92263  1.0000
  C   C58       1.0  0.14675  0.24230  0.99438  1.0000
  H   H105      1.0  0.07687  0.26890  0.88286  1.0000
  H   H106      1.0  0.16879  0.25309  0.98622  1.0000
  H   H107      1.0  0.13576  0.27144  0.97127  1.0000
  C   C59       1.0  0.09917  0.23890  0.99628  1.0000
  H   H108      1.0  0.10062  0.30443  0.89738  1.0000
  C   C60       1.0  0.08118  0.28349  0.90281  1.0000
  S   S24       1.0  0.07620  0.25244  0.98431  1.0000
  C   C61       1.0  0.12794  0.25265  0.98592  1.0000
  C   C62       1.0  0.08937  0.21460  0.01521  1.0000
  S   S25       1.0  0.23836  0.26911  0.99722  1.0000
  S   S26       1.0  0.22483  0.20317  0.98162  1.0000
  Fe  Fe13      1.0  0.20767  0.22444  0.01389  1.0000
  H   H109      1.0  0.00430  0.33805  0.89134  1.0000
  S   S27       1.0  0.05859  0.57417  0.24249  1.0000
  C   C63       1.0  0.05928  0.52265  0.24072  1.0000
  H   H110      1.0  0.04038  0.51530  0.22652  1.0000
  C   C64       1.0  0.07301  0.55113  0.25183  1.0000
  H   H111      1.0  0.03213  0.62566  0.16178  1.0000
  C   C65       1.0  0.06997  0.50368  0.24744  1.0000
  S   S28       1.0  0.09621  0.65680  0.21964  1.0000
  Fe  Fe14      1.0  0.07627  0.62164  0.25558  1.0000
  H   H112      1.0  0.04015  0.59882  0.17677  1.0000
  H   H113      1.0  0.03868  0.62473  0.20185  1.0000
  C   C66       1.0  0.02848  0.61096  0.18154  1.0000
  H   H114      1.0  0.00407  0.55768  0.20570  1.0000
  N   N8        1.0  0.99750  0.59151  0.18723  1.0000
  H   H115      1.0  0.00440  0.58233  0.23363  1.0000
  C   C67       1.0  0.09458  0.51294  0.26553  1.0000
  S   S29       1.0  0.99680  0.75006  0.05814  1.0000
  Fe  Fe15      1.0  0.00932  0.71907  0.03785  1.0000
  H   H116      1.0  0.00245  0.69872  0.17135  1.0000
  S   S30       1.0  0.05206  0.82582  0.03036  1.0000
  H   H117      1.0  0.00048  0.70563  0.11506  1.0000
  H   H118      1.0  0.05440  0.79192  0.08341  1.0000
  Fe  Fe16      1.0  0.02147  0.77884  0.01820  1.0000
  C   C68       1.0  0.01589  0.69995  0.12419  1.0000
  C   C69       1.0  0.01705  0.69599  0.15609  1.0000
  H   H119      1.0  0.04922  0.75683  0.09264  1.0000
  H   H120      1.0  0.09171  0.74990  0.09921  1.0000
  H   H121      1.0  0.10659  0.77871  0.12654  1.0000
  H   H122      1.0  0.12732  0.77962  0.09321  1.0000
  H   H123      1.0  0.07091  0.67925  0.15756  1.0000
  S   S31       1.0  0.03310  0.69978  0.06377  1.0000
  C   C70       1.0  0.03418  0.69587  0.10417  1.0000
  C   C71       1.0  0.03673  0.68833  0.16837  1.0000
  C   C72       1.0  0.05549  0.68489  0.14842  1.0000
  C   C73       1.0  0.05401  0.68839  0.11646  1.0000
  H   H124      1.0  0.06830  0.68527  0.10113  1.0000
  N   N9        1.0  0.09316  0.78894  0.08402  1.0000
  Fe  Fe17      1.0  0.06539  0.67115  0.23665  1.0000
  S   S32       1.0  0.03613  0.68221  0.20854  1.0000
  C   C74       1.0  0.10534  0.77371  0.10158  1.0000
  C   C75       1.0  0.09154  0.78121  0.05121  1.0000
  H   H125      1.0  0.07864  0.75749  0.04786  1.0000
  C   C76       1.0  0.06396  0.78032  0.09576  1.0000
  S   S33       1.0  0.17316  0.71166  0.25138  1.0000
  Fe  Fe18      1.0  0.12483  0.68456  0.25771  1.0000
  C   C77       1.0  0.19163  0.74876  0.25991  1.0000
  C   C78       1.0  0.11162  0.82042  0.08736  1.0000
  H   H126      1.0  0.11324  0.78858  0.04099  1.0000
  H   H127      1.0  0.13361  0.82795  0.07785  1.0000
  H   H128      1.0  0.08115  0.79122  0.03764  1.0000
  H   H129      1.0  0.11363  0.82710  0.11185  1.0000
  H   H130      1.0  0.20114  0.81043  0.18373  1.0000
  H   H131      1.0  0.06413  0.78507  0.12068  1.0000
  H   H132      1.0  0.20263  0.82495  0.22126  1.0000
  C   C79       1.0  0.20541  0.83033  0.19628  1.0000
  H   H133      1.0  0.15353  0.75223  0.26696  1.0000
  H   H134      1.0  0.23351  0.75258  0.25365  1.0000
  C   C80       1.0  0.22187  0.76378  0.25973  1.0000
  C   C81       1.0  0.08826  0.84738  0.01762  1.0000
  H   H135      1.0  0.09508  0.88328  0.04610  1.0000
  H   H136      1.0  0.14649  0.91384  0.03117  1.0000
  C   C82       1.0  0.13403  0.89252  0.02157  1.0000
  H   H137      1.0  0.10249  0.83227  0.07467  1.0000
  C   C83       1.0  0.10485  0.87514  0.02995  1.0000
  H   H138      1.0  0.22228  0.86860  0.14901  1.0000
  H   H139      1.0  0.22399  0.88731  0.20111  1.0000
  H   H140      1.0  0.18861  0.83593  0.18973  1.0000
  S   S34       1.0  0.20831  0.97459  0.04128  1.0000
  N   N10       1.0  0.23462  0.85430  0.18962  1.0000
  H   H141      1.0  0.23715  0.87529  0.23264  1.0000
  C   C84       1.0  0.23947  0.87988  0.20746  1.0000
  C   C85       1.0  0.23761  0.86129  0.15643  1.0000
  H   H142      1.0  0.23380  0.84239  0.14223  1.0000
  S   S35       1.0  0.04346  0.63445  0.27041  1.0000
  C   C86       1.0  0.09751  0.56029  0.27006  1.0000
  S   S36       1.0  0.10739  0.64835  0.29229  1.0000
  H   H143      1.0  0.10836  0.58208  0.27879  1.0000
  H   H144      1.0  0.22059  0.53295  0.28792  1.0000
  H   H145      1.0  0.18596  0.52619  0.30167  1.0000
  C   C87       1.0  0.20340  0.52066  0.30527  1.0000
  C   C88       1.0  0.10814  0.54130  0.27689  1.0000
  H   H146      1.0  0.12715  0.54878  0.29093  1.0000
  H   H147      1.0  0.21264  0.52855  0.32845  1.0000
  S   S37       1.0  0.00489  0.72899  0.41872  1.0000
  Fe  Fe19      1.0  0.00465  0.73699  0.47029  1.0000
  H   H148      1.0  0.01393  0.71982  0.35538  1.0000
  S   S38       1.0  0.01545  0.78169  0.48526  1.0000
  Fe  Fe20      1.0  0.07607  0.66391  0.30448  1.0000
  C   C89       1.0  0.02351  0.71250  0.40156  1.0000
  C   C90       1.0  0.17675  0.76339  0.26760  1.0000
  C   C91       1.0  0.22217  0.80730  0.27675  1.0000
  C   C92       1.0  0.19196  0.79246  0.27629  1.0000
  H   H149      1.0  0.18028  0.80351  0.28276  1.0000
  C   C93       1.0  0.02435  0.71081  0.36930  1.0000
  S   S39       1.0  0.03095  0.73184  0.50725  1.0000
  S   S40       1.0  0.09562  0.70172  0.27218  1.0000
  S   S41       1.0  0.06914  0.66756  0.35573  1.0000
  H   H150      1.0  0.11793  0.70828  0.38976  1.0000
  H   H151      1.0  0.03866  0.69601  0.33003  1.0000
  H   H152      1.0  0.14004  0.74417  0.40356  1.0000
  C   C94       1.0  0.14025  0.72689  0.38939  1.0000
  C   C95       1.0  0.05153  0.68518  0.37259  1.0000
  C   C96       1.0  0.03839  0.69734  0.35485  1.0000
  C   C97       1.0  0.03707  0.70074  0.41926  1.0000
  C   C98       1.0  0.05093  0.68711  0.40482  1.0000
  H   H153      1.0  0.03649  0.70174  0.44408  1.0000
  H   H154      1.0  0.06093  0.67768  0.41878  1.0000
  N   N11       1.0  0.15009  0.73682  0.35758  1.0000
  H   H155      1.0  0.10809  0.72709  0.34185  1.0000
  C   C99       1.0  0.17962  0.76164  0.35806  1.0000
  C   C100      1.0  0.13045  0.74550  0.34313  1.0000
  H   H156      1.0  0.12945  0.76286  0.35634  1.0000
  H   H157      1.0  0.18799  0.76907  0.33436  1.0000
  H   H158      1.0  0.13737  0.75348  0.31927  1.0000
  C   C101      1.0  0.14998  0.71315  0.33974  1.0000
  H   H159      1.0  0.15635  0.71945  0.31533  1.0000
  H   H160      1.0  0.12823  0.69381  0.33967  1.0000
  H   H161      1.0  0.16510  0.70649  0.34941  1.0000
  H   H162      1.0  0.18046  0.78026  0.37054  1.0000
  H   H163      1.0  0.19487  0.75599  0.36939  1.0000
  H   H164      1.0  0.15427  0.71977  0.40092  1.0000
  C   C102      1.0  0.23715  0.79304  0.26798  1.0000
  H   H165      1.0  0.10173  0.89741  0.49409  1.0000
  H   H166      1.0  0.07209  0.84518  0.50575  1.0000
  S   S42       1.0  0.23351  0.99302  0.47539  1.0000
  S   S43       1.0  0.24002  0.84334  0.28921  1.0000
  H   H167      1.0  0.21067  0.93126  0.39219  1.0000
  H   H168      1.0  0.22872  0.95114  0.42601  1.0000
  H   H169      1.0  0.15169  0.90841  0.45003  1.0000
  H   H170      1.0  0.18166  0.89410  0.48147  1.0000
  C   C103      1.0  0.17105  0.92195  0.43559  1.0000
  C   C104      1.0  0.09394  0.85710  0.51409  1.0000
  N   N12       1.0  0.19109  0.91023  0.43505  1.0000
  H   H171      1.0  0.23199  0.92062  0.41487  1.0000
  H   H172      1.0  0.18137  0.94400  0.44556  1.0000
  H   H173      1.0  0.16939  0.88122  0.39784  1.0000
  H   H174      1.0  0.16359  0.92328  0.41214  1.0000
  C   C105      1.0  0.20022  0.90882  0.46673  1.0000
  C   C106      1.0  0.21664  0.92910  0.41612  1.0000
  S   S44       1.0  0.15945  0.93998  0.50906  1.0000
  C   C107      1.0  0.11081  0.88675  0.50753  1.0000
  H   H175      1.0  0.19095  0.87146  0.42136  1.0000
  H   H176      1.0  0.21030  0.93031  0.47782  1.0000
  C   C108      1.0  0.17644  0.88097  0.42183  1.0000
  H   H177      1.0  0.15698  0.86630  0.43560  1.0000
  H   H178      1.0  0.21644  0.90139  0.46719  1.0000
  Fe  Fe21      1.0  0.03923  0.77529  0.52413  1.0000
  S   S45       1.0  0.00071  0.75655  0.55607  1.0000
  H   H179      1.0  0.02600  0.75564  0.62123  1.0000
  H   H180      1.0  0.05486  0.78406  0.59993  1.0000
  H   H181      1.0  0.05725  0.78235  0.64093  1.0000
  C   C109      1.0  0.04984  0.76903  0.61976  1.0000
  H   H182      1.0  0.02955  0.72014  0.58766  1.0000
  H   H183      1.0  0.03272  0.71658  0.64444  1.0000
  H   H184      1.0  0.06343  0.74334  0.66469  1.0000
  C   C110      1.0  0.05635  0.73130  0.64267  1.0000
  H   H185      1.0  0.06659  0.71750  0.64068  1.0000
  N   N13       1.0  0.06370  0.75102  0.61605  1.0000
  H   H186      1.0  0.05921  0.74828  0.56698  1.0000
  C   C111      1.0  0.05338  0.73401  0.58751  1.0000
  H   H187      1.0  0.10385  0.78298  0.63529  1.0000
  C   C112      1.0  0.09526  0.76979  0.61415  1.0000
  H   H188      1.0  0.10142  0.78503  0.59434  1.0000
  S   S46       1.0  0.08463  0.80590  0.54136  1.0000
  H   H189      1.0  0.06279  0.71962  0.58419  1.0000
  H   H190      1.0  0.10645  0.75699  0.61094  1.0000
  C   C113      1.0  0.10521  0.84309  0.53182  1.0000
  C   C114      1.0  0.13362  0.85905  0.54261  1.0000
  H   H191      1.0  0.17225  0.90073  0.54461  1.0000
  C   C115      1.0  0.15054  0.88870  0.53594  1.0000
  H   H192      1.0  0.14256  0.84848  0.55640  1.0000
  S   S47       1.0  0.23847  0.95771  0.53599  1.0000
  C   C116      1.0  0.13915  0.90274  0.51843  1.0000
  Fe  Fe22      1.0  0.20721  0.97052  0.51754  1.0000
  H   H193      1.0  0.00568  0.57359  0.84229  1.0000
  H   H194      1.0  0.99572  0.60768  0.87198  1.0000
  S   S48       1.0  0.03532  0.74857  0.99900  1.0000
  H   H195      1.0  0.08866  0.81607  0.98664  1.0000
  C   C117      1.0  0.13037  0.85453  0.98838  1.0000
  S   S49       1.0  0.23402  0.98586  0.97039  1.0000
  C   C118      1.0  0.14697  0.88228  0.00071  1.0000
  H   H196      1.0  0.14013  0.84648  0.97209  1.0000
  C   C119      1.0  0.10117  0.83720  0.99665  1.0000
  S   S50       1.0  0.18376  0.90300  0.98970  1.0000
  Fe  Fe23      1.0  0.21523  0.94900  0.00436  1.0000
  H   H197      1.0  0.27533  0.12877  0.05822  1.0000
  C   C120      1.0  0.26097  0.12064  0.03877  1.0000
  H   H198      1.0  0.32462  0.04272  0.07003  1.0000
  S   S51       1.0  0.27422  0.02555  0.02700  1.0000
  C   C121      1.0  0.34517  0.04682  0.05881  1.0000
  H   H199      1.0  0.34308  0.04948  0.03367  1.0000
  H   H200      1.0  0.36254  0.06762  0.06781  1.0000
  H   H201      1.0  0.25621  0.07795  0.04184  1.0000
  H   H202      1.0  0.33227  0.01544  0.11012  1.0000
  H   H203      1.0  0.32646  0.99776  0.02640  1.0000
  C   C122      1.0  0.25019  0.09183  0.02951  1.0000
  C   C123      1.0  0.25310  0.13891  0.02332  1.0000
  C   C124      1.0  0.32785  0.99613  0.05182  1.0000
  N   N14       1.0  0.35116  0.02297  0.06488  1.0000
  C   C125      1.0  0.35258  0.01943  0.09847  1.0000
  H   H204      1.0  0.37044  0.03898  0.10906  1.0000
  H   H205      1.0  0.39696  0.04959  0.05949  1.0000
  C   C126      1.0  0.37880  0.02938  0.05031  1.0000
  H   H206      1.0  0.38381  0.01168  0.05440  1.0000
  H   H207      1.0  0.35578  0.00078  0.10406  1.0000
  H   H208      1.0  0.37818  0.03201  0.02491  1.0000
  Fe  Fe24      1.0  0.25524  0.20841  0.01975  1.0000
  Fe  Fe25      1.0  0.26814  0.27014  0.03447  1.0000
  S   S52       1.0  0.29499  0.31311  0.05894  1.0000
  C   C127      1.0  0.28700  0.29594  0.12044  1.0000
  C   C128      1.0  0.29049  0.30150  0.15232  1.0000
  C   C129      1.0  0.29736  0.31879  0.09940  1.0000
  H   H209      1.0  0.27674  0.27402  0.11214  1.0000
  H   H210      1.0  0.28280  0.28366  0.16831  1.0000
  H   H211      1.0  0.26087  0.31250  0.24986  1.0000
  H   H212      1.0  0.28099  0.27954  0.24550  1.0000
  S   S53       1.0  0.26664  0.17470  0.03660  1.0000
  C   C130      1.0  0.30399  0.32988  0.16357  1.0000
  S   S54       1.0  0.30859  0.33563  0.20396  1.0000
  C   C131      1.0  0.31396  0.35271  0.14255  1.0000
  C   C132      1.0  0.31083  0.34717  0.11066  1.0000
  H   H213      1.0  0.31895  0.36501  0.09464  1.0000
  H   H214      1.0  0.32444  0.37465  0.15082  1.0000
  Fe  Fe26      1.0  0.30827  0.42529  0.24305  1.0000
  S   S55       1.0  0.27986  0.44317  0.22642  1.0000
  Fe  Fe27      1.0  0.32338  0.37837  0.22889  1.0000
  Fe  Fe28      1.0  0.37024  0.43795  0.25246  1.0000
  S   S56       1.0  0.34096  0.42361  0.21103  1.0000
  S   S57       1.0  0.28914  0.37947  0.25842  1.0000
  H   H215      1.0  0.33916  0.36045  0.02035  1.0000
  C   C133      1.0  0.24525  0.42951  0.24287  1.0000
  S   S58       1.0  0.41936  0.46795  0.25314  1.0000
  C   C134      1.0  0.26006  0.14923  0.49735  1.0000
  S   S59       1.0  0.27156  0.07934  0.48945  1.0000
  H   H216      1.0  0.29133  0.13910  0.47772  1.0000
  C   C135      1.0  0.27122  0.13076  0.49027  1.0000
  H   H217      1.0  0.32638  0.01182  0.37269  1.0000
  C   C136      1.0  0.25642  0.10155  0.49897  1.0000
  Fe  Fe29      1.0  0.25534  0.03287  0.50462  1.0000
  H   H218      1.0  0.30504  0.00471  0.42519  1.0000
  C   C137      1.0  0.25336  0.30382  0.27351  1.0000
  H   H219      1.0  0.25161  0.25272  0.26792  1.0000
  C   C138      1.0  0.27338  0.27198  0.26948  1.0000
  H   H220      1.0  0.31111  0.32776  0.26596  1.0000
  H   H221      1.0  0.26231  0.30152  0.33407  1.0000
  H   H222      1.0  0.27698  0.27772  0.33131  1.0000
  C   C139      1.0  0.30220  0.31992  0.28933  1.0000
  Fe  Fe30      1.0  0.27252  0.26232  0.47144  1.0000
  C   C140      1.0  0.30269  0.30861  0.40574  1.0000
  H   H223      1.0  0.27079  0.31360  0.43142  1.0000
  N   N15       1.0  0.27286  0.29498  0.28799  1.0000
  C   C141      1.0  0.26267  0.28443  0.31958  1.0000
  C   C142      1.0  0.28565  0.32126  0.41214  1.0000
  H   H224      1.0  0.25223  0.32098  0.28708  1.0000
  S   S60       1.0  0.26549  0.29060  0.50422  1.0000
  H   H225      1.0  0.28815  0.26501  0.27953  1.0000
  H   H226      1.0  0.31730  0.31437  0.30111  1.0000
  S   S61       1.0  0.30089  0.28010  0.42855  1.0000
  N   N16       1.0  0.36832  0.31684  0.49604  1.0000
  C   C143      1.0  0.34446  0.32344  0.49728  1.0000
  C   C144      1.0  0.36365  0.29701  0.47021  1.0000
  S   S62       1.0  0.28627  0.24172  0.50820  1.0000
  H   H227      1.0  0.33542  0.30952  0.37565  1.0000
  H   H228      1.0  0.27155  0.17157  0.49024  1.0000
  H   H229      1.0  0.38114  0.29141  0.46848  1.0000
  H   H230      1.0  0.34293  0.27652  0.47292  1.0000
  C   C145      1.0  0.32193  0.31897  0.38062  1.0000
  H   H231      1.0  0.36244  0.30654  0.44783  1.0000
  H   H232      1.0  0.32361  0.30357  0.50105  1.0000
  C   C146      1.0  0.39675  0.48787  0.33145  1.0000
  H   H233      1.0  0.25328  0.40885  0.28111  1.0000
  H   H234      1.0  0.37375  0.48029  0.33719  1.0000
  H   H235      1.0  0.30236  0.33826  0.30170  1.0000
  S   S63       1.0  0.30883  0.38311  0.34608  1.0000
  Fe  Fe31      1.0  0.32203  0.39618  0.29602  1.0000
  S   S64       1.0  0.33863  0.44271  0.28303  1.0000
  C   C147      1.0  0.30678  0.35413  0.36828  1.0000
  C   C148      1.0  0.28778  0.34393  0.39357  1.0000
  H   H236      1.0  0.27449  0.35356  0.39883  1.0000
  C   C149      1.0  0.32412  0.34173  0.36210  1.0000
  H   H237      1.0  0.36782  0.43105  0.34205  1.0000
  S   S65       1.0  0.35521  0.39209  0.26796  1.0000
  H   H238      1.0  0.38060  0.46321  0.38729  1.0000
  H   H239      1.0  0.39818  0.48616  0.30610  1.0000
  H   H240      1.0  0.44194  0.48087  0.31526  1.0000
  H   H241      1.0  0.39980  0.35917  0.51063  1.0000
  H   H242      1.0  0.41430  0.33966  0.49039  1.0000
  C   C150      1.0  0.39578  0.34382  0.49144  1.0000
  H   H243      1.0  0.39564  0.35472  0.46965  1.0000
  C   C151      1.0  0.43849  0.48240  0.34031  1.0000
  H   H244      1.0  0.44760  0.47036  0.35253  1.0000
  H   H245      1.0  0.39409  0.43858  0.31229  1.0000
  H   H246      1.0  0.33960  0.35003  0.34344  1.0000
  C   C152      1.0  0.39131  0.44042  0.33745  1.0000
  N   N17       1.0  0.40760  0.47073  0.34760  1.0000
  H   H247      1.0  0.41188  0.45961  0.39406  1.0000
  C   C153      1.0  0.40377  0.47219  0.38112  1.0000
  H   H248      1.0  0.39858  0.42667  0.34938  1.0000
  H   H249      1.0  0.34253  0.33328  0.47544  1.0000
  H   H250      1.0  0.34698  0.33819  0.51663  1.0000
  H   H251      1.0  0.41553  0.49482  0.38946  1.0000
  H   H252      1.0  0.43331  0.99699  0.37436  1.0000
  H   H253      1.0  0.29166  0.03744  0.66947  1.0000
  C   C154      1.0  0.32693  0.09056  0.59461  1.0000
  C   C155      1.0  0.30904  0.03559  0.65872  1.0000
  C   C156      1.0  0.30531  0.02386  0.62902  1.0000
  N   N18       1.0  0.31028  0.10188  0.57831  1.0000
  C   C157      1.0  0.33519  0.04528  0.67451  1.0000
  C   C158      1.0  0.32804  0.02191  0.61522  1.0000
  H   H254      1.0  0.33791  0.05479  0.69706  1.0000
  H   H255      1.0  0.32628  0.07199  0.58211  1.0000
  H   H256      1.0  0.34991  0.10725  0.59718  1.0000
  S   S66       1.0  0.27193  0.01221  0.61035  1.0000
  C   C159      1.0  0.32284  0.11210  0.54737  1.0000
  H   H257      1.0  0.31098  0.12112  0.53460  1.0000
  H   H258      1.0  0.34579  0.12914  0.54860  1.0000
  H   H259      1.0  0.32549  0.01297  0.59237  1.0000
  H   H260      1.0  0.27896  0.06038  0.56206  1.0000
  H   H261      1.0  0.31800  0.08269  0.61805  1.0000
  C   C160      1.0  0.31105  0.12597  0.59589  1.0000
  H   H262      1.0  0.33349  0.14390  0.59860  1.0000
  H   H263      1.0  0.29850  0.13481  0.58413  1.0000
  H   H264      1.0  0.30163  0.11889  0.61931  1.0000
  H   H265      1.0  0.26993  0.07000  0.59809  1.0000
  C   C161      1.0  0.28013  0.07871  0.57529  1.0000
  H   H266      1.0  0.26680  0.08625  0.56292  1.0000
  H   H267      1.0  0.32169  0.09418  0.53313  1.0000
  Fe  Fe32      1.0  0.26017  0.00083  0.55984  1.0000
  S   S67       1.0  0.29006  0.02315  0.52010  1.0000
  H   H268      1.0  0.32843  0.00992  0.76464  1.0000
  H   H269      1.0  0.30921  0.00780  0.73011  1.0000
  C   C162      1.0  0.32727  0.00539  0.73956  1.0000
  H   H270      1.0  0.34754  0.02233  0.72893  1.0000
  C   C163      1.0  0.35763  0.04254  0.66110  1.0000
  C   C164      1.0  0.35397  0.03100  0.63132  1.0000
  S   S68       1.0  0.38998  0.05180  0.68109  1.0000
  H   H271      1.0  0.37124  0.02888  0.62069  1.0000
  Fe  Fe33      1.0  0.40219  0.06875  0.73011  1.0000
  S   S69       1.0  0.44184  0.11098  0.74114  1.0000
  S   S70       1.0  0.41366  0.04306  0.76287  1.0000
  S   S71       1.0  0.37410  0.07527  0.76412  1.0000
  Fe  Fe34      1.0  0.27714  0.26866  0.54144  1.0000
  H   H272      1.0  0.28021  0.25690  0.61982  1.0000
  H   H273      1.0  0.29876  0.27370  0.76477  1.0000
  H   H274      1.0  0.29079  0.25282  0.67466  1.0000
  C   C165      1.0  0.30104  0.27174  0.62924  1.0000
  C   C166      1.0  0.30710  0.26950  0.66035  1.0000
  H   H275      1.0  0.29558  0.23023  0.74298  1.0000
  H   H276      1.0  0.37237  0.31732  0.54531  1.0000
  C   C167      1.0  0.30656  0.22812  0.76376  1.0000
  S   S72       1.0  0.31488  0.29852  0.57177  1.0000
  C   C168      1.0  0.32172  0.29362  0.61065  1.0000
  C   C169      1.0  0.35484  0.31034  0.65433  1.0000
  C   C170      1.0  0.34864  0.31282  0.62335  1.0000
  C   C171      1.0  0.33398  0.28881  0.67309  1.0000
  Fe  Fe35      1.0  0.38314  0.30918  0.73761  1.0000
  S   S73       1.0  0.34004  0.28572  0.71272  1.0000
  Fe  Fe36      1.0  0.43486  0.30169  0.75492  1.0000
  S   S74       1.0  0.45975  0.27898  0.74130  1.0000
  H   H277      1.0  0.32999  0.23971  0.75838  1.0000
  H   H278      1.0  0.37553  0.32543  0.66387  1.0000
  C   C172      1.0  0.44591  0.24367  0.75603  1.0000
  H   H279      1.0  0.36474  0.32993  0.60927  1.0000
  C   C173      1.0  0.36929  0.30310  0.52524  1.0000
  H   H280      1.0  0.34877  0.28275  0.52953  1.0000
  S   S75       1.0  0.42793  0.32758  0.71862  1.0000
  H   H281      1.0  0.38703  0.29779  0.52529  1.0000
  H   H282      1.0  0.46839  0.23157  0.72302  1.0000
  C   C174      1.0  0.45402  0.22464  0.74270  1.0000
  C   C175      1.0  0.44324  0.19650  0.75446  1.0000
  H   H283      1.0  0.44927  0.18186  0.74386  1.0000
  H   H284      1.0  0.49127  0.37084  0.70332  1.0000
  S   S76       1.0  0.47335  0.40733  0.73819  1.0000
  Fe  Fe37      1.0  0.44127  0.36179  0.75522  1.0000
  H   H285      1.0  0.48759  0.33546  0.70420  1.0000
  H   H286      1.0  0.25701  0.08893  0.94131  1.0000
  C   C176      1.0  0.30797  0.99945  0.90718  1.0000
  H   H287      1.0  0.33341  0.11216  0.92110  1.0000
  H   H288      1.0  0.27181  0.09599  0.90305  1.0000
  C   C177      1.0  0.31766  0.08939  0.91558  1.0000
  C   C178      1.0  0.32826  0.02006  0.92689  1.0000
  S   S77       1.0  0.32118  0.02110  0.96675  1.0000
  N   N19       1.0  0.29099  0.07887  0.93406  1.0000
  C   C179      1.0  0.27734  0.09670  0.92779  1.0000
  C   C180      1.0  0.27084  0.04864  0.92590  1.0000
  H   H289      1.0  0.28008  0.03439  0.93121  1.0000
  C   C181      1.0  0.29802  0.08063  0.96710  1.0000
  H   H290      1.0  0.31260  0.10321  0.97433  1.0000
  H   H291      1.0  0.30873  0.06777  0.97260  1.0000
  H   H292      1.0  0.29171  0.11961  0.93414  1.0000
  H   H293      1.0  0.27827  0.07215  0.98164  1.0000
  C   C182      1.0  0.31499  0.99868  0.87597  1.0000
  H   H294      1.0  0.32833  0.07625  0.91996  1.0000
  H   H295      1.0  0.31318  0.08815  0.89048  1.0000
  H   H296      1.0  0.26559  0.04629  0.90098  1.0000
  H   H297      1.0  0.25017  0.04027  0.93888  1.0000
  Fe  Fe38      1.0  0.27707  0.99746  0.99017  1.0000
  Fe  Fe39      1.0  0.41444  0.11508  0.77820  1.0000
  H   H298      1.0  0.48883  0.13380  0.84000  1.0000
  C   C183      1.0  0.34207  0.01885  0.86394  1.0000
  S   S78       1.0  0.35049  0.01595  0.82490  1.0000
  C   C184      1.0  0.35525  0.04038  0.91482  1.0000
  C   C185      1.0  0.36202  0.04000  0.88347  1.0000
  Fe  Fe40      1.0  0.45154  0.08570  0.77627  1.0000
  Fe  Fe41      1.0  0.38739  0.05195  0.79771  1.0000
  S   S79       1.0  0.42588  0.09210  0.81407  1.0000
  H   H299      1.0  0.38299  0.05553  0.87462  1.0000
  H   H300      1.0  0.37115  0.05637  0.92984  1.0000
  H   H301      1.0  0.45753  0.15594  0.83722  1.0000
  S   S80       1.0  0.41182  0.15332  0.79718  1.0000
  H   H302      1.0  0.47538  0.14439  0.78983  1.0000
  H   H303      1.0  0.25632  0.22572  0.77785  1.0000
  H   H304      1.0  0.26302  0.23274  0.81827  1.0000
  Fe  Fe42      1.0  0.25812  0.24836  0.96793  1.0000
  S   S81       1.0  0.26929  0.26347  0.91810  1.0000
  H   H305      1.0  0.29461  0.29597  0.86302  1.0000
  C   C186      1.0  0.26870  0.22414  0.79759  1.0000
  H   H306      1.0  0.26112  0.20091  0.80189  1.0000
  H   H307      1.0  0.29935  0.31997  0.99408  1.0000
  C   C187      1.0  0.31200  0.32649  0.97228  1.0000
  H   H308      1.0  0.30540  0.30660  0.95873  1.0000
  H   H309      1.0  0.29990  0.20496  0.76684  1.0000
  N   N20       1.0  0.30000  0.24018  0.79131  1.0000
  H   H310      1.0  0.30311  0.28031  0.80540  1.0000
  C   C188      1.0  0.30899  0.27084  0.78577  1.0000
  H   H311      1.0  0.34591  0.30267  0.98004  1.0000
  S   S82       1.0  0.28983  0.25221  0.00387  1.0000
  C   C189      1.0  0.31050  0.29174  0.87359  1.0000
  C   C190      1.0  0.30393  0.27649  0.90157  1.0000
  S   S83       1.0  0.38920  0.28054  0.77139  1.0000
  H   H312      1.0  0.30966  0.24468  0.83966  1.0000
  C   C191      1.0  0.31562  0.23762  0.81808  1.0000
  H   H313      1.0  0.33270  0.28390  0.78217  1.0000
  Fe  Fe43      1.0  0.40376  0.31743  0.80431  1.0000
  H   H314      1.0  0.31083  0.21503  0.82169  1.0000
  S   S84       1.0  0.39203  0.30731  0.85508  1.0000
  H   H315      1.0  0.33937  0.25116  0.81520  1.0000
  H   H316      1.0  0.42119  0.24908  0.79209  1.0000
  C   C192      1.0  0.32480  0.27163  0.91536  1.0000
  H   H317      1.0  0.32000  0.25982  0.93682  1.0000
  C   C193      1.0  0.33755  0.30168  0.85926  1.0000
  C   C194      1.0  0.35810  0.29609  0.87260  1.0000
  C   C195      1.0  0.35177  0.28144  0.90094  1.0000
  H   H318      1.0  0.36768  0.27725  0.91154  1.0000
  H   H319      1.0  0.34262  0.31379  0.83799  1.0000
  C   C196      1.0  0.42728  0.23453  0.78138  1.0000
  H   H320      1.0  0.40282  0.19999  0.81332  1.0000
  C   C197      1.0  0.41696  0.20670  0.79344  1.0000
  C   C198      1.0  0.35110  0.32199  0.99423  1.0000
  H   H321      1.0  0.33922  0.31428  0.01649  1.0000
  H   H322      1.0  0.48941  0.18063  0.77654  1.0000
  C   C199      1.0  0.47725  0.17751  0.83684  1.0000
  H   H323      1.0  0.48193  0.18527  0.86096  1.0000
  H   H324      1.0  0.47164  0.19213  0.82389  1.0000
  C   C200      1.0  0.42473  0.18754  0.78000  1.0000
  H   H325      1.0  0.30532  0.34017  0.95924  1.0000
  H   H326      1.0  0.34475  0.38210  0.98665  1.0000
  H   H327      1.0  0.37420  0.37904  0.00273  1.0000
  H   H328      1.0  0.38281  0.36210  0.95214  1.0000
  H   H329      1.0  0.37450  0.33277  0.99944  1.0000
  S   S85       1.0  0.45052  0.33660  0.79044  1.0000
  H   H330      1.0  0.35356  0.33223  0.93327  1.0000
  C   C201      1.0  0.35911  0.35094  0.94866  1.0000
  H   H331      1.0  0.35385  0.36591  0.93600  1.0000
  N   N21       1.0  0.34327  0.34163  0.97822  1.0000
  S   S86       1.0  0.39526  0.34529  0.77170  1.0000
  C   C202      1.0  0.35074  0.36699  0.99779  1.0000
  C   C203      1.0  0.49450  0.16616  0.79042  1.0000
  C   C204      1.0  0.44213  0.50592  0.25738  1.0000
  H   H332      1.0  0.40838  0.51702  0.25793  1.0000
  C   C205      1.0  0.47210  0.51702  0.25950  1.0000
  H   H333      1.0  0.48079  0.50248  0.25772  1.0000
  C   C206      1.0  0.43129  0.52503  0.25981  1.0000
  C   C207      1.0  0.45015  0.55467  0.26469  1.0000
  C   C208      1.0  0.49098  0.54668  0.26428  1.0000
  H   H334      1.0  0.44146  0.56920  0.26658  1.0000
  H   H335      1.0  0.47791  0.57353  0.16151  1.0000
  H   H336      1.0  0.48284  0.57057  0.20187  1.0000
  H   H337      1.0  0.49011  0.54941  0.17498  1.0000
  C   C209      1.0  0.49191  0.57091  0.17862  1.0000
  H   H338      1.0  0.25261  0.82595  0.18626  1.0000
  H   H339      1.0  0.44419  0.78703  0.24447  1.0000
  C   C210      1.0  0.46216  0.79921  0.22794  1.0000
  H   H340      1.0  0.45398  0.79168  0.20434  1.0000
  H   H341      1.0  0.43279  0.82750  0.24142  1.0000
  H   H342      1.0  0.47915  0.79323  0.23264  1.0000
  H   H343      1.0  0.27838  0.86305  0.19284  1.0000
  H   H344      1.0  0.33098  0.97734  0.05668  1.0000
  C   C211      1.0  0.27896  0.96871  0.12680  1.0000
  C   C212      1.0  0.28461  0.97343  0.15845  1.0000
  C   C213      1.0  0.29665  0.95909  0.17486  1.0000
  C   C214      1.0  0.30375  0.94033  0.15957  1.0000
  C   C215      1.0  0.28521  0.94921  0.11173  1.0000
  H   H345      1.0  0.30327  0.92090  0.11593  1.0000
  C   C216      1.0  0.29796  0.93547  0.12794  1.0000
  H   H346      1.0  0.28052  0.94490  0.08754  1.0000
  S   S87       1.0  0.31995  0.92253  0.17874  1.0000
  H   H347      1.0  0.30103  0.96310  0.19917  1.0000
  S   S88       1.0  0.31800  0.87518  0.24522  1.0000
  Fe  Fe44      1.0  0.32340  0.91831  0.23067  1.0000
  Fe  Fe45      1.0  0.25307  0.98556  0.05636  1.0000
  S   S89       1.0  0.36100  0.94341  0.26237  1.0000
  S   S90       1.0  0.29121  0.91740  0.26459  1.0000
  H   H348      1.0  0.26149  0.89826  0.20337  1.0000
  C   C217      1.0  0.25613  0.84577  0.19844  1.0000
  H   H349      1.0  0.30669  0.99127  0.06171  1.0000
  H   H350      1.0  0.25970  0.87898  0.15085  1.0000
  S   S91       1.0  0.25908  0.95828  0.02100  1.0000
  H   H351      1.0  0.25527  0.84143  0.22356  1.0000
  S   S92       1.0  0.26612  0.98922  0.10681  1.0000
  H   H352      1.0  0.27990  0.98850  0.17033  1.0000
  N   N22       1.0  0.47375  0.83060  0.23095  1.0000
  C   C218      1.0  0.48450  0.83947  0.26252  1.0000
  H   H353      1.0  0.44207  0.83139  0.20113  1.0000
  C   C219      1.0  0.45092  0.83801  0.22467  1.0000
  H   H354      1.0  0.45938  0.86170  0.22637  1.0000
  C   C220      1.0  0.47950  0.91351  0.26066  1.0000
  C   C221      1.0  0.46190  0.92122  0.24358  1.0000
  H   H355      1.0  0.42109  0.92079  0.24075  1.0000
  H   H356      1.0  0.46973  0.93237  0.22186  1.0000
  C   C222      1.0  0.43424  0.91467  0.25425  1.0000
  H   H357      1.0  0.49045  0.83963  0.18466  1.0000
  H   H358      1.0  0.49404  0.86314  0.26537  1.0000
  C   C223      1.0  0.48010  0.56576  0.26698  1.0000
  H   H359      1.0  0.40937  0.51114  0.33733  1.0000
  H   H360      1.0  0.45139  0.50554  0.34663  1.0000
  H   H361      1.0  0.44802  0.97323  0.36954  1.0000
  H   H362      1.0  0.26044  0.80429  0.26831  1.0000
  H   H363      1.0  0.46700  0.82894  0.27994  1.0000
  H   H364      1.0  0.35707  0.93991  0.36643  1.0000
  C   C224      1.0  0.37777  0.95574  0.37711  1.0000
  H   H365      1.0  0.37550  0.95197  0.40238  1.0000
  C   C225      1.0  0.30456  0.98675  0.41308  1.0000
  Fe  Fe46      1.0  0.26542  0.98125  0.49430  1.0000
  Fe  Fe47      1.0  0.28717  0.87546  0.28046  1.0000
  S   S93       1.0  0.32154  0.89616  0.31630  1.0000
  Fe  Fe48      1.0  0.32757  0.93799  0.29808  1.0000
  Fe  Fe49      1.0  0.35345  0.90025  0.27930  1.0000
  S   S94       1.0  0.33340  0.97397  0.33053  1.0000
  H   H366      1.0  0.30305  0.92247  0.36913  1.0000
  S   S95       1.0  0.27852  0.95362  0.46545  1.0000
  C   C226      1.0  0.30368  0.94049  0.38121  1.0000
  C   C227      1.0  0.29237  0.93672  0.41128  1.0000
  C   C228      1.0  0.29272  0.95977  0.42740  1.0000
  H   H367      1.0  0.28326  0.91577  0.42214  1.0000
  C   C229      1.0  0.31632  0.96765  0.36719  1.0000
  H   H368      1.0  0.38028  0.97747  0.37265  1.0000
  C   C230      1.0  0.31665  0.99072  0.38329  1.0000
  H   H369      1.0  0.37713  0.90713  0.35985  1.0000
  C   C231      1.0  0.42924  0.97470  0.37875  1.0000
  H   H370      1.0  0.40637  0.97969  0.32504  1.0000
  N   N23       1.0  0.40216  0.95316  0.36429  1.0000
  C   C232      1.0  0.44122  0.89235  0.29927  1.0000
  C   C233      1.0  0.46896  0.89904  0.28868  1.0000
  H   H371      1.0  0.38420  0.94177  0.31935  1.0000
  H   H372      1.0  0.41515  0.92089  0.36006  1.0000
  H   H373      1.0  0.42230  0.95679  0.32016  1.0000
  H   H374      1.0  0.42856  0.97157  0.40412  1.0000
  C   C234      1.0  0.40398  0.95825  0.33077  1.0000
  C   C235      1.0  0.42364  0.90009  0.28217  1.0000
  S   S96       1.0  0.38876  0.89091  0.29680  1.0000
  H   H375      1.0  0.43333  0.88109  0.32092  1.0000
  H   H376      1.0  0.48217  0.89309  0.30227  1.0000
  H   H377      1.0  0.39647  0.91925  0.39538  1.0000
  C   C236      1.0  0.39757  0.92387  0.37031  1.0000
  H   H378      1.0  0.29359  0.93254  0.74527  1.0000
  H   H379      1.0  0.34633  0.95327  0.74206  1.0000
  C   C237      1.0  0.29720  0.95468  0.74932  1.0000
  C   C238      1.0  0.34876  0.97505  0.74522  1.0000
  N   N24       1.0  0.32352  0.97651  0.73349  1.0000
  H   H380      1.0  0.31775  0.94945  0.69441  1.0000
  H   H381      1.0  0.27782  0.95545  0.74120  1.0000
  C   C239      1.0  0.32102  0.97122  0.69996  1.0000
  H   H382      1.0  0.30273  0.97305  0.69011  1.0000
  H   H383      1.0  0.34086  0.98724  0.68759  1.0000
  H   H384      1.0  0.36883  0.99069  0.73296  1.0000
  H   H385      1.0  0.29870  0.95831  0.77468  1.0000
  H   H386      1.0  0.35206  0.98030  0.77023  1.0000
  H   H387      1.0  0.28717  0.98358  0.91612  1.0000
  H   H388      1.0  0.29943  0.98215  0.86114  1.0000
  H   H389      1.0  0.68729  0.01589  0.24564  1.0000
  C   C240      1.0  0.67418  0.01377  0.26654  1.0000
  H   H390      1.0  0.65179  0.99692  0.26121  1.0000
  H   H391      1.0  0.72948  0.03158  0.28013  1.0000
  H   H392      1.0  0.67405  0.03440  0.26980  1.0000
  C   C241      1.0  0.71505  0.02879  0.29999  1.0000
  N   N25       1.0  0.68524  0.00596  0.29393  1.0000
  H   H393      1.0  0.72399  0.02353  0.32059  1.0000
  H   H394      1.0  0.71608  0.04986  0.30431  1.0000
  H   H395      1.0  0.66564  0.02273  0.32523  1.0000
  C   C242      1.0  0.66685  0.00278  0.32089  1.0000
  H   H396      1.0  0.67513  0.99784  0.34218  1.0000
  S   S97       1.0  0.59291  0.06591  0.74454  1.0000
  C   C243      1.0  0.51836  0.06988  0.75342  1.0000
  C   C244      1.0  0.53961  0.06287  0.74396  1.0000
  H   H397      1.0  0.53471  0.04724  0.72589  1.0000
  H   H398      1.0  0.49744  0.05965  0.74265  1.0000
  H   H399      1.0  0.56465  0.00604  0.71970  1.0000
  C   C245      1.0  0.56709  0.07591  0.75756  1.0000
  H   H400      1.0  0.60470  0.03351  0.68389  1.0000
  H   H401      1.0  0.58986  0.00729  0.74728  1.0000
  C   C246      1.0  0.61507  0.02088  0.69172  1.0000
  H   H402      1.0  0.63002  0.03328  0.71042  1.0000
  H   H403      1.0  0.62849  0.01988  0.67253  1.0000
  H   H404      1.0  0.68685  0.06181  0.65882  1.0000
  S   S98       1.0  0.71050  0.02659  0.56464  1.0000
  C   C247      1.0  0.69280  0.02549  0.66870  1.0000
  C   C248      1.0  0.70417  0.02579  0.60486  1.0000
  C   C249      1.0  0.69747  0.04608  0.61761  1.0000
  C   C250      1.0  0.69207  0.04613  0.64939  1.0000
  H   H405      1.0  0.69631  0.06179  0.60278  1.0000
  S   S99       1.0  0.67060  0.09078  0.71698  1.0000
  Fe  Fe50      1.0  0.70495  0.12188  0.74864  1.0000
  Fe  Fe51      1.0  0.68090  0.05793  0.73613  1.0000
  S   S100      1.0  0.68397  0.02320  0.70843  1.0000
  Fe  Fe52      1.0  0.73202  0.00476  0.53889  1.0000
  Fe  Fe53      1.0  0.63989  0.07997  0.75721  1.0000
  C   C251      1.0  0.70555  0.00558  0.62428  1.0000
  S   S101      1.0  0.71745  0.08964  0.76513  1.0000
  C   C252      1.0  0.69960  0.00528  0.65597  1.0000
  S   S102      1.0  0.74088  0.16273  0.72768  1.0000
  H   H406      1.0  0.52811  0.32893  0.72123  1.0000
  H   H407      1.0  0.51052  0.36138  0.67593  1.0000
  H   H408      1.0  0.53654  0.41287  0.71858  1.0000
  C   C253      1.0  0.50323  0.35871  0.70030  1.0000
  H   H409      1.0  0.55696  0.40388  0.69245  1.0000
  H   H410      1.0  0.55137  0.35489  0.69320  1.0000
  C   C254      1.0  0.52446  0.45868  0.73430  1.0000
  C   C255      1.0  0.55214  0.47986  0.74391  1.0000
  H   H411      1.0  0.51619  0.46141  0.71264  1.0000
  N   N26       1.0  0.52770  0.36904  0.72176  1.0000
  C   C256      1.0  0.54286  0.35238  0.71709  1.0000
  H   H412      1.0  0.56131  0.35952  0.73313  1.0000
  C   C257      1.0  0.50747  0.43406  0.75240  1.0000
  C   C258      1.0  0.54770  0.39997  0.71608  1.0000
  H   H413      1.0  0.56585  0.40890  0.73269  1.0000
  C   C259      1.0  0.51678  0.36494  0.75369  1.0000
  H   H414      1.0  0.50416  0.37619  0.75754  1.0000
  H   H415      1.0  0.50238  0.34170  0.75905  1.0000
  S   S103      1.0  0.49837  0.10002  0.78977  1.0000
  C   C260      1.0  0.52424  0.09009  0.77674  1.0000
  C   C261      1.0  0.57298  0.09614  0.78087  1.0000
  C   C262      1.0  0.55171  0.10314  0.79035  1.0000
  H   H416      1.0  0.59389  0.10635  0.79165  1.0000
  H   H417      1.0  0.55660  0.11874  0.80844  1.0000
  C   C263      1.0  0.50782  0.15591  0.83980  1.0000
  H   H418      1.0  0.52586  0.15394  0.82915  1.0000
  H   H419      1.0  0.73867  0.14214  0.85869  1.0000
  S   S104      1.0  0.73042  0.01672  0.01027  1.0000
  H   H420      1.0  0.73314  0.13717  0.81815  1.0000
  S   S105      1.0  0.64862  0.04512  0.77498  1.0000
  Fe  Fe54      1.0  0.68453  0.07985  0.80232  1.0000
  S   S106      1.0  0.67379  0.11428  0.78741  1.0000
  H   H421      1.0  0.70524  0.03278  0.83075  1.0000
  H   H422      1.0  0.70374  0.07159  0.91676  1.0000
  C   C264      1.0  0.71373  0.03698  0.91973  1.0000
  C   C265      1.0  0.70693  0.05599  0.90391  1.0000
  C   C266      1.0  0.70359  0.05453  0.87176  1.0000
  C   C267      1.0  0.70767  0.03416  0.85548  1.0000
  S   S107      1.0  0.69552  0.07938  0.85301  1.0000
  C   C268      1.0  0.71473  0.01533  0.87128  1.0000
  H   H423      1.0  0.71565  0.03801  0.94451  1.0000
  C   C269      1.0  0.71764  0.01649  0.90349  1.0000
  H   H424      1.0  0.71767  0.99954  0.85848  1.0000
  N   N27       1.0  0.50178  0.17621  0.82244  1.0000
  H   H425      1.0  0.53459  0.37360  0.77067  1.0000
  H   H426      1.0  0.51230  0.16447  0.77877  1.0000
  H   H427      1.0  0.51352  0.16271  0.86409  1.0000
  H   H428      1.0  0.52346  0.22089  0.80953  1.0000
  H   H429      1.0  0.54626  0.20485  0.81160  1.0000
  C   C270      1.0  0.52746  0.20516  0.82251  1.0000
  H   H430      1.0  0.53363  0.21343  0.84635  1.0000
  H   H431      1.0  0.73503  0.18692  0.78563  1.0000
  C   C271      1.0  0.56317  0.47676  0.77191  1.0000
  H   H432      1.0  0.55434  0.44960  0.81181  1.0000
  C   C272      1.0  0.51852  0.43096  0.78039  1.0000
  H   H433      1.0  0.50569  0.41243  0.79484  1.0000
  C   C273      1.0  0.54615  0.45215  0.79000  1.0000
  N   N28       1.0  0.52208  0.59432  0.17602  1.0000
  H   H434      1.0  0.56289  0.60636  0.19674  1.0000
  C   C274      1.0  0.53981  0.58966  0.19886  1.0000
  C   C275      1.0  0.53338  0.59460  0.14482  1.0000
  H   H435      1.0  0.53852  0.56832  0.19596  1.0000
  H   H436      1.0  0.53294  0.57393  0.13965  1.0000
  H   H437      1.0  0.55619  0.61216  0.14239  1.0000
  H   H438      1.0  0.52066  0.59821  0.12691  1.0000
  S   S108      1.0  0.58710  0.62636  0.25845  1.0000
  H   H439      1.0  0.53275  0.59069  0.22272  1.0000
  C   C276      1.0  0.52341  0.62225  0.18195  1.0000
  H   H440      1.0  0.54591  0.64040  0.18001  1.0000
  H   H441      1.0  0.51016  0.62650  0.16531  1.0000
  H   H442      1.0  0.51541  0.62294  0.20552  1.0000
  S   S109      1.0  0.60812  0.66113  0.17507  1.0000
  H   H443      1.0  0.53274  0.76176  0.24170  1.0000
  S   S110      1.0  0.54725  0.82026  0.25475  1.0000
  H   H444      1.0  0.62300  0.66739  0.11082  1.0000
  Fe  Fe55      1.0  0.60152  0.66447  0.22654  1.0000
  C   C277      1.0  0.55209  0.77119  0.25537  1.0000
  S   S111      1.0  0.56496  0.67240  0.23916  1.0000
  C   C278      1.0  0.64287  0.67866  0.12348  1.0000
  C   C279      1.0  0.64198  0.67940  0.15580  1.0000
  C   C280      1.0  0.66789  0.69404  0.17186  1.0000
  H   H445      1.0  0.66758  0.69471  0.19671  1.0000
  H   H446      1.0  0.55540  0.73226  0.25610  1.0000
  C   C281      1.0  0.56490  0.75443  0.26347  1.0000
  S   S112      1.0  0.63099  0.69595  0.26121  1.0000
  C   C282      1.0  0.56420  0.80000  0.26487  1.0000
  C   C283      1.0  0.66932  0.69235  0.10733  1.0000
  H   H447      1.0  0.66965  0.69149  0.08249  1.0000
  Fe  Fe56      1.0  0.73509  0.72940  0.05222  1.0000
  C   C284      1.0  0.69436  0.70746  0.15573  1.0000
  C   C285      1.0  0.69524  0.70670  0.12340  1.0000
  H   H448      1.0  0.71425  0.71843  0.16841  1.0000
  S   S113      1.0  0.72920  0.72331  0.10422  1.0000
  H   H449      1.0  0.50692  0.86962  0.21044  1.0000
  S   S114      1.0  0.51378  0.92146  0.24517  1.0000
  Fe  Fe57      1.0  0.61287  0.92824  0.24250  1.0000
  S   S115      1.0  0.56889  0.89587  0.22634  1.0000
  H   H450      1.0  0.51538  0.84087  0.21303  1.0000
  Fe  Fe58      1.0  0.55074  0.91409  0.26135  1.0000
  Fe  Fe59      1.0  0.56906  0.86808  0.26520  1.0000
  H   H451      1.0  0.61449  0.92621  0.16520  1.0000
  H   H452      1.0  0.62216  0.92734  0.10866  1.0000
  C   C286      1.0  0.49766  0.84582  0.20877  1.0000
  H   H453      1.0  0.71327  0.87096  0.11636  1.0000
  C   C287      1.0  0.63587  0.93905  0.15562  1.0000
  H   H454      1.0  0.67487  0.88247  0.13246  1.0000
  H   H455      1.0  0.67240  0.87094  0.04758  1.0000
  H   H456      1.0  0.67960  0.90737  0.05212  1.0000
  H   H457      1.0  0.70795  0.90027  0.04061  1.0000
  C   C288      1.0  0.68865  0.89267  0.05573  1.0000
  H   H458      1.0  0.71073  0.93721  0.09435  1.0000
  C   C289      1.0  0.64029  0.93975  0.12354  1.0000
  H   H459      1.0  0.73839  0.92883  0.08388  1.0000
  C   C290      1.0  0.65900  0.95539  0.17509  1.0000
  C   C291      1.0  0.66785  0.95659  0.11055  1.0000
  N   N29       1.0  0.69608  0.89214  0.08831  1.0000
  S   S116      1.0  0.67199  0.95650  0.06995  1.0000
  C   C292      1.0  0.70738  0.87193  0.09205  1.0000
  C   C293      1.0  0.69109  0.97258  0.13005  1.0000
  C   C294      1.0  0.68663  0.97205  0.16213  1.0000
  C   C295      1.0  0.67007  0.88283  0.10764  1.0000
  C   C296      1.0  0.71829  0.92129  0.09767  1.0000
  S   S117      1.0  0.65443  0.95617  0.21558  1.0000
  Fe  Fe60      1.0  0.71325  0.97745  0.04097  1.0000
  H   H460      1.0  0.66114  0.89777  0.10502  1.0000
  H   H461      1.0  0.65280  0.86091  0.10125  1.0000
  H   H462      1.0  0.72708  0.87863  0.07766  1.0000
  H   H463      1.0  0.69133  0.84973  0.08491  1.0000
  H   H464      1.0  0.72400  0.92193  0.12231  1.0000
  H   H465      1.0  0.71239  0.98570  0.12040  1.0000
  H   H466      1.0  0.70468  0.98481  0.17696  1.0000
  H   H467      1.0  0.69740  0.97958  0.26715  1.0000
  H   H468      1.0  0.51388  0.55469  0.26627  1.0000
  S   S118      1.0  0.50264  0.60351  0.27281  1.0000
  Fe  Fe61      1.0  0.55144  0.63526  0.27233  1.0000
  H   H469      1.0  0.62984  0.65233  0.50561  1.0000
  S   S119      1.0  0.64787  0.65790  0.32511  1.0000
  Fe  Fe62      1.0  0.61367  0.65902  0.29474  1.0000
  H   H470      1.0  0.67471  0.64982  0.50796  1.0000
  S   S120      1.0  0.57697  0.66491  0.31139  1.0000
  H   H471      1.0  0.61318  0.66428  0.37377  1.0000
  Fe  Fe63      1.0  0.59335  0.70092  0.27665  1.0000
  C   C297      1.0  0.58980  0.76637  0.28137  1.0000
  C   C298      1.0  0.65507  0.66950  0.36392  1.0000
  C   C299      1.0  0.63431  0.67058  0.38284  1.0000
  H   H472      1.0  0.62420  0.67919  0.42844  1.0000
  C   C300      1.0  0.58922  0.81197  0.28256  1.0000
  S   S121      1.0  0.60632  0.74615  0.29307  1.0000
  C   C301      1.0  0.60187  0.79518  0.29086  1.0000
  H   H473      1.0  0.62110  0.80457  0.30471  1.0000
  N   N30       1.0  0.67450  0.75832  0.34941  1.0000
  C   C302      1.0  0.64059  0.67894  0.41387  1.0000
  C   C303      1.0  0.65902  0.77497  0.34931  1.0000
  C   C304      1.0  0.66792  0.68713  0.42608  1.0000
  H   H474      1.0  0.66854  0.79317  0.36578  1.0000
  H   H475      1.0  0.63586  0.76108  0.35546  1.0000
  H   H476      1.0  0.65947  0.78397  0.32603  1.0000
  C   C305      1.0  0.67370  0.74707  0.38067  1.0000
  H   H477      1.0  0.65117  0.73271  0.38855  1.0000
  C   C306      1.0  0.66050  0.73406  0.32773  1.0000
  H   H478      1.0  0.66021  0.74189  0.30408  1.0000
  H   H479      1.0  0.63771  0.71909  0.33440  1.0000
  H   H480      1.0  0.67178  0.72117  0.32660  1.0000
  H   H481      1.0  0.68420  0.76469  0.39776  1.0000
  S   S122      1.0  0.67469  0.69761  0.46523  1.0000
  C   C307      1.0  0.70474  0.77707  0.33977  1.0000
  H   H482      1.0  0.70603  0.78573  0.31614  1.0000
  H   H483      1.0  0.71607  0.79566  0.35560  1.0000
  H   H484      1.0  0.68506  0.73426  0.38138  1.0000
  H   H485      1.0  0.71686  0.76496  0.33955  1.0000
  H   H486      1.0  0.69846  0.67650  0.36183  1.0000
  C   C308      1.0  0.68231  0.67744  0.37622  1.0000
  Fe  Fe64      1.0  0.71889  0.72107  0.48783  1.0000
  C   C309      1.0  0.68885  0.68653  0.40703  1.0000
  H   H487      1.0  0.70991  0.69257  0.41614  1.0000
  H   H488      1.0  0.64442  0.98490  0.31771  1.0000
  H   H489      1.0  0.50148  0.83381  0.26820  1.0000
  S   S123      1.0  0.59512  0.94925  0.27436  1.0000
  Fe  Fe65      1.0  0.59468  0.91841  0.31003  1.0000
  S   S124      1.0  0.54894  0.88477  0.29939  1.0000
  S   S125      1.0  0.60757  0.93424  0.35917  1.0000
  H   H490      1.0  0.62914  0.95878  0.41835  1.0000
  H   H491      1.0  0.65925  0.93248  0.33963  1.0000
  H   H492      1.0  0.72212  0.92640  0.47233  1.0000
  S   S126      1.0  0.70988  0.96327  0.51225  1.0000
  C   C310      1.0  0.71677  0.90709  0.45824  1.0000
  H   H493      1.0  0.65591  0.84537  0.44007  1.0000
  H   H494      1.0  0.68678  0.86698  0.41616  1.0000
  C   C311      1.0  0.64112  0.94486  0.37698  1.0000
  C   C312      1.0  0.64607  0.95682  0.40662  1.0000
  S   S127      1.0  0.72907  0.97650  0.42313  1.0000
  H   H495      1.0  0.68021  0.89713  0.50522  1.0000
  H   H496      1.0  0.68675  0.86741  0.50158  1.0000
  H   H497      1.0  0.69432  0.97249  0.30783  1.0000
  N   N31       1.0  0.68546  0.88680  0.45866  1.0000
  C   C313      1.0  0.68495  0.97847  0.28827  1.0000
  H   H498      1.0  0.72489  0.91495  0.43455  1.0000
  C   C314      1.0  0.69503  0.96471  0.40596  1.0000
  C   C315      1.0  0.69003  0.95256  0.37637  1.0000
  H   H499      1.0  0.67634  0.97581  0.44394  1.0000
  C   C316      1.0  0.66308  0.94231  0.36211  1.0000
  H   H500      1.0  0.67510  0.92104  0.45791  1.0000
  H   H501      1.0  0.69061  0.84989  0.45012  1.0000
  H   H502      1.0  0.66263  0.96054  0.28477  1.0000
  C   C317      1.0  0.67560  0.87813  0.49071  1.0000
  Fe  Fe66      1.0  0.74052  0.98738  0.47376  1.0000
  C   C318      1.0  0.67938  0.86106  0.44042  1.0000
  H   H503      1.0  0.65204  0.86300  0.49201  1.0000
  S   S128      1.0  0.61459  0.89907  0.27911  1.0000
  H   H504      1.0  0.59867  0.83408  0.29007  1.0000
  H   H505      1.0  0.67661  0.90719  0.42085  1.0000
  C   C319      1.0  0.67016  0.90097  0.44525  1.0000
  H   H506      1.0  0.70700  0.95071  0.36461  1.0000
  H   H507      1.0  0.72916  0.89711  0.46781  1.0000
  C   C320      1.0  0.67282  0.96656  0.42115  1.0000
  H   H508      1.0  0.64640  0.88670  0.44582  1.0000
  C   C321      1.0  0.62309  0.64049  0.52798  1.0000
  N   N32       1.0  0.64833  0.64660  0.54702  1.0000
  C   C322      1.0  0.63866  0.63043  0.57633  1.0000
  H   H509      1.0  0.62668  0.60676  0.57246  1.0000
  H   H510      1.0  0.62440  0.63634  0.58958  1.0000
  H   H511      1.0  0.60875  0.64718  0.53979  1.0000
  H   H512      1.0  0.61015  0.61714  0.52264  1.0000
  H   H513      1.0  0.56487  0.49866  0.72976  1.0000
  H   H514      1.0  0.65722  0.63500  0.59143  1.0000
  C   C323      1.0  0.69614  0.63475  0.65187  1.0000
  C   C324      1.0  0.70556  0.63857  0.62107  1.0000
  S   S129      1.0  0.68005  0.59972  0.66831  1.0000
  S   S130      1.0  0.63839  0.58648  0.75045  1.0000
  Fe  Fe67      1.0  0.67445  0.58987  0.71990  1.0000
  S   S131      1.0  0.66985  0.54721  0.73566  1.0000
  S   S132      1.0  0.70929  0.61580  0.75369  1.0000
  H   H515      1.0  0.70410  0.62042  0.60842  1.0000
  H   H516      1.0  0.69124  0.65580  0.69182  1.0000
  C   C325      1.0  0.69846  0.65845  0.66813  1.0000
  H   H517      1.0  0.74122  0.55213  0.72959  1.0000
  H   H518      1.0  0.65527  0.61445  0.52469  1.0000
  C   C326      1.0  0.66693  0.63783  0.53014  1.0000
  H   H519      1.0  0.68621  0.64210  0.54383  1.0000
  H   H520      1.0  0.72936  0.81646  0.53241  1.0000
  H   H521      1.0  0.65174  0.68513  0.56698  1.0000
  C   C327      1.0  0.66472  0.67778  0.55351  1.0000
  H   H522      1.0  0.67174  0.69064  0.53189  1.0000
  C   C328      1.0  0.71694  0.66568  0.60655  1.0000
  H   H523      1.0  0.72448  0.66836  0.58301  1.0000
  H   H524      1.0  0.68438  0.68331  0.56702  1.0000
  C   C329      1.0  0.71855  0.68918  0.62256  1.0000
  C   C330      1.0  0.70947  0.68547  0.65346  1.0000
  H   H525      1.0  0.71071  0.70351  0.66612  1.0000
  S   S133      1.0  0.73080  0.72319  0.60452  1.0000
  Fe  Fe68      1.0  0.74248  0.73139  0.55369  1.0000
  S   S134      1.0  0.72124  0.75111  0.52561  1.0000
  S   S135      1.0  0.73690  0.69912  0.51757  1.0000
  H   H526      1.0  0.58747  0.97306  0.65780  1.0000
  H   H527      1.0  0.59349  0.95479  0.72269  1.0000
  H   H528      1.0  0.55831  0.95344  0.68444  1.0000
  C   C331      1.0  0.57482  0.97543  0.67696  1.0000
  H   H529      1.0  0.62285  0.97520  0.69637  1.0000
  C   C332      1.0  0.60883  0.97689  0.71443  1.0000
  H   H530      1.0  0.55990  0.97318  0.73680  1.0000
  H   H531      1.0  0.62320  0.98880  0.73398  1.0000
  H   H532      1.0  0.56334  0.98642  0.66751  1.0000
  N   N33       1.0  0.59369  0.99190  0.70270  1.0000
  C   C333      1.0  0.57619  0.99457  0.72767  1.0000
  C   C334      1.0  0.74100  0.83921  0.52710  1.0000
  H   H533      1.0  0.71032  0.84826  0.55014  1.0000
  C   C335      1.0  0.73020  0.85730  0.53707  1.0000
  S   S136      1.0  0.73063  0.90880  0.54390  1.0000
  H   H534      1.0  0.71061  0.98980  0.61480  1.0000
  H   H535      1.0  0.70015  0.98918  0.67070  1.0000
  S   S137      1.0  0.73926  0.56990  0.79284  1.0000
  Fe  Fe69      1.0  0.63593  0.54534  0.76835  1.0000
  S   S138      1.0  0.59786  0.50263  0.78561  1.0000
  H   H536      1.0  0.72828  0.63955  0.83233  1.0000
  H   H537      1.0  0.71661  0.57884  0.84860  1.0000
  H   H538      1.0  0.71847  0.58383  0.88945  1.0000
  H   H539      1.0  0.70060  0.59805  0.86613  1.0000
  Fe  Fe70      1.0  0.70220  0.57336  0.77164  1.0000
  H   H540      1.0  0.66188  0.61733  0.92080  1.0000
  H   H541      1.0  0.65646  0.61004  0.86424  1.0000
  S   S139      1.0  0.66841  0.56890  0.80571  1.0000
  Fe  Fe71      1.0  0.67341  0.60974  0.78568  1.0000
  S   S140      1.0  0.68302  0.65016  0.81293  1.0000
  C   C336      1.0  0.67473  0.63513  0.90544  1.0000
  C   C337      1.0  0.67166  0.63091  0.87340  1.0000
  C   C338      1.0  0.71945  0.59444  0.86710  1.0000
  C   C339      1.0  0.68747  0.65393  0.85331  1.0000
  H   H542      1.0  0.73191  0.64611  0.88906  1.0000
  N   N34       1.0  0.66359  0.72582  0.92614  1.0000
  C   C340      1.0  0.65835  0.74648  0.90846  1.0000
  H   H543      1.0  0.66625  0.74853  0.88432  1.0000
  C   C341      1.0  0.65309  0.72395  0.95806  1.0000
  C   C342      1.0  0.64840  0.69706  0.91167  1.0000
  H   H544      1.0  0.65182  0.68101  0.92480  1.0000
  H   H545      1.0  0.65632  0.69749  0.88779  1.0000
  H   H546      1.0  0.62480  0.68882  0.91062  1.0000
  H   H547      1.0  0.63502  0.73966  0.90767  1.0000
  H   H548      1.0  0.66972  0.76836  0.91896  1.0000
  H   H549      1.0  0.65593  0.70781  0.97170  1.0000
  H   H550      1.0  0.66512  0.74504  0.97011  1.0000
  H   H551      1.0  0.62982  0.71741  0.95877  1.0000
  S   S141      1.0  0.72351  0.80010  0.98265  1.0000
  C   C343      1.0  0.69476  0.73587  0.92650  1.0000
  Fe  Fe72      1.0  0.73854  0.76898  0.99917  1.0000
  H   H552      1.0  0.72617  0.70570  0.90667  1.0000
  H   H553      1.0  0.71930  0.69887  0.85017  1.0000
  C   C344      1.0  0.71054  0.68501  0.89762  1.0000
  H   H554      1.0  0.69942  0.72113  0.94037  1.0000
  H   H555      1.0  0.70707  0.75771  0.93673  1.0000
  H   H556      1.0  0.70345  0.73703  0.90290  1.0000
  S   S142      1.0  0.69622  0.66647  0.95823  1.0000
  Fe  Fe73      1.0  0.72439  0.70712  0.98566  1.0000
  C   C345      1.0  0.69402  0.66221  0.91774  1.0000
  C   C346      1.0  0.70685  0.68100  0.86559  1.0000
  S   S143      1.0  0.70358  0.72597  0.01626  1.0000
  C   C347      1.0  0.73645  0.88149  0.99524  1.0000
  S   S144      1.0  0.72712  0.99258  0.92207  1.0000
  Fe  Fe74      1.0  0.73462  0.98970  0.97337  1.0000
  H   H557      1.0  0.70941  0.84429  0.96765  1.0000
  S   S145      1.0  0.71337  0.94928  0.00229  1.0000
  C   C348      1.0  0.72600  0.85297  0.98496  1.0000
  H   H558      1.0  0.72794  0.89454  0.98578  1.0000
  C   C349      1.0  0.73710  0.83577  0.99663  1.0000
  H   H559      1.0  0.74454  0.62125  0.81387  1.0000
  C   C350      1.0  0.84427  0.09096  0.02780  1.0000
  Fe  Fe75      1.0  0.77463  0.02532  0.02449  1.0000
  S   S146      1.0  0.80620  0.07331  0.02942  1.0000
  C   C351      1.0  0.85974  0.07646  0.03303  1.0000
  H   H560      1.0  0.88109  0.15314  0.10307  1.0000
  C   C352      1.0  0.85939  0.12067  0.02151  1.0000
  C   C353      1.0  0.88968  0.13583  0.02064  1.0000
  H   H561      1.0  0.84835  0.05358  0.03786  1.0000
  C   C354      1.0  0.90263  0.15771  0.09450  1.0000
  H   H562      1.0  0.89846  0.15424  0.15612  1.0000
  H   H563      1.0  0.84760  0.13203  0.01727  1.0000
  H   H564      1.0  0.90146  0.13669  0.08928  1.0000
  C   C355      1.0  0.89009  0.09185  0.03318  1.0000
  H   H565      1.0  0.90191  0.08066  0.03827  1.0000
  C   C356      1.0  0.90520  0.12166  0.02734  1.0000
  S   S147      1.0  0.94317  0.14074  0.03115  1.0000
  C   C357      1.0  0.91940  0.15837  0.14609  1.0000
  H   H566      1.0  0.91827  0.13712  0.14260  1.0000
  H   H567      1.0  0.95341  0.15883  0.09979  1.0000
  H   H568      1.0  0.90666  0.16957  0.07234  1.0000
  H   H569      1.0  0.90621  0.19975  0.13154  1.0000
  H   H570      1.0  0.93165  0.21522  0.10047  1.0000
  C   C358      1.0  0.92688  0.20252  0.12221  1.0000
  H   H571      1.0  0.94429  0.21603  0.13861  1.0000
  H   H572      1.0  0.95850  0.19123  0.08219  1.0000
  H   H573      1.0  0.93646  0.17048  0.16335  1.0000
  N   N35       1.0  0.92559  0.17451  0.11684  1.0000
  H   H574      1.0  0.97159  0.19268  0.12016  1.0000
  C   C359      1.0  0.95350  0.17945  0.10438  1.0000
  S   S148      1.0  0.95395  0.21957  0.02815  1.0000
  Fe  Fe76      1.0  0.97051  0.18873  0.02131  1.0000
  S   S149      1.0  0.99281  0.26045  0.10151  1.0000
  C   C360      1.0  0.86720  0.12905  0.49065  1.0000
  H   H575      1.0  0.85865  0.13959  0.47622  1.0000
  H   H576      1.0  0.82797  0.08782  0.48964  1.0000
  C   C361      1.0  0.84972  0.09969  0.49825  1.0000
  C   C362      1.0  0.89562  0.14481  0.50147  1.0000
  S   S150      1.0  0.76009  0.03005  0.49859  1.0000
  C   C363      1.0  0.86056  0.08572  0.51670  1.0000
  H   H577      1.0  0.91406  0.20003  0.37898  1.0000
  H   H578      1.0  0.93099  0.22301  0.43041  1.0000
  S   S151      1.0  0.91684  0.18160  0.49066  1.0000
  S   S152      1.0  0.97481  0.26000  0.49984  1.0000
  N   N36       1.0  0.95409  0.20946  0.39996  1.0000
  H   H579      1.0  0.98589  0.20454  0.37389  1.0000
  H   H580      1.0  0.95426  0.18199  0.43618  1.0000
  C   C364      1.0  0.94205  0.18096  0.41509  1.0000
  H   H581      1.0  0.96681  0.23319  0.44195  1.0000
  H   H582      1.0  0.91932  0.17284  0.42260  1.0000
  H   H583      1.0  0.96156  0.25197  0.41092  1.0000
  H   H584      1.0  0.94553  0.22840  0.36061  1.0000
  H   H585      1.0  0.93688  0.19150  0.35574  1.0000
  C   C365      1.0  0.93686  0.20722  0.37256  1.0000
  C   C366      1.0  0.95321  0.23033  0.42166  1.0000
  Fe  Fe77      1.0  0.96246  0.21316  0.50638  1.0000
  C   C367      1.0  0.98426  0.21946  0.39060  1.0000
  H   H586      1.0  0.94254  0.16462  0.39959  1.0000
  H   H587      1.0  0.99021  0.33626  0.38084  1.0000
  H   H588      1.0  0.98906  0.43062  0.34663  1.0000
  H   H589      1.0  0.99427  0.24129  0.37988  1.0000
  H   H590      1.0  0.80199  0.07062  0.55256  1.0000
  H   H591      1.0  0.76189  0.07971  0.56065  1.0000
  N   N37       1.0  0.79482  0.08837  0.59392  1.0000
  C   C368      1.0  0.77900  0.06008  0.60944  1.0000
  C   C369      1.0  0.81423  0.08722  0.57025  1.0000
  C   C370      1.0  0.81188  0.11070  0.61681  1.0000
  C   C371      1.0  0.77412  0.09541  0.57911  1.0000
  H   H592      1.0  0.76424  0.06013  0.62766  1.0000
  H   H593      1.0  0.79390  0.05370  0.62029  1.0000
  H   H594      1.0  0.76554  0.04289  0.59287  1.0000
  H   H595      1.0  0.83001  0.08159  0.58034  1.0000
  H   H596      1.0  0.82760  0.10590  0.62848  1.0000
  H   H597      1.0  0.79776  0.11220  0.63487  1.0000
  H   H598      1.0  0.78518  0.11714  0.56828  1.0000
  H   H599      1.0  0.75798  0.09478  0.59594  1.0000
  H   H600      1.0  0.82429  0.13231  0.60583  1.0000
  H   H601      1.0  0.82670  0.10819  0.55804  1.0000
  S   S153      1.0  0.83950  0.04886  0.52729  1.0000
  Fe  Fe78      1.0  0.79189  0.01823  0.51789  1.0000
  C   C372      1.0  0.88893  0.10152  0.52760  1.0000
  H   H602      1.0  0.89752  0.09092  0.54189  1.0000
  H   H603      1.0  0.92818  0.14269  0.52856  1.0000
  C   C373      1.0  0.90637  0.13090  0.52009  1.0000
  H   H604      1.0  0.80965  0.32493  0.73642  1.0000
  C   C374      1.0  0.94293  0.28434  0.66215  1.0000
  C   C375      1.0  0.93466  0.26508  0.63731  1.0000
  H   H605      1.0  0.91297  0.24706  0.63654  1.0000
  C   C376      1.0  0.79313  0.21015  0.73811  1.0000
  H   H606      1.0  0.79950  0.20489  0.71644  1.0000
  Fe  Fe79      1.0  0.91886  0.30320  0.73475  1.0000
  S   S154      1.0  0.88328  0.31405  0.73812  1.0000
  S   S155      1.0  0.91670  0.27926  0.69043  1.0000
  C   C377      1.0  0.97102  0.30760  0.66281  1.0000
  C   C378      1.0  0.95409  0.26896  0.61328  1.0000
  H   H607      1.0  0.97780  0.32248  0.68188  1.0000
  H   H608      1.0  0.94734  0.25400  0.59427  1.0000
  C   C379      1.0  0.76504  0.19278  0.74935  1.0000
  H   H609      1.0  0.83492  0.24701  0.74622  1.0000
  H   H610      1.0  0.92966  0.32217  0.63095  1.0000
  C   C380      1.0  0.81320  0.23405  0.75492  1.0000
  H   H611      1.0  0.89251  0.31678  0.66805  1.0000
  H   H612      1.0  0.82683  0.31011  0.75982  1.0000
  C   C381      1.0  0.98199  0.29244  0.61365  1.0000
  S   S156      1.0  0.98416  0.22056  0.55240  1.0000
  C   C382      1.0  0.99037  0.31170  0.63855  1.0000
  H   H613      1.0  0.80819  0.36868  0.75379  1.0000
  H   H614      1.0  0.90083  0.47987  0.72780  1.0000
  H   H615      1.0  0.84660  0.38732  0.75867  1.0000
  C   C383      1.0  0.82736  0.33055  0.75309  1.0000
  H   H616      1.0  0.95561  0.35700  0.61680  1.0000
  H   H617      1.0  0.91885  0.34050  0.60409  1.0000
  C   C384      1.0  0.93278  0.34372  0.62432  1.0000
  H   H618      1.0  0.95150  0.40027  0.63270  1.0000
  H   H619      1.0  0.91444  0.38275  0.62100  1.0000
  C   C385      1.0  0.92905  0.38529  0.64037  1.0000
  H   H620      1.0  0.96825  0.37563  0.66929  1.0000
  H   H621      1.0  0.92399  0.39597  0.65964  1.0000
  H   H622      1.0  0.94285  0.34101  0.68448  1.0000
  H   H623      1.0  0.94082  0.37237  0.69580  1.0000
  H   H624      1.0  0.88021  0.33400  0.64129  1.0000
  H   H625      1.0  0.88968  0.34767  0.67979  1.0000
  S   S157      1.0  0.95190  0.34668  0.75232  1.0000
  C   C386      1.0  0.89567  0.33810  0.66024  1.0000
  N   N38       1.0  0.92571  0.35724  0.65018  1.0000
  C   C387      1.0  0.94530  0.36180  0.67605  1.0000
  S   S158      1.0  0.90752  0.39107  0.73626  1.0000
  C   C388      1.0  0.90354  0.44071  0.73248  1.0000
  C   C389      1.0  0.90986  0.46888  0.74073  1.0000
  H   H626      1.0  0.88960  0.43034  0.71314  1.0000
  C   C390      1.0  0.91537  0.42612  0.74871  1.0000
  Fe  Fe80      1.0  0.91534  0.35641  0.75868  1.0000
  C   C391      1.0  0.92850  0.48304  0.76514  1.0000
  H   H627      1.0  0.84806  0.34414  0.74077  1.0000
  N   N39       1.0  0.77590  0.14853  0.83273  1.0000
  H   H628      1.0  0.80715  0.15497  0.79753  1.0000
  H   H629      1.0  0.79832  0.09084  0.96664  1.0000
  H   H630      1.0  0.79034  0.02617  0.92586  1.0000
  H   H631      1.0  0.77175  0.07198  0.93747  1.0000
  H   H632      1.0  0.80672  0.09785  0.89590  1.0000
  H   H633      1.0  0.83321  0.11811  0.92457  1.0000
  C   C392      1.0  0.82377  0.09799  0.91068  1.0000
  H   H634      1.0  0.84109  0.09907  0.89538  1.0000
  H   H635      1.0  0.77938  0.05239  0.96574  1.0000
  C   C393      1.0  0.79926  0.04603  0.91149  1.0000
  C   C394      1.0  0.78940  0.07195  0.95093  1.0000
  H   H636      1.0  0.84624  0.09331  0.96320  1.0000
  H   H637      1.0  0.78110  0.04432  0.89741  1.0000
  N   N40       1.0  0.81192  0.07223  0.93070  1.0000
  H   H638      1.0  0.82685  0.05498  0.96652  1.0000
  C   C395      1.0  0.83526  0.07307  0.94967  1.0000
  C   C396      1.0  0.78805  0.15779  0.80145  1.0000
  H   H639      1.0  0.81544  0.04554  0.89562  1.0000
  S   S159      1.0  0.77921  0.99916  0.98673  1.0000
  C   C397      1.0  0.76928  0.11847  0.83799  1.0000
  H   H640      1.0  0.78877  0.11609  0.83564  1.0000
  H   H641      1.0  0.75984  0.11071  0.86130  1.0000
  H   H642      1.0  0.75310  0.10357  0.82125  1.0000
  H   H643      1.0  0.77196  0.14539  0.78337  1.0000
  C   C398      1.0  0.74920  0.15034  0.83589  1.0000
  H   H644      1.0  0.85191  0.07172  0.93536  1.0000
  H   H645      1.0  0.78853  0.16128  0.87951  1.0000
  H   H646      1.0  0.90101  0.15867  0.01566  1.0000
  C   C399      1.0  0.75685  0.19986  0.77721  1.0000
  H   H647      1.0  0.77815  0.32131  0.78016  1.0000
  H   H648      1.0  0.77044  0.22951  0.81537  1.0000
  H   H649      1.0  0.79526  0.30616  0.80330  1.0000
  C   C400      1.0  0.79662  0.32683  0.79574  1.0000
  H   H650      1.0  0.79514  0.18094  0.79751  1.0000
  C   C401      1.0  0.77686  0.22403  0.79388  1.0000
  H   H651      1.0  0.80246  0.19043  0.85223  1.0000
  C   C402      1.0  0.79706  0.16756  0.85565  1.0000
  H   H652      1.0  0.81755  0.16688  0.85388  1.0000
  C   C403      1.0  0.80513  0.24104  0.78287  1.0000
  Fe  Fe81      1.0  0.87540  0.29599  0.78557  1.0000
  S   S160      1.0  0.90829  0.28141  0.78127  1.0000
  S   S161      1.0  0.82995  0.27079  0.80450  1.0000
  H   H653      1.0  0.91836  0.24101  0.89147  1.0000
  C   C404      1.0  0.96581  0.30892  0.86698  1.0000
  H   H654      1.0  0.92598  0.27523  0.84900  1.0000
  C   C405      1.0  0.94148  0.28154  0.86737  1.0000
  C   C406      1.0  0.93723  0.26215  0.89150  1.0000
  C   C407      1.0  0.95717  0.26982  0.91554  1.0000
  C   C408      1.0  0.98564  0.31676  0.89122  1.0000
  Fe  Fe82      1.0  0.93910  0.32546  0.79945  1.0000
  H   H655      1.0  0.75347  0.17285  0.83349  1.0000
  S   S162      1.0  0.95056  0.24412  0.94498  1.0000
  C   C409      1.0  0.98130  0.29736  0.91548  1.0000
  S   S163      1.0  0.99128  0.20745  0.97578  1.0000
  Fe  Fe83      1.0  0.97710  0.24034  0.98390  1.0000
  H   H656      1.0  0.79372  0.33733  0.81653  1.0000
  H   H657      1.0  0.82356  0.38475  0.79017  1.0000
  C   C410      1.0  0.82566  0.37276  0.77028  1.0000
  N   N41       1.0  0.82441  0.34562  0.78022  1.0000
  C   C411      1.0  0.93344  0.43999  0.77357  1.0000
  H   H658      1.0  0.86951  0.36610  0.79074  1.0000
  H   H659      1.0  0.84767  0.33223  0.81003  1.0000
  H   H660      1.0  0.84684  0.36389  0.82245  1.0000
  C   C412      1.0  0.84815  0.35226  0.80181  1.0000
  C   C413      1.0  0.94010  0.46831  0.78154  1.0000
  H   H661      1.0  0.95463  0.47899  0.80037  1.0000
  H   H662      1.0  0.94286  0.42921  0.78625  1.0000
  S   S164      1.0  0.90536  0.33873  0.80692  1.0000
  S   S165      1.0  0.97248  0.33360  0.83638  1.0000
  H   H663      1.0  0.96059  0.56046  0.16227  1.0000
  H   H664      1.0  0.96028  0.59497  0.20041  1.0000
  H   H665      1.0  0.97081  0.55608  0.21727  1.0000
  C   C414      1.0  0.98397  0.57560  0.15876  1.0000
  H   H666      1.0  0.98613  0.59060  0.13975  1.0000
  H   H667      1.0  0.99419  0.56282  0.15084  1.0000
  C   C415      1.0  0.98384  0.60871  0.19663  1.0000
  H   H668      1.0  0.98719  0.62528  0.17897  1.0000
  H   H669      1.0  0.99323  0.62058  0.21841  1.0000
  C   C416      1.0  0.99390  0.57094  0.21199  1.0000
  S   S166      1.0  0.76891  0.77377  0.03706  1.0000
  S   S167      1.0  0.75310  0.70666  0.02332  1.0000
  H   H670      1.0  0.79197  0.77220  0.10507  1.0000
  H   H671      1.0  0.81932  0.71143  0.02385  1.0000
  H   H672      1.0  0.79475  0.73740  0.14128  1.0000
  H   H673      1.0  0.81945  0.78952  0.07614  1.0000
  H   H674      1.0  0.82808  0.79813  0.11594  1.0000
  C   C417      1.0  0.81521  0.78024  0.09981  1.0000
  H   H675      1.0  0.80638  0.74109  0.05734  1.0000
  H   H676      1.0  0.85720  0.77669  0.06941  1.0000
  H   H677      1.0  0.85915  0.75087  0.09420  1.0000
  H   H678      1.0  0.80942  0.71556  0.08181  1.0000
  H   H679      1.0  0.82273  0.72810  0.13674  1.0000
  H   H680      1.0  0.83130  0.76319  0.15068  1.0000
  C   C418      1.0  0.81768  0.74594  0.13420  1.0000
  H   H681      1.0  0.78086  0.72371  0.08784  1.0000
  H   H682      1.0  0.86778  0.78582  0.10876  1.0000
  C   C419      1.0  0.85302  0.76807  0.09339  1.0000
  C   C420      1.0  0.80399  0.73324  0.08142  1.0000
  N   N42       1.0  0.82253  0.75690  0.10226  1.0000
  S   S168      1.0  0.91189  0.71442  0.03994  1.0000
  H   H683      1.0  0.85073  0.69162  0.04040  1.0000
  C   C421      1.0  0.86028  0.71304  0.03056  1.0000
  C   C422      1.0  0.89036  0.72922  0.02708  1.0000
  C   C423      1.0  0.84243  0.72429  0.02139  1.0000
  Fe  Fe84      1.0  0.95874  0.73036  0.02624  1.0000
  C   C424      1.0  0.75863  0.84733  0.01893  1.0000
  S   S169      1.0  0.75696  0.98852  0.05851  1.0000
  H   H684      1.0  0.78591  0.88461  0.04625  1.0000
  S   S170      1.0  0.77204  0.92876  0.03144  1.0000
  C   C425      1.0  0.76909  0.87583  0.02919  1.0000
  H   H685      1.0  0.76741  0.83441  0.02809  1.0000
  Fe  Fe85      1.0  0.75746  0.96123  0.01900  1.0000
  C   C426      1.0  0.75818  0.89311  0.01734  1.0000
  Fe  Fe86      1.0  0.76520  0.78133  0.50728  1.0000
  S   S171      1.0  0.76189  0.75267  0.46746  1.0000
  H   H686      1.0  0.90436  0.71924  0.50250  1.0000
  Fe  Fe87      1.0  0.78056  0.73317  0.50019  1.0000
  C   C427      1.0  0.89332  0.73163  0.50373  1.0000
  H   H687      1.0  0.92599  0.72422  0.36896  1.0000
  H   H688      1.0  0.94878  0.76223  0.37523  1.0000
  H   H689      1.0  0.90989  0.76258  0.40694  1.0000
  H   H690      1.0  0.95851  0.78150  0.42878  1.0000
  H   H691      1.0  0.91345  0.70506  0.45197  1.0000
  H   H692      1.0  0.94484  0.75691  0.46052  1.0000
  C   C428      1.0  0.90469  0.74102  0.41603  1.0000
  H   H693      1.0  0.89574  0.73930  0.43962  1.0000
  C   C429      1.0  0.95252  0.75930  0.43632  1.0000
  C   C430      1.0  0.86385  0.71879  0.49629  1.0000
  C   C431      1.0  0.84896  0.73444  0.49842  1.0000
  S   S172      1.0  0.81236  0.71786  0.48694  1.0000
  N   N43       1.0  0.93040  0.73725  0.41631  1.0000
  C   C432      1.0  0.92243  0.70827  0.42822  1.0000
  H   H694      1.0  0.88724  0.72441  0.40167  1.0000
  H   H695      1.0  0.90594  0.69103  0.41358  1.0000
  C   C433      1.0  0.94211  0.74045  0.38477  1.0000
  H   H696      1.0  0.85245  0.69655  0.48899  1.0000
  C   C434      1.0  0.86385  0.76308  0.50820  1.0000
  H   H697      1.0  0.85273  0.77542  0.50981  1.0000
  C   C435      1.0  0.90837  0.76051  0.51271  1.0000
  C   C436      1.0  0.89343  0.77606  0.51510  1.0000
  H   H698      1.0  0.97250  0.75759  0.43633  1.0000
  H   H699      1.0  0.96145  0.73751  0.38437  1.0000
  H   H700      1.0  0.94149  0.70491  0.42903  1.0000
  S   S173      1.0  0.96343  0.71525  0.49790  1.0000
  Fe  Fe88      1.0  0.97592  0.75936  0.51553  1.0000
  H   H701      1.0  0.78229  0.92118  0.50821  1.0000
  S   S174      1.0  0.78331  0.82972  0.50058  1.0000
  S   S175      1.0  0.77510  0.97768  0.48974  1.0000
  H   H702      1.0  0.80187  0.88957  0.49139  1.0000
  C   C437      1.0  0.76703  0.85076  0.51076  1.0000
  C   C438      1.0  0.77061  0.89838  0.51343  1.0000
  C   C439      1.0  0.78164  0.88037  0.50387  1.0000
  S   S176      1.0  0.83126  0.54819  0.72187  1.0000
  C   C440      1.0  0.80587  0.55466  0.74140  1.0000
  C   C441      1.0  0.78091  0.55040  0.72618  1.0000
  C   C442      1.0  0.76053  0.55566  0.74134  1.0000
  H   H703      1.0  0.77722  0.54288  0.70267  1.0000
  C   C443      1.0  0.87837  0.60320  0.66939  1.0000
  N   N44       1.0  0.86952  0.62544  0.67179  1.0000
  H   H704      1.0  0.85276  0.61276  0.71772  1.0000
  C   C444      1.0  0.84598  0.61626  0.69465  1.0000
  H   H705      1.0  0.85998  0.58190  0.66291  1.0000
  H   H706      1.0  0.84069  0.60890  0.63346  1.0000
  H   H707      1.0  0.82691  0.59553  0.68796  1.0000
  C   C445      1.0  0.89435  0.65292  0.68159  1.0000
  C   C446      1.0  0.85941  0.62932  0.64149  1.0000
  H   H708      1.0  0.85253  0.64595  0.64244  1.0000
  H   H709      1.0  0.83870  0.63247  0.69725  1.0000
  H   H710      1.0  0.87668  0.63623  0.62368  1.0000
  H   H711      1.0  0.90317  0.65050  0.70390  1.0000
  H   H712      1.0  0.91219  0.66075  0.66444  1.0000
  H   H713      1.0  0.88655  0.60011  0.69173  1.0000
  H   H714      1.0  0.89583  0.60917  0.65204  1.0000
  Fe  Fe89      1.0  0.93535  0.60970  0.73501  1.0000
  S   S177      1.0  0.91036  0.56421  0.71759  1.0000
  S   S178      1.0  0.96129  0.65166  0.70831  1.0000
  Fe  Fe90      1.0  0.87402  0.56338  0.74529  1.0000
  H   H715      1.0  0.95113  0.61242  0.65681  1.0000
  C   C447      1.0  0.95768  0.63368  0.64773  1.0000
  C   C448      1.0  0.96128  0.63877  0.61576  1.0000
  H   H716      1.0  0.95741  0.62127  0.60040  1.0000
  C   C449      1.0  0.96358  0.65634  0.66784  1.0000
  Fe  Fe91      1.0  0.92225  0.55028  0.76191  1.0000
  S   S179      1.0  0.89844  0.60917  0.76093  1.0000
  S   S180      1.0  0.78714  0.76413  0.53832  1.0000
  H   H717      1.0  0.81453  0.80587  0.59145  1.0000
  H   H718      1.0  0.77268  0.82744  0.64320  1.0000
  H   H719      1.0  0.78849  0.80461  0.63942  1.0000
  N   N45       1.0  0.79113  0.82876  0.59875  1.0000
  H   H720      1.0  0.76113  0.78379  0.59245  1.0000
  C   C450      1.0  0.81574  0.82679  0.58556  1.0000
  H   H721      1.0  0.81623  0.82850  0.55995  1.0000
  C   C451      1.0  0.76401  0.80532  0.58628  1.0000
  H   H722      1.0  0.76370  0.80643  0.56080  1.0000
  C   C452      1.0  0.79091  0.82586  0.63258  1.0000
  H   H723      1.0  0.74490  0.80631  0.59518  1.0000
  H   H724      1.0  0.88836  0.67006  0.68445  1.0000
  S   S181      1.0  0.94593  0.77833  0.52018  1.0000
  H   H725      1.0  0.90485  0.79838  0.52213  1.0000
  C   C453      1.0  0.97035  0.66638  0.60356  1.0000
  S   S182      1.0  0.97634  0.67200  0.56336  1.0000
  C   C454      1.0  0.97224  0.68387  0.65563  1.0000
  C   C455      1.0  0.97519  0.68879  0.62362  1.0000
  H   H726      1.0  0.98146  0.70993  0.61447  1.0000
  H   H727      1.0  0.97657  0.70146  0.67104  1.0000
  Fe  Fe92      1.0  0.99070  0.71368  0.53653  1.0000
  H   H728      1.0  0.81121  0.84293  0.64286  1.0000
  C   C456      1.0  0.79381  0.85690  0.59051  1.0000
  S   S183      1.0  0.76466  0.99466  0.55924  1.0000
  H   H729      1.0  0.81341  0.87508  0.60066  1.0000
  H   H730      1.0  0.79551  0.86025  0.56515  1.0000
  H   H731      1.0  0.77482  0.85863  0.59847  1.0000
  C   C457      1.0  0.74498  0.88697  0.53039  1.0000
  Fe  Fe93      1.0  0.74522  0.95513  0.52916  1.0000
  H   H732      1.0  0.83664  0.84433  0.59413  1.0000
  H   H733      1.0  0.77023  0.66231  0.88656  1.0000
  H   H734      1.0  0.77183  0.60538  0.88557  1.0000
  H   H735      1.0  0.76927  0.60084  0.84471  1.0000
  C   C458      1.0  0.76482  0.56469  0.77199  1.0000
  C   C459      1.0  0.81045  0.56433  0.77178  1.0000
  C   C460      1.0  0.78985  0.56903  0.78709  1.0000
  H   H736      1.0  0.79325  0.57585  0.81084  1.0000
  H   H737      1.0  0.82959  0.56763  0.78371  1.0000
  H   H738      1.0  0.79210  0.63578  0.86044  1.0000
  C   C461      1.0  0.77114  0.61574  0.86361  1.0000
  H   H739      1.0  0.76673  0.65616  0.83008  1.0000
  C   C462      1.0  0.74999  0.64136  0.88876  1.0000
  H   H740      1.0  0.74998  0.63181  0.91153  1.0000
  N   N46       1.0  0.74683  0.62171  0.86328  1.0000
  C   C463      1.0  0.74667  0.63531  0.83367  1.0000
  Fe  Fe94      1.0  0.99407  0.72874  0.97216  1.0000
  S   S184      1.0  0.93889  0.51929  0.77552  1.0000
  H   H741      1.0  0.95633  0.65800  0.82973  1.0000
  C   C464      1.0  0.95474  0.65900  0.85447  1.0000
  C   C465      1.0  0.97277  0.59476  0.86518  1.0000
  H   H742      1.0  0.96978  0.60468  0.84395  1.0000
  H   H743      1.0  0.96153  0.52862  0.88639  1.0000
  C   C466      1.0  0.96779  0.55172  0.88930  1.0000
  H   H744      1.0  0.95414  0.55304  0.90803  1.0000
  S   S185      1.0  0.95106  0.59646  0.77679  1.0000
  H   H745      1.0  0.92656  0.52499  0.84663  1.0000
  H   H746      1.0  0.91923  0.54963  0.86843  1.0000
  H   H747      1.0  0.93040  0.55698  0.82918  1.0000
  Fe  Fe95      1.0  0.91212  0.59245  0.80116  1.0000
  S   S186      1.0  0.88375  0.54604  0.78787  1.0000
  S   S187      1.0  0.91142  0.60186  0.85223  1.0000
  H   H748      1.0  0.95945  0.59725  0.88348  1.0000
  C   C467      1.0  0.93460  0.63477  0.87079  1.0000
  C   C468      1.0  0.93287  0.63644  0.90295  1.0000
  N   N47       1.0  0.96423  0.56414  0.86036  1.0000
  H   H749      1.0  0.91744  0.61775  0.91577  1.0000
  C   C469      1.0  0.93376  0.54814  0.85090  1.0000
  C   C470      1.0  0.98252  0.56185  0.83605  1.0000
  H   H750      1.0  0.97637  0.53897  0.83150  1.0000
  H   H751      1.0  0.98019  0.57088  0.81383  1.0000
  H   H752      1.0  0.99053  0.56333  0.89720  1.0000
  S   S188      1.0  0.75745  0.74978  0.96630  1.0000
  Fe  Fe96      1.0  0.78501  0.75072  0.00598  1.0000
  C   C471      1.0  0.90244  0.75674  0.01404  1.0000
  H   H753      1.0  0.92557  0.76953  0.01144  1.0000
  C   C472      1.0  0.88462  0.76819  0.00537  1.0000
  H   H754      1.0  0.90242  0.67850  0.95516  1.0000
  C   C473      1.0  0.88132  0.71234  0.93529  1.0000
  H   H755      1.0  0.92681  0.75866  0.90998  1.0000
  H   H756      1.0  0.93186  0.75779  0.95070  1.0000
  C   C474      1.0  0.93160  0.74724  0.92849  1.0000
  S   S189      1.0  0.83346  0.76851  0.99996  1.0000
  H   H757      1.0  0.89600  0.67944  0.89940  1.0000
  H   H758      1.0  0.86476  0.68914  0.93600  1.0000
  H   H759      1.0  0.91782  0.71133  0.97671  1.0000
  H   H760      1.0  0.90416  0.71260  0.88019  1.0000
  H   H761      1.0  0.87500  0.72306  0.91737  1.0000
  H   H762      1.0  0.88043  0.72178  0.95788  1.0000
  C   C475      1.0  0.91782  0.70201  0.95388  1.0000
  C   C476      1.0  0.91067  0.70317  0.89928  1.0000
  N   N48       1.0  0.91031  0.71618  0.92920  1.0000
  H   H763      1.0  0.89424  0.78980  0.99603  1.0000
  C   C477      1.0  0.85457  0.75219  0.00930  1.0000
  S   S190      1.0  0.99274  0.71994  0.92069  1.0000
  C   C478      1.0  0.97270  0.68474  0.87020  1.0000
  H   H764      1.0  0.93263  0.70684  0.89363  1.0000
  H   H765      1.0  0.98800  0.70351  0.85734  1.0000
  C   C479      1.0  0.95101  0.66211  0.91870  1.0000
  H   H766      1.0  0.94951  0.66302  0.94345  1.0000
  S   S191      1.0  0.98215  0.76183  0.98814  1.0000
  S   S192      1.0  0.96915  0.69644  0.00906  1.0000
  H   H767      1.0  0.93965  0.70473  0.95026  1.0000
  C   C480      1.0  0.97093  0.68647  0.90235  1.0000
  H   H768      1.0  0.95381  0.75084  0.92428  1.0000
