data_image0
_chemical_formula_structural       C2H2CNCHCH3SCH9C3HSCHCHNC2FeHC2HCFeHCH2CSHC3SHCHC2SH4FeSHSH5FeCFeCNCHCHSH4CHC2HC2SHFeS2HC2HSHC2H3C2FeHCH3CHCHS2HCHSCHNHFeH5NCHCHCHCH9SCFe3S2C4H4CHCHNHCSH2CS2CH4FeCH5CH2SH2CFeCH3CH4CFeNCH2SFeS3CHCSHC2HCH2CHCH2FeH2NHSH3C2H2CHSCHFeSC3H3CH2C2NC3H5C3SHFeSCHCH4C2H7C2NHCHNHCHSCH2SNH2CHFeH3CH2C2HCHC3HCH4CH3CSCSHCH3FeCHCSHCH2CNH3SHC2HFeHCH6SFeSC6H5CH2C2NCH2SFeSFeH3CHSCH4SC2H2C2SHCH3SC2H2C2HSCH3CHSFe2SHCHFeS3C3H2SCFeHNSH2SHCH4C2SFe2S2C2HC2H2SHC3S2FeHSCSH5CFeHC3HNH3CH4CHCSCHCH3CH2CNHCH4SCH2C2HCFe2HC3H2CFeHSCHSCHSNCHSHCH2CHFeNSCH2C2H3CHC2H2CHCH2CH4CH2CHCSCHCH2FeH3NCHCH2CSHNCHCH4CFeH2SHSC3H2S2CH2S2HCH3FeHNCHC2Fe2SHC2H2SHC2H3NHC3H2CHCHNH6SH2FeS4C6H4FeNSHCFeSCFeS2HCH3CHNH6CH3C3SH3C2H2CHCH2C2H4SH2C2HCHCHCHNCHCH4SCHSFeHFeS2C6H3SCNC3SFeSH3CH7SH2CH4SH2CH3CHCH5NH2CH3C2H2CSHSHC5H4SH3SH5CHNC2FeSFeCHC2SHSC5FeHCH4C2HC2SCH2CH2C2HNH2CH2SHFeH2FeCSC2FeHFeSH2SFeH3C6H2CHCFeSH5SCNHCHSCSHSFeH2CHCH3CSH5C2HCH5CH4CHSH2CSH2C3S2CH2FeH2SHCFeSHCSFeSH2CH2C2HCFeNFeHFeHCSCHNH2S2C2SCH2CH2CH2CHC2SCSCHCH2Fe2SFeS2C2HCH4NCH4CHC2HSH2SCSHC2H3CSCH4C2HCH3NSH3CH2CSHSH2SFeSFe2H2SC6H2SNHSFeC2H2CHC2H4CH3CSCHCNFeS3C7H6SHCHFeSFeHCHSNH4C2H3C2H5SCH4FeCHSCH6SH2C2HC2HCH3C3HCSH4SHFe2H3SH2C3HCHC2H2FeSHSNHNHCH3CH3CHSHC4H2CHCS3Fe2H2CFeH5C3HFeH2C2H2NHNCH2CSH2CHCH8SCH2CHCHCH2C2H2S2HFeH3C2HC2SCFe3S2CS2HNCHFeNHSCFeH3SH3C2HCH2CH3SHFeH4CHC3SFeS3C6H3S2FeSFeH2CSH4NH5CHCHCHCHCH2CH2C2HC2NS2C6H4NHC2SC2H4FeCFeH3CH2SH7CFeH3FeHCHCH2CH2SH2CH2SC5H
_chemical_formula_sum              "C480 H768 N48 S192 Fe96"
_cell_length_a       41.4581
_cell_length_b       45.582
_cell_length_c       42.3167
_cell_angle_alpha    90.5738
_cell_angle_beta     90.6839
_cell_angle_gamma    90.0859

_space_group_name_H-M_alt    "P 1"
_space_group_IT_number       1

loop_
  _space_group_symop_operation_xyz
  'x, y, z'

loop_
  _atom_site_type_symbol
  _atom_site_label
  _atom_site_symmetry_multiplicity
  _atom_site_fract_x
  _atom_site_fract_y
  _atom_site_fract_z
  _atom_site_occupancy
  C   C1        1.0  0.55861  0.08144  0.30571  1.0000
  C   C2        1.0  0.56807  0.11031  0.31275  1.0000
  H   H1        1.0  0.57261  0.12545  0.29377  1.0000
  H   H2        1.0  0.54632  0.05742  0.49023  1.0000
  C   C3        1.0  0.57252  0.11931  0.34417  1.0000
  N   N1        1.0  0.59168  0.23968  0.31679  1.0000
  C   C4        1.0  0.59215  0.27014  0.30503  1.0000
  H   H3        1.0  0.55918  0.22456  0.28017  1.0000
  C   C5        1.0  0.56145  0.22510  0.30641  1.0000
  H   H4        1.0  0.56047  0.20199  0.31472  1.0000
  H   H5        1.0  0.53993  0.23662  0.31587  1.0000
  H   H6        1.0  0.57104  0.28293  0.31347  1.0000
  S   S1        1.0  0.58741  0.15459  0.35226  1.0000
  C   C6        1.0  0.59363  0.24004  0.35171  1.0000
  H   H7        1.0  0.59196  0.27075  0.27873  1.0000
  H   H8        1.0  0.45504  0.09083  0.45931  1.0000
  H   H9        1.0  0.16017  0.27817  0.59297  1.0000
  H   H10       1.0  0.42350  0.29308  0.51920  1.0000
  H   H11       1.0  0.45703  0.06474  0.49077  1.0000
  H   H12       1.0  0.55587  0.07436  0.28133  1.0000
  H   H13       1.0  0.20827  0.23327  0.56543  1.0000
  H   H14       1.0  0.16317  0.26726  0.55220  1.0000
  H   H15       1.0  0.25066  0.28422  0.54589  1.0000
  C   C7        1.0  0.31586  0.25285  0.57020  1.0000
  C   C8        1.0  0.32644  0.25643  0.53923  1.0000
  C   C9        1.0  0.32732  0.28450  0.52598  1.0000
  H   H16       1.0  0.33348  0.23746  0.52535  1.0000
  S   S2        1.0  0.31299  0.21776  0.58639  1.0000
  C   C10       1.0  0.22402  0.28672  0.54407  1.0000
  H   H17       1.0  0.21548  0.27189  0.52467  1.0000
  C   C11       1.0  0.30668  0.27741  0.58805  1.0000
  H   H18       1.0  0.33514  0.28714  0.50186  1.0000
  N   N2        1.0  0.20827  0.27984  0.57429  1.0000
  C   C12       1.0  0.17290  0.28269  0.57049  1.0000
  C   C13       1.0  0.56636  0.09972  0.36863  1.0000
  Fe  Fe1       1.0  0.36163  0.19601  0.58824  1.0000
  H   H19       1.0  0.32968  0.08238  0.59245  1.0000
  C   C14       1.0  0.21647  0.24954  0.58360  1.0000
  C   C15       1.0  0.55361  0.06150  0.33007  1.0000
  H   H20       1.0  0.24304  0.24668  0.58666  1.0000
  C   C16       1.0  0.52189  0.06509  0.49718  1.0000
  Fe  Fe2       1.0  0.40423  0.14431  0.57143  1.0000
  H   H21       1.0  0.59302  0.21745  0.36141  1.0000
  C   C17       1.0  0.55681  0.07083  0.36158  1.0000
  H   H22       1.0  0.57499  0.21364  0.59518  1.0000
  H   H23       1.0  0.55894  0.17710  0.59441  1.0000
  C   C18       1.0  0.47007  0.08319  0.47955  1.0000
  S   S3        1.0  0.59203  0.19086  0.43651  1.0000
  H   H24       1.0  0.57335  0.25254  0.36227  1.0000
  C   C19       1.0  0.49932  0.20879  0.53864  1.0000
  C   C20       1.0  0.55347  0.19691  0.52113  1.0000
  C   C21       1.0  0.42890  0.07524  0.56938  1.0000
  S   S4        1.0  0.40975  0.10130  0.54546  1.0000
  H   H25       1.0  0.50684  0.13563  0.52468  1.0000
  C   C22       1.0  0.49060  0.17937  0.53469  1.0000
  H   H26       1.0  0.46496  0.29586  0.56197  1.0000
  C   C23       1.0  0.40328  0.28703  0.57837  1.0000
  C   C24       1.0  0.51359  0.15849  0.52614  1.0000
  S   S5        1.0  0.39261  0.18624  0.54628  1.0000
  H   H27       1.0  0.37685  0.28574  0.57414  1.0000
  H   H28       1.0  0.41404  0.26687  0.56787  1.0000
  H   H29       1.0  0.46602  0.17255  0.53823  1.0000
  H   H30       1.0  0.53758  0.24052  0.53416  1.0000
  Fe  Fe3       1.0  0.60631  0.15632  0.47125  1.0000
  S   S6        1.0  0.57310  0.14029  0.50857  1.0000
  H   H31       1.0  0.52528  0.08355  0.51436  1.0000
  S   S7        1.0  0.47162  0.23330  0.55557  1.0000
  H   H32       1.0  0.51990  0.11872  0.46970  1.0000
  H   H33       1.0  0.56862  0.10692  0.39290  1.0000
  H   H34       1.0  0.57776  0.20372  0.51561  1.0000
  H   H35       1.0  0.50576  0.10570  0.43187  1.0000
  H   H36       1.0  0.54399  0.09359  0.44745  1.0000
  Fe  Fe4       1.0  0.61032  0.15921  0.40027  1.0000
  C   C25       1.0  0.51873  0.09911  0.45385  1.0000
  Fe  Fe5       1.0  0.43260  0.20520  0.57614  1.0000
  C   C26       1.0  0.54498  0.16717  0.51919  1.0000
  N   N3        1.0  0.50263  0.07420  0.46933  1.0000
  C   C27       1.0  0.53073  0.21772  0.53143  1.0000
  H   H37       1.0  0.47116  0.10138  0.49730  1.0000
  C   C28       1.0  0.30781  0.30554  0.57488  1.0000
  H   H38       1.0  0.16599  0.30529  0.56330  1.0000
  S   S8        1.0  0.44644  0.16265  0.59843  1.0000
  H   H39       1.0  0.20790  0.29638  0.62210  1.0000
  H   H40       1.0  0.20510  0.24369  0.60639  1.0000
  H   H41       1.0  0.34343  0.08183  0.63296  1.0000
  H   H42       1.0  0.29900  0.27465  0.61220  1.0000
  C   C29       1.0  0.34631  0.07126  0.60933  1.0000
  H   H43       1.0  0.24608  0.29888  0.60316  1.0000
  C   C30       1.0  0.21969  0.30053  0.59909  1.0000
  C   C31       1.0  0.56955  0.19439  0.61020  1.0000
  H   H44       1.0  0.37119  0.07608  0.60149  1.0000
  C   C32       1.0  0.51686  0.21343  0.62250  1.0000
  C   C33       1.0  0.60214  0.07980  0.80605  1.0000
  S   S9        1.0  0.57830  0.18280  0.73684  1.0000
  H   H45       1.0  0.56613  0.29573  0.86528  1.0000
  Fe  Fe6       1.0  0.57130  0.22966  0.75146  1.0000
  S   S10       1.0  0.52632  0.25428  0.73945  1.0000
  S   S11       1.0  0.59876  0.13943  0.81429  1.0000
  H   H46       1.0  0.59490  0.07829  0.83045  1.0000
  C   C34       1.0  0.45197  0.18880  0.70160  1.0000
  C   C35       1.0  0.49593  0.20087  0.73788  1.0000
  H   H47       1.0  0.54620  0.23179  0.67607  1.0000
  S   S12       1.0  0.42540  0.16275  0.68508  1.0000
  H   H48       1.0  0.49774  0.06475  0.71865  1.0000
  C   C36       1.0  0.47345  0.18058  0.72567  1.0000
  C   C37       1.0  0.47453  0.23799  0.70297  1.0000
  H   H49       1.0  0.43539  0.22428  0.67254  1.0000
  H   H50       1.0  0.47485  0.26021  0.69422  1.0000
  H   H51       1.0  0.47295  0.15844  0.73462  1.0000
  C   C38       1.0  0.43693  0.08198  0.60084  1.0000
  C   C39       1.0  0.44929  0.06024  0.62073  1.0000
  Fe  Fe7       1.0  0.41081  0.17411  0.63554  1.0000
  H   H52       1.0  0.51240  0.19444  0.75654  1.0000
  C   C40       1.0  0.60576  0.10735  0.79215  1.0000
  H   H53       1.0  0.45437  0.06541  0.64529  1.0000
  H   H54       1.0  0.58538  0.21766  0.66705  1.0000
  H   H55       1.0  0.52443  0.18147  0.67525  1.0000
  C   C41       1.0  0.54076  0.17613  0.65527  1.0000
  H   H56       1.0  0.56343  0.16695  0.66553  1.0000
  C   C42       1.0  0.45240  0.21758  0.69045  1.0000
  H   H57       1.0  0.52888  0.15852  0.64088  1.0000
  S   S13       1.0  0.40078  0.21881  0.61611  1.0000
  S   S14       1.0  0.36923  0.15199  0.61066  1.0000
  H   H58       1.0  0.56775  0.24544  0.64268  1.0000
  C   C43       1.0  0.49664  0.22951  0.72633  1.0000
  H   H59       1.0  0.49923  0.21898  0.64123  1.0000
  S   S15       1.0  0.59281  0.22452  0.79989  1.0000
  C   C44       1.0  0.56233  0.22534  0.65632  1.0000
  H   H60       1.0  0.43233  0.10359  0.61037  1.0000
  N   N4        1.0  0.54741  0.20232  0.63607  1.0000
  H   H61       1.0  0.52081  0.23348  0.60824  1.0000
  Fe  Fe8       1.0  0.60415  0.17873  0.78334  1.0000
  H   H62       1.0  0.59292  0.18591  0.61959  1.0000
  H   H63       1.0  0.50535  0.19684  0.60657  1.0000
  H   H64       1.0  0.59905  0.14477  0.88591  1.0000
  H   H65       1.0  0.40737  0.28627  0.60439  1.0000
  H   H66       1.0  0.12580  0.30605  0.65382  1.0000
  N   N5        1.0  0.31795  0.48620  0.31238  1.0000
  C   C45       1.0  0.33012  0.51186  0.33044  1.0000
  H   H67       1.0  0.32529  0.53254  0.31756  1.0000
  C   C46       1.0  0.28312  0.49001  0.30571  1.0000
  H   H68       1.0  0.27303  0.47104  0.29211  1.0000
  C   C47       1.0  0.33561  0.48372  0.28231  1.0000
  H   H69       1.0  0.35654  0.51028  0.33497  1.0000
  C   C48       1.0  0.32302  0.45940  0.33117  1.0000
  H   H70       1.0  0.33225  0.50363  0.26761  1.0000
  H   H71       1.0  0.32734  0.46446  0.26802  1.0000
  H   H72       1.0  0.27848  0.51022  0.29180  1.0000
  H   H73       1.0  0.31414  0.43952  0.31829  1.0000
  H   H74       1.0  0.26919  0.49210  0.32798  1.0000
  H   H75       1.0  0.36208  0.48132  0.28650  1.0000
  H   H76       1.0  0.34906  0.45609  0.33682  1.0000
  H   H77       1.0  0.30997  0.46070  0.35404  1.0000
  H   H78       1.0  0.58275  0.52079  0.29337  1.0000
  S   S16       1.0  0.55560  0.37096  0.25182  1.0000
  C   C49       1.0  0.51849  0.41557  0.22857  1.0000
  Fe  Fe9       1.0  0.43641  0.52653  0.22479  1.0000
  Fe  Fe10      1.0  0.42392  0.52242  0.15447  1.0000
  Fe  Fe11      1.0  0.49021  0.50970  0.18058  1.0000
  S   S17       1.0  0.53484  0.48373  0.17025  1.0000
  S   S18       1.0  0.44188  0.48972  0.18965  1.0000
  C   C50       1.0  0.56885  0.40657  0.20197  1.0000
  C   C51       1.0  0.51401  0.44117  0.21087  1.0000
  C   C52       1.0  0.53721  0.44965  0.18899  1.0000
  C   C53       1.0  0.56411  0.43179  0.18382  1.0000
  H   H79       1.0  0.49325  0.45483  0.21507  1.0000
  H   H80       1.0  0.50106  0.40954  0.24620  1.0000
  H   H81       1.0  0.52951  0.45693  0.27415  1.0000
  H   H82       1.0  0.53032  0.47731  0.31047  1.0000
  C   C54       1.0  0.54042  0.47633  0.28625  1.0000
  H   H83       1.0  0.59006  0.39328  0.19862  1.0000
  C   C55       1.0  0.54656  0.39892  0.22498  1.0000
  H   H84       1.0  0.53204  0.49613  0.27330  1.0000
  N   N6        1.0  0.57601  0.47432  0.28705  1.0000
  H   H85       1.0  0.58200  0.43804  0.16671  1.0000
  C   C56       1.0  0.58838  0.47441  0.25445  1.0000
  S   S19       1.0  0.41949  0.52110  0.27467  1.0000
  H   H86       1.0  0.57981  0.49383  0.24098  1.0000
  H   H87       1.0  0.58030  0.45459  0.24122  1.0000
  C   C57       1.0  0.58581  0.44677  0.30265  1.0000
  S   S20       1.0  0.47271  0.53982  0.14266  1.0000
  S   S21       1.0  0.48672  0.54364  0.21901  1.0000
  C   C58       1.0  0.58947  0.49971  0.30474  1.0000
  H   H88       1.0  0.57600  0.42713  0.28981  1.0000
  H   H89       1.0  0.52324  0.45890  0.10491  1.0000
  H   H90       1.0  0.57719  0.44587  0.32740  1.0000
  H   H91       1.0  0.58083  0.50033  0.32953  1.0000
  Fe  Fe12      1.0  0.60932  0.36699  0.25761  1.0000
  C   C59       1.0  0.39118  0.54789  0.28493  1.0000
  H   H92       1.0  0.60417  0.37629  0.12530  1.0000
  H   H93       1.0  0.45587  0.48324  0.11196  1.0000
  H   H94       1.0  0.40827  0.55168  0.33309  1.0000
  H   H95       1.0  0.46580  0.44508  0.11090  1.0000
  H   H96       1.0  0.31834  0.51401  0.35375  1.0000
  C   C60       1.0  0.13830  0.35583  0.59591  1.0000
  H   H97       1.0  0.21907  0.30970  0.53676  1.0000
  H   H98       1.0  0.11799  0.46771  0.44241  1.0000
  S   S22       1.0  0.39141  0.50776  0.11482  1.0000
  H   H99       1.0  0.17896  0.38511  0.59371  1.0000
  H   H100      1.0  0.51303  0.49706  0.10463  1.0000
  C   C61       1.0  0.31803  0.30909  0.54378  1.0000
  Fe  Fe13      1.0  0.26811  0.54813  0.39493  1.0000
  C   C62       1.0  0.31691  0.52085  0.54253  1.0000
  H   H101      1.0  0.25681  0.51326  0.56300  1.0000
  H   H102      1.0  0.13691  0.45934  0.49807  1.0000
  H   H103      1.0  0.23684  0.51536  0.52502  1.0000
  C   C63       1.0  0.29115  0.52237  0.49113  1.0000
  H   H104      1.0  0.26883  0.52747  0.47747  1.0000
  H   H105      1.0  0.31475  0.52560  0.56829  1.0000
  H   H106      1.0  0.29697  0.49889  0.48645  1.0000
  H   H107      1.0  0.21357  0.51723  0.42887  1.0000
  C   C64       1.0  0.20767  0.48601  0.46635  1.0000
  Fe  Fe14      1.0  0.23875  0.42327  0.54500  1.0000
  N   N7        1.0  0.28687  0.52823  0.52524  1.0000
  C   C65       1.0  0.26009  0.51009  0.53710  1.0000
  H   H108      1.0  0.13804  0.52165  0.40422  1.0000
  H   H109      1.0  0.25576  0.42669  0.47852  1.0000
  S   S23       1.0  0.29216  0.42542  0.53762  1.0000
  Fe  Fe15      1.0  0.29200  0.37838  0.55317  1.0000
  S   S24       1.0  0.23805  0.37519  0.55586  1.0000
  S   S25       1.0  0.27119  0.49900  0.39598  1.0000
  S   S26       1.0  0.32075  0.34413  0.52728  1.0000
  C   C66       1.0  0.26172  0.45798  0.44126  1.0000
  H   H110      1.0  0.28263  0.44706  0.43162  1.0000
  C   C67       1.0  0.24675  0.44662  0.46800  1.0000
  S   S27       1.0  0.20267  0.44797  0.51556  1.0000
  H   H111      1.0  0.26460  0.48630  0.53299  1.0000
  C   C68       1.0  0.25024  0.48379  0.42755  1.0000
  C   C69       1.0  0.22296  0.49764  0.43984  1.0000
  H   H112      1.0  0.18678  0.49690  0.47604  1.0000
  C   C70       1.0  0.21995  0.46078  0.48076  1.0000
  H   H113      1.0  0.33781  0.53364  0.53377  1.0000
  H   H114      1.0  0.32281  0.49710  0.54008  1.0000
  C   C71       1.0  0.13162  0.54466  0.40395  1.0000
  H   H115      1.0  0.31089  0.53599  0.48126  1.0000
  C   C72       1.0  0.40091  0.33991  0.57797  1.0000
  H   H116      1.0  0.30097  0.32445  0.58888  1.0000
  H   H117      1.0  0.12832  0.36298  0.57370  1.0000
  Fe  Fe16      1.0  0.29491  0.43570  0.58928  1.0000
  H   H118      1.0  0.21453  0.32361  0.59256  1.0000
  H   H119      1.0  0.41042  0.36056  0.56779  1.0000
  N   N8        1.0  0.41716  0.31382  0.56459  1.0000
  H   H120      1.0  0.42329  0.33259  0.51858  1.0000
  S   S28       1.0  0.24155  0.43743  0.59566  1.0000
  H   H121      1.0  0.37448  0.33940  0.57287  1.0000
  H   H122      1.0  0.46334  0.33522  0.56232  1.0000
  H   H123      1.0  0.38636  0.31293  0.52338  1.0000
  C   C73       1.0  0.41243  0.31306  0.52990  1.0000
  C   C74       1.0  0.45206  0.31515  0.57209  1.0000
  H   H124      1.0  0.36821  0.54844  0.23903  1.0000
  H   H125      1.0  0.11469  0.42560  0.49809  1.0000
  C   C75       1.0  0.11282  0.44962  0.50271  1.0000
  H   H126      1.0  0.45660  0.31516  0.59807  1.0000
  S   S29       1.0  0.21938  0.37065  0.64713  1.0000
  C   C76       1.0  0.18121  0.35815  0.63522  1.0000
  H   H127      1.0  0.15605  0.53737  0.77030  1.0000
  Fe  Fe17      1.0  0.24343  0.54433  0.74734  1.0000
  S   S30       1.0  0.25175  0.49637  0.73818  1.0000
  C   C77       1.0  0.27144  0.49064  0.70226  1.0000
  C   C78       1.0  0.27741  0.51408  0.68203  1.0000
  C   C79       1.0  0.29409  0.50940  0.65380  1.0000
  H   H128      1.0  0.29848  0.52755  0.63812  1.0000
  H   H129      1.0  0.26872  0.53576  0.68775  1.0000
  H   H130      1.0  0.27702  0.44420  0.70949  1.0000
  C   C80       1.0  0.29720  0.45754  0.66519  1.0000
  H   H131      1.0  0.30440  0.43555  0.65854  1.0000
  H   H132      1.0  0.19203  0.41319  0.70357  1.0000
  C   C81       1.0  0.20190  0.43448  0.69536  1.0000
  C   C82       1.0  0.28153  0.46240  0.69390  1.0000
  N   N9        1.0  0.17654  0.45287  0.68080  1.0000
  C   C83       1.0  0.30378  0.48108  0.64531  1.0000
  C   C84       1.0  0.15201  0.46021  0.70469  1.0000
  C   C85       1.0  0.19113  0.48023  0.66903  1.0000
  H   H133      1.0  0.17670  0.32846  0.67421  1.0000
  H   H134      1.0  0.20192  0.49349  0.68874  1.0000
  H   H135      1.0  0.21343  0.44574  0.71606  1.0000
  H   H136      1.0  0.21075  0.47555  0.65196  1.0000
  H   H137      1.0  0.22130  0.42921  0.67822  1.0000
  C   C86       1.0  0.13034  0.54125  0.76917  1.0000
  C   C87       1.0  0.16584  0.33630  0.65250  1.0000
  C   C88       1.0  0.13722  0.32352  0.64090  1.0000
  S   S31       1.0  0.32157  0.47454  0.60869  1.0000
  H   H138      1.0  0.16294  0.47248  0.72510  1.0000
  Fe  Fe18      1.0  0.24573  0.38977  0.60621  1.0000
  S   S32       1.0  0.29979  0.38901  0.60460  1.0000
  C   C89       1.0  0.16726  0.36815  0.60711  1.0000
  H   H139      1.0  0.35010  0.52246  0.69708  1.0000
  C   C90       1.0  0.33148  0.51038  0.75599  1.0000
  H   H140      1.0  0.32511  0.48695  0.75152  1.0000
  H   H141      1.0  0.33889  0.51833  0.83830  1.0000
  H   H142      1.0  0.32832  0.51466  0.78157  1.0000
  H   H143      1.0  0.31339  0.52395  0.74333  1.0000
  C   C91       1.0  0.16123  0.43657  0.65419  1.0000
  C   C92       1.0  0.12342  0.33326  0.61256  1.0000
  H   H144      1.0  0.40403  0.34119  0.60410  1.0000
  H   H145      1.0  0.36208  0.48601  0.70719  1.0000
  H   H146      1.0  0.14046  0.44013  0.71417  1.0000
  H   H147      1.0  0.11856  0.49643  0.75668  1.0000
  H   H148      1.0  0.38357  0.47604  0.76168  1.0000
  H   H149      1.0  0.17919  0.43068  0.63585  1.0000
  H   H150      1.0  0.17289  0.49425  0.65701  1.0000
  C   C93       1.0  0.37723  0.54944  0.84653  1.0000
  C   C94       1.0  0.34608  0.54112  0.83703  1.0000
  N   N10       1.0  0.60920  0.52800  0.92799  1.0000
  H   H151      1.0  0.55126  0.33092  0.87778  1.0000
  C   C95       1.0  0.36744  0.50965  0.71177  1.0000
  H   H152      1.0  0.30018  0.55554  0.81852  1.0000
  N   N11       1.0  0.36451  0.51725  0.74567  1.0000
  H   H153      1.0  0.38624  0.50538  0.79019  1.0000
  C   C96       1.0  0.38792  0.50003  0.76447  1.0000
  H   H154      1.0  0.41317  0.50465  0.75740  1.0000
  S   S33       1.0  0.49642  0.55370  0.96759  1.0000
  C   C97       1.0  0.37096  0.54892  0.75043  1.0000
  H   H155      1.0  0.39212  0.51423  0.70301  1.0000
  H   H156      1.0  0.59963  0.31783  0.80504  1.0000
  S   S34       1.0  0.40463  0.52234  0.85830  1.0000
  N   N12       1.0  0.59653  0.33219  0.85359  1.0000
  H   H157      1.0  0.57966  0.37591  0.86325  1.0000
  H   H158      1.0  0.54909  0.32033  0.83670  1.0000
  C   C98       1.0  0.56429  0.31923  0.85854  1.0000
  H   H159      1.0  0.57839  0.54165  0.88966  1.0000
  Fe  Fe19      1.0  0.48329  0.50994  0.94703  1.0000
  H   H160      1.0  0.57980  0.50280  0.89550  1.0000
  H   H161      1.0  0.13249  0.47421  0.69464  1.0000
  H   H162      1.0  0.46732  0.43873  0.03825  1.0000
  C   C99       1.0  0.58342  0.53033  0.95172  1.0000
  H   H163      1.0  0.60425  0.34244  0.90281  1.0000
  H   H164      1.0  0.59355  0.53368  0.97594  1.0000
  C   C100      1.0  0.47512  0.49541  0.05286  1.0000
  C   C101      1.0  0.53377  0.45243  0.95474  1.0000
  H   H165      1.0  0.33956  0.54528  0.94157  1.0000
  C   C102      1.0  0.59456  0.52319  0.89634  1.0000
  H   H166      1.0  0.45273  0.49051  0.03901  1.0000
  C   C103      1.0  0.55362  0.43391  0.97252  1.0000
  C   C104      1.0  0.59300  0.36335  0.84486  1.0000
  C   C105      1.0  0.53961  0.45613  0.92253  1.0000
  H   H167      1.0  0.59481  0.40539  0.97232  1.0000
  C   C106      1.0  0.57960  0.41958  0.95832  1.0000
  H   H168      1.0  0.49613  0.42446  0.06640  1.0000
  H   H169      1.0  0.52389  0.46972  0.90851  1.0000
  H   H170      1.0  0.43582  0.45961  0.08408  1.0000
  H   H171      1.0  0.14181  0.44964  0.64261  1.0000
  C   C107      1.0  0.45950  0.46417  0.09585  1.0000
  H   H172      1.0  0.57011  0.44458  0.88336  1.0000
  H   H173      1.0  0.15026  0.41564  0.66221  1.0000
  H   H174      1.0  0.56818  0.51019  0.95200  1.0000
  C   C108      1.0  0.39176  0.52055  0.05189  1.0000
  S   S35       1.0  0.50235  0.47115  0.97348  1.0000
  C   C109      1.0  0.48951  0.44405  0.05224  1.0000
  S   S36       1.0  0.49214  0.52282  0.89686  1.0000
  H   H175      1.0  0.50917  0.44761  0.03506  1.0000
  C   C110      1.0  0.39736  0.53095  0.08268  1.0000
  H   H176      1.0  0.49408  0.50108  0.03553  1.0000
  H   H177      1.0  0.57959  0.36579  0.82212  1.0000
  H   H178      1.0  0.54917  0.43074  0.99737  1.0000
  Fe  Fe20      1.0  0.43998  0.53616  0.89645  1.0000
  C   C111      1.0  0.39847  0.53846  0.02601  1.0000
  H   H179      1.0  0.38280  0.49848  0.04804  1.0000
  C   C112      1.0  0.56559  0.44169  0.90826  1.0000
  S   S37       1.0  0.43039  0.51931  0.94508  1.0000
  H   H180      1.0  0.53529  0.48144  0.07249  1.0000
  C   C113      1.0  0.51545  0.47721  0.08933  1.0000
  H   H181      1.0  0.39427  0.53023  0.00232  1.0000
  H   H182      1.0  0.47029  0.51532  0.06754  1.0000
  C   C114      1.0  0.58574  0.42363  0.92627  1.0000
  N   N13       1.0  0.48488  0.47023  0.07256  1.0000
  H   H183      1.0  0.56718  0.54920  0.94664  1.0000
  H   H184      1.0  0.36934  0.55535  0.77578  1.0000
  H   H185      1.0  0.39555  0.55499  0.74249  1.0000
  S   S38       1.0  0.31457  0.61430  0.31301  1.0000
  H   H186      1.0  0.32772  0.58580  0.25404  1.0000
  C   C115      1.0  0.34452  0.58930  0.30230  1.0000
  C   C116      1.0  0.34543  0.57853  0.27125  1.0000
  H   H187      1.0  0.36822  0.64035  0.26676  1.0000
  Fe  Fe21      1.0  0.29010  0.60047  0.35759  1.0000
  H   H188      1.0  0.36694  0.58837  0.34847  1.0000
  C   C117      1.0  0.36731  0.57978  0.32455  1.0000
  H   H189      1.0  0.39319  0.65207  0.21518  1.0000
  H   H190      1.0  0.43544  0.65988  0.21343  1.0000
  H   H191      1.0  0.38489  0.67306  0.28433  1.0000
  H   H192      1.0  0.39284  0.63799  0.30170  1.0000
  H   H193      1.0  0.45217  0.64788  0.29857  1.0000
  H   H194      1.0  0.40897  0.68542  0.23255  1.0000
  S   S39       1.0  0.57237  0.68363  0.26625  1.0000
  Fe  Fe22      1.0  0.46447  0.57218  0.18179  1.0000
  S   S40       1.0  0.47310  0.62038  0.17440  1.0000
  C   C118      1.0  0.50064  0.63762  0.20024  1.0000
  C   C119      1.0  0.50767  0.66737  0.19612  1.0000
  C   C120      1.0  0.52923  0.68179  0.21677  1.0000
  C   C121      1.0  0.54371  0.66650  0.24164  1.0000
  C   C122      1.0  0.53583  0.63706  0.24644  1.0000
  C   C123      1.0  0.51460  0.62255  0.22554  1.0000
  H   H195      1.0  0.49637  0.67927  0.17697  1.0000
  H   H196      1.0  0.54644  0.62536  0.26609  1.0000
  H   H197      1.0  0.50898  0.59982  0.22920  1.0000
  H   H198      1.0  0.46946  0.65746  0.26138  1.0000
  H   H199      1.0  0.44667  0.61155  0.23803  1.0000
  C   C124      1.0  0.44727  0.65923  0.27584  1.0000
  H   H200      1.0  0.53420  0.70486  0.21377  1.0000
  H   H201      1.0  0.44359  0.68293  0.28123  1.0000
  C   C125      1.0  0.42494  0.61491  0.25277  1.0000
  C   C126      1.0  0.41389  0.66167  0.22878  1.0000
  N   N14       1.0  0.41904  0.64638  0.25907  1.0000
  C   C127      1.0  0.39004  0.64964  0.27881  1.0000
  H   H202      1.0  0.40428  0.60471  0.23976  1.0000
  H   H203      1.0  0.42861  0.60249  0.27503  1.0000
  S   S41       1.0  0.57995  0.76876  0.24890  1.0000
  Fe  Fe23      1.0  0.58467  0.77203  0.19654  1.0000
  S   S42       1.0  0.59420  0.72429  0.18914  1.0000
  Fe  Fe24      1.0  0.59467  0.72203  0.24194  1.0000
  H   H204      1.0  0.50656  0.72919  0.12434  1.0000
  H   H205      1.0  0.53885  0.70725  0.14011  1.0000
  H   H206      1.0  0.54516  0.74540  0.13252  1.0000
  C   C128      1.0  0.53301  0.72523  0.12340  1.0000
  H   H207      1.0  0.59301  0.79602  0.30663  1.0000
  S   S43       1.0  0.41372  0.55757  0.19026  1.0000
  C   C129      1.0  0.36852  0.55760  0.26268  1.0000
  H   H208      1.0  0.60631  0.64814  0.20106  1.0000
  H   H209      1.0  0.60163  0.61656  0.24790  1.0000
  H   H210      1.0  0.40602  0.79604  0.52638  1.0000
  H   H211      1.0  0.60252  0.78065  0.13362  1.0000
  S   S44       1.0  0.54687  0.79727  0.17045  1.0000
  C   C130      1.0  0.58816  0.79605  0.12024  1.0000
  C   C131      1.0  0.39072  0.55913  0.31583  1.0000
  H   H212      1.0  0.41297  0.56774  0.11140  1.0000
  H   H213      1.0  0.16905  0.70107  0.47133  1.0000
  C   C132      1.0  0.15566  0.56588  0.39974  1.0000
  C   C133      1.0  0.38231  0.79787  0.51394  1.0000
  S   S45       1.0  0.24553  0.57249  0.35462  1.0000
  H   H214      1.0  0.27549  0.56481  0.55566  1.0000
  C   C134      1.0  0.14043  0.80518  0.55776  1.0000
  H   H215      1.0  0.29945  0.57391  0.52205  1.0000
  H   H216      1.0  0.14293  0.78121  0.56162  1.0000
  H   H217      1.0  0.24824  0.64141  0.46783  1.0000
  S   S46       1.0  0.29043  0.79673  0.57124  1.0000
  C   C135      1.0  0.31718  0.65694  0.47847  1.0000
  C   C136      1.0  0.32132  0.70026  0.51224  1.0000
  H   H218      1.0  0.20987  0.67419  0.41819  1.0000
  H   H219      1.0  0.22240  0.68442  0.51805  1.0000
  C   C137      1.0  0.31578  0.67501  0.45193  1.0000
  C   C138      1.0  0.14749  0.59562  0.39917  1.0000
  H   H220      1.0  0.22247  0.71604  0.49313  1.0000
  S   S47       1.0  0.31448  0.57346  0.39482  1.0000
  C   C139      1.0  0.22188  0.64418  0.47133  1.0000
  H   H221      1.0  0.32398  0.70984  0.53559  1.0000
  H   H222      1.0  0.25731  0.56618  0.51686  1.0000
  H   H223      1.0  0.20920  0.63049  0.45318  1.0000
  C   C140      1.0  0.22894  0.69239  0.49417  1.0000
  H   H224      1.0  0.31432  0.66541  0.42856  1.0000
  S   S48       1.0  0.23104  0.78255  0.52033  1.0000
  Fe  Fe25      1.0  0.21463  0.74829  0.55406  1.0000
  Fe  Fe26      1.0  0.28071  0.76549  0.53077  1.0000
  S   S49       1.0  0.17728  0.62236  0.39384  1.0000
  H   H225      1.0  0.21473  0.71020  0.43529  1.0000
  C   C141      1.0  0.22170  0.68677  0.43784  1.0000
  H   H226      1.0  0.16923  0.66941  0.49592  1.0000
  Fe  Fe27      1.0  0.22680  0.60255  0.39247  1.0000
  S   S50       1.0  0.31278  0.61865  0.47483  1.0000
  S   S51       1.0  0.31449  0.75653  0.49075  1.0000
  S   S52       1.0  0.24565  0.57574  0.43272  1.0000
  C   C142      1.0  0.31644  0.70568  0.45560  1.0000
  C   C143      1.0  0.14233  0.72193  0.57195  1.0000
  C   C144      1.0  0.17706  0.67781  0.47260  1.0000
  H   H227      1.0  0.32226  0.65581  0.52918  1.0000
  H   H228      1.0  0.24823  0.68534  0.43443  1.0000
  S   S53       1.0  0.26357  0.72867  0.56078  1.0000
  C   C145      1.0  0.31837  0.71834  0.48585  1.0000
  Fe  Fe28      1.0  0.28997  0.60361  0.42903  1.0000
  H   H229      1.0  0.31461  0.71955  0.43506  1.0000
  N   N15       1.0  0.21237  0.67530  0.46897  1.0000
  S   S54       1.0  0.26924  0.63293  0.39181  1.0000
  H   H230      1.0  0.25556  0.69077  0.49220  1.0000
  H   H231      1.0  0.16388  0.66514  0.45381  1.0000
  S   S55       1.0  0.17023  0.72244  0.54118  1.0000
  H   H232      1.0  0.21601  0.63511  0.49488  1.0000
  C   C146      1.0  0.32071  0.66964  0.50857  1.0000
  H   H233      1.0  0.58672  0.69649  0.10709  1.0000
  H   H234      1.0  0.38269  0.78281  0.49303  1.0000
  H   H235      1.0  0.36343  0.78935  0.52998  1.0000
  H   H236      1.0  0.18046  0.55920  0.39674  1.0000
  C   C147      1.0  0.11530  0.60411  0.40293  1.0000
  C   C148      1.0  0.27940  0.55964  0.53021  1.0000
  S   S56       1.0  0.21829  0.77766  0.59651  1.0000
  Fe  Fe29      1.0  0.26616  0.59922  0.78080  1.0000
  Fe  Fe30      1.0  0.23602  0.60300  0.71530  1.0000
  S   S57       1.0  0.22759  0.62368  0.66835  1.0000
  S   S58       1.0  0.22639  0.62693  0.76048  1.0000
  C   C149      1.0  0.33324  0.59166  0.82468  1.0000
  C   C150      1.0  0.27007  0.71508  0.65663  1.0000
  H   H237      1.0  0.21387  0.66878  0.62461  1.0000
  C   C151      1.0  0.26758  0.66956  0.68605  1.0000
  C   C152      1.0  0.28094  0.69763  0.68167  1.0000
  H   H238      1.0  0.27625  0.65588  0.70509  1.0000
  H   H239      1.0  0.23564  0.71850  0.61846  1.0000
  S   S59       1.0  0.30587  0.61821  0.81144  1.0000
  H   H240      1.0  0.30007  0.70549  0.69718  1.0000
  C   C153      1.0  0.23250  0.67674  0.64066  1.0000
  C   C154      1.0  0.24515  0.70486  0.63690  1.0000
  C   C155      1.0  0.24385  0.65895  0.66500  1.0000
  S   S60       1.0  0.28810  0.74905  0.64845  1.0000
  S   S61       1.0  0.27917  0.57902  0.73412  1.0000
  Fe  Fe31      1.0  0.19466  0.58854  0.77088  1.0000
  H   H241      1.0  0.13738  0.73282  0.65149  1.0000
  S   S62       1.0  0.14412  0.59848  0.78538  1.0000
  C   C156      1.0  0.12953  0.72896  0.62733  1.0000
  S   S63       1.0  0.20160  0.56638  0.72420  1.0000
  H   H242      1.0  0.16626  0.62059  0.71627  1.0000
  H   H243      1.0  0.14690  0.79101  0.61870  1.0000
  H   H244      1.0  0.11324  0.65187  0.75162  1.0000
  H   H245      1.0  0.18899  0.66997  0.70988  1.0000
  H   H246      1.0  0.33967  0.80434  0.62967  1.0000
  C   C157      1.0  0.11810  0.56917  0.77610  1.0000
  Fe  Fe32      1.0  0.26889  0.76125  0.60066  1.0000
  H   H247      1.0  0.17781  0.72708  0.60917  1.0000
  C   C158      1.0  0.14441  0.62778  0.70301  1.0000
  C   C159      1.0  0.16641  0.67641  0.69720  1.0000
  C   C160      1.0  0.15241  0.72604  0.60335  1.0000
  H   H248      1.0  0.17060  0.67257  0.67155  1.0000
  N   N16       1.0  0.13839  0.65940  0.70824  1.0000
  H   H249      1.0  0.16294  0.70038  0.70089  1.0000
  H   H250      1.0  0.32948  0.79670  0.68593  1.0000
  H   H251      1.0  0.12876  0.68853  0.74735  1.0000
  C   C161      1.0  0.32418  0.56214  0.82587  1.0000
  H   H252      1.0  0.14859  0.62262  0.67762  1.0000
  H   H253      1.0  0.12399  0.61409  0.71136  1.0000
  H   H254      1.0  0.54241  0.73766  0.04491  1.0000
  H   H255      1.0  0.15547  0.65859  0.75643  1.0000
  C   C162      1.0  0.13373  0.66498  0.74236  1.0000
  H   H256      1.0  0.59161  0.73468  0.09821  1.0000
  C   C163      1.0  0.59764  0.80399  0.08974  1.0000
  S   S64       1.0  0.23330  0.56273  0.79565  1.0000
  C   C164      1.0  0.36419  0.60010  0.83489  1.0000
  H   H257      1.0  0.37127  0.62295  0.83399  1.0000
  C   C165      1.0  0.38626  0.57898  0.84563  1.0000
  H   H258      1.0  0.41045  0.58548  0.85254  1.0000
  H   H259      1.0  0.53398  0.67184  0.09580  1.0000
  H   H260      1.0  0.31239  0.58241  0.97567  1.0000
  C   C166      1.0  0.31524  0.59266  0.91309  1.0000
  H   H261      1.0  0.30388  0.61475  0.91194  1.0000
  H   H262      1.0  0.31907  0.62091  0.96914  1.0000
  C   C167      1.0  0.33049  0.59886  0.96805  1.0000
  N   N17       1.0  0.34242  0.59212  0.93600  1.0000
  H   H263      1.0  0.32342  0.58706  0.88888  1.0000
  C   C168      1.0  0.36674  0.61424  0.92715  1.0000
  H   H264      1.0  0.35636  0.63673  0.92688  1.0000
  H   H265      1.0  0.37654  0.60967  0.90326  1.0000
  H   H266      1.0  0.29619  0.57654  0.91923  1.0000
  H   H267      1.0  0.50083  0.69271  0.08009  1.0000
  S   S65       1.0  0.41832  0.58968  0.99883  1.0000
  C   C169      1.0  0.35730  0.56268  0.93574  1.0000
  H   H268      1.0  0.35053  0.59874  0.98586  1.0000
  H   H269      1.0  0.36752  0.55713  0.91223  1.0000
  C   C170      1.0  0.56330  0.66889  0.97309  1.0000
  C   C171      1.0  0.55088  0.62345  0.92927  1.0000
  H   H270      1.0  0.35327  0.56265  0.73721  1.0000
  C   C172      1.0  0.58340  0.66507  0.94703  1.0000
  Fe  Fe33      1.0  0.44422  0.56452  0.96114  1.0000
  Fe  Fe34      1.0  0.60109  0.73441  0.98667  1.0000
  H   H271      1.0  0.37732  0.56137  0.95335  1.0000
  C   C173      1.0  0.57732  0.64218  0.92524  1.0000
  C   C174      1.0  0.40885  0.55951  0.08763  1.0000
  C   C175      1.0  0.53441  0.74217  0.06952  1.0000
  H   H272      1.0  0.38757  0.61450  0.94403  1.0000
  H   H273      1.0  0.53478  0.68444  0.05580  1.0000
  C   C176      1.0  0.57888  0.71417  0.09079  1.0000
  Fe  Fe35      1.0  0.50093  0.56777  0.91731  1.0000
  H   H274      1.0  0.50958  0.61397  0.95784  1.0000
  S   S66       1.0  0.57752  0.77601  0.97080  1.0000
  C   C177      1.0  0.40994  0.56705  0.03096  1.0000
  H   H275      1.0  0.59306  0.63901  0.90530  1.0000
  S   S67       1.0  0.54389  0.59424  0.90265  1.0000
  C   C178      1.0  0.52756  0.69056  0.08025  1.0000
  H   H276      1.0  0.58752  0.70834  0.06673  1.0000
  S   S68       1.0  0.57090  0.69627  0.00170  1.0000
  N   N18       1.0  0.54346  0.71803  0.09097  1.0000
  C   C179      1.0  0.53694  0.65015  0.97704  1.0000
  H   H277      1.0  0.42348  0.59982  0.06569  1.0000
  S   S69       1.0  0.44949  0.58251  0.91237  1.0000
  H   H278      1.0  0.52118  0.65313  0.99701  1.0000
  C   C180      1.0  0.41468  0.57770  0.06178  1.0000
  H   H279      1.0  0.50786  0.74554  0.06868  1.0000
  H   H280      1.0  0.54566  0.76331  0.07712  1.0000
  C   C181      1.0  0.53049  0.62775  0.95496  1.0000
  H   H281      1.0  0.60388  0.67936  0.94393  1.0000
  Fe  Fe36      1.0  0.61108  0.79773  0.00572  1.0000
  N   N19       1.0  0.57543  0.87512  0.23131  1.0000
  S   S70       1.0  0.54496  0.02482  0.32056  1.0000
  C   C182      1.0  0.58720  0.90250  0.21700  1.0000
  H   H282      1.0  0.59542  0.89860  0.19234  1.0000
  H   H283      1.0  0.60969  0.84752  0.20742  1.0000
  C   C183      1.0  0.57606  0.83399  0.33194  1.0000
  C   C184      1.0  0.54794  0.86345  0.21249  1.0000
  H   H284      1.0  0.55490  0.85899  0.18755  1.0000
  H   H285      1.0  0.53905  0.84233  0.22222  1.0000
  H   H286      1.0  0.52735  0.87905  0.21207  1.0000
  C   C185      1.0  0.60171  0.85324  0.23174  1.0000
  H   H287      1.0  0.51988  0.83703  0.12566  1.0000
  C   C186      1.0  0.54168  0.82791  0.11579  1.0000
  C   C187      1.0  0.59862  0.81806  0.31432  1.0000
  H   H288      1.0  0.56796  0.91951  0.21624  1.0000
  H   H289      1.0  0.54521  0.89769  0.26476  1.0000
  C   C188      1.0  0.56495  0.88120  0.26399  1.0000
  H   H290      1.0  0.55279  0.82441  0.33691  1.0000
  C   C189      1.0  0.59624  0.89577  0.54997  1.0000
  H   H291      1.0  0.55591  0.86097  0.27548  1.0000
  H   H292      1.0  0.58517  0.88983  0.27891  1.0000
  C   C190      1.0  0.56000  0.80786  0.13310  1.0000
  H   H293      1.0  0.59393  0.83254  0.24308  1.0000
  H   H294      1.0  0.50780  0.98540  0.53202  1.0000
  H   H295      1.0  0.12630  0.80806  0.53551  1.0000
  H   H296      1.0  0.48526  0.05523  0.42548  1.0000
  C   C191      1.0  0.46710  0.92324  0.51052  1.0000
  H   H297      1.0  0.34380  0.81513  0.46640  1.0000
  H   H298      1.0  0.32838  0.03631  0.56079  1.0000
  C   C192      1.0  0.24560  0.88155  0.58075  1.0000
  H   H299      1.0  0.34028  0.00222  0.57853  1.0000
  C   C193      1.0  0.34488  0.02632  0.57859  1.0000
  S   S71       1.0  0.21729  0.85511  0.56868  1.0000
  C   C194      1.0  0.27839  0.87791  0.57434  1.0000
  H   H300      1.0  0.28633  0.85925  0.56062  1.0000
  C   C195      1.0  0.30080  0.89905  0.58482  1.0000
  H   H301      1.0  0.32411  0.82192  0.50308  1.0000
  H   H302      1.0  0.35521  0.84047  0.54934  1.0000
  Fe  Fe37      1.0  0.23892  0.81043  0.56352  1.0000
  H   H303      1.0  0.14695  0.86151  0.57573  1.0000
  H   H304      1.0  0.42531  0.83832  0.49541  1.0000
  H   H305      1.0  0.36999  0.02973  0.57032  1.0000
  N   N20       1.0  0.12481  0.81982  0.58489  1.0000
  C   C196      1.0  0.12258  0.85166  0.57896  1.0000
  H   H306      1.0  0.32585  0.89666  0.57897  1.0000
  C   C197      1.0  0.34405  0.82960  0.48779  1.0000
  H   H307      1.0  0.33821  0.85229  0.48013  1.0000
  H   H308      1.0  0.16508  0.81403  0.55383  1.0000
  C   C198      1.0  0.43407  0.04685  0.55765  1.0000
  S   S72       1.0  0.59770  0.95843  0.34416  1.0000
  H   H309      1.0  0.51013  0.04664  0.50975  1.0000
  N   N21       1.0  0.59572  0.91169  0.51971  1.0000
  C   C199      1.0  0.49986  0.04935  0.44673  1.0000
  H   H310      1.0  0.51201  0.93594  0.44514  1.0000
  C   C200      1.0  0.58326  0.86245  0.34261  1.0000
  H   H311      1.0  0.59353  0.95621  0.50372  1.0000
  H   H312      1.0  0.40268  0.82509  0.46159  1.0000
  H   H313      1.0  0.55148  0.05591  0.38044  1.0000
  H   H314      1.0  0.56617  0.91405  0.47774  1.0000
  C   C201      1.0  0.59335  0.94354  0.52609  1.0000
  Fe  Fe38      1.0  0.42508  0.91448  0.57360  1.0000
  H   H315      1.0  0.57055  0.94920  0.53838  1.0000
  H   H316      1.0  0.54451  0.90619  0.51305  1.0000
  S   S73       1.0  0.40318  0.95900  0.58047  1.0000
  H   H317      1.0  0.39711  0.86197  0.47619  1.0000
  S   S74       1.0  0.43883  0.89840  0.52541  1.0000
  C   C202      1.0  0.47739  0.94711  0.52911  1.0000
  C   C203      1.0  0.44623  0.02504  0.57763  1.0000
  C   C204      1.0  0.47963  0.91925  0.48021  1.0000
  H   H318      1.0  0.37005  0.87075  0.52670  1.0000
  H   H319      1.0  0.57397  0.90008  0.56376  1.0000
  S   S75       1.0  0.59505  0.93860  0.41907  1.0000
  S   S76       1.0  0.58909  0.00824  0.40051  1.0000
  C   C205      1.0  0.49998  0.96701  0.51746  1.0000
  H   H320      1.0  0.52400  0.04210  0.43844  1.0000
  H   H321      1.0  0.42767  0.04141  0.53345  1.0000
  S   S77       1.0  0.54151  0.98771  0.47362  1.0000
  S   S78       1.0  0.52917  0.96309  0.38341  1.0000
  H   H322      1.0  0.56867  0.87821  0.49471  1.0000
  C   C206      1.0  0.50231  0.93920  0.46852  1.0000
  H   H323      1.0  0.48829  0.02995  0.45777  1.0000
  H   H324      1.0  0.59796  0.87164  0.54606  1.0000
  H   H325      1.0  0.46800  0.95034  0.55255  1.0000
  Fe  Fe39      1.0  0.56744  0.92924  0.37425  1.0000
  H   H326      1.0  0.39794  0.84693  0.54621  1.0000
  N   N22       1.0  0.37553  0.82842  0.50453  1.0000
  C   C207      1.0  0.56757  0.90205  0.50049  1.0000
  H   H327      1.0  0.45005  0.00313  0.56851  1.0000
  C   C208      1.0  0.40123  0.83882  0.48343  1.0000
  C   C209      1.0  0.37453  0.84742  0.53300  1.0000
  Fe  Fe40      1.0  0.55961  0.97500  0.42572  1.0000
  Fe  Fe41      1.0  0.56196  0.99324  0.35733  1.0000
  S   S79       1.0  0.55315  0.88310  0.36131  1.0000
  H   H328      1.0  0.47180  0.90082  0.46573  1.0000
  C   C210      1.0  0.51247  0.96308  0.48719  1.0000
  C   C211      1.0  0.23520  0.90646  0.59723  1.0000
  H   H329      1.0  0.60796  0.91182  0.23073  1.0000
  H   H330      1.0  0.30132  0.01012  0.62154  1.0000
  S   S80       1.0  0.31805  0.94968  0.61667  1.0000
  H   H331      1.0  0.33841  0.84067  0.61341  1.0000
  C   C212      1.0  0.33468  0.86945  0.66922  1.0000
  C   C213      1.0  0.34482  0.82794  0.63486  1.0000
  H   H332      1.0  0.36095  0.87234  0.67424  1.0000
  H   H333      1.0  0.32836  0.88372  0.64885  1.0000
  H   H334      1.0  0.27711  0.84299  0.67648  1.0000
  N   N23       1.0  0.32660  0.83836  0.66257  1.0000
  H   H335      1.0  0.32149  0.87801  0.69011  1.0000
  C   C214      1.0  0.25763  0.92739  0.60800  1.0000
  C   C215      1.0  0.29161  0.83559  0.65595  1.0000
  C   C216      1.0  0.30678  0.03402  0.62058  1.0000
  H   H336      1.0  0.28412  0.84898  0.63526  1.0000
  H   H337      1.0  0.36060  0.03503  0.65714  1.0000
  C   C217      1.0  0.36298  0.02557  0.63295  1.0000
  H   H338      1.0  0.35883  0.00148  0.63448  1.0000
  C   C218      1.0  0.29047  0.92360  0.60203  1.0000
  H   H339      1.0  0.30254  0.04338  0.64456  1.0000
  N   N24       1.0  0.34024  0.03931  0.61037  1.0000
  H   H340      1.0  0.13284  0.82510  0.63495  1.0000
  H   H341      1.0  0.24952  0.94644  0.62110  1.0000
  H   H342      1.0  0.36172  0.82185  0.69570  1.0000
  H   H343      1.0  0.46942  0.04086  0.73746  1.0000
  H   H344      1.0  0.37136  0.83015  0.63899  1.0000
  H   H345      1.0  0.38842  0.02876  0.62568  1.0000
  S   S81       1.0  0.58888  0.97204  0.80225  1.0000
  H   H346      1.0  0.47955  0.98713  0.73886  1.0000
  H   H347      1.0  0.48319  0.98668  0.69668  1.0000
  Fe  Fe42      1.0  0.55918  0.94052  0.77350  1.0000
  S   S82       1.0  0.50603  0.94140  0.78185  1.0000
  S   S83       1.0  0.43096  0.86602  0.67939  1.0000
  S   S84       1.0  0.40114  0.94325  0.65593  1.0000
  S   S85       1.0  0.58159  0.95230  0.72757  1.0000
  C   C219      1.0  0.48533  0.91894  0.75462  1.0000
  C   C220      1.0  0.45171  0.92069  0.75235  1.0000
  C   C221      1.0  0.43493  0.90381  0.72969  1.0000
  C   C222      1.0  0.45171  0.88473  0.70972  1.0000
  C   C223      1.0  0.48532  0.88264  0.71230  1.0000
  C   C224      1.0  0.50218  0.89988  0.73467  1.0000
  H   H348      1.0  0.43868  0.93556  0.76765  1.0000
  H   H349      1.0  0.40901  0.90581  0.72739  1.0000
  H   H350      1.0  0.49838  0.86828  0.69648  1.0000
  H   H351      1.0  0.52820  0.89859  0.73618  1.0000
  Fe  Fe43      1.0  0.42245  0.89991  0.64262  1.0000
  N   N25       1.0  0.51218  0.01948  0.72065  1.0000
  S   S86       1.0  0.46290  0.00358  0.63580  1.0000
  H   H352      1.0  0.51490  0.97233  0.72088  1.0000
  C   C225      1.0  0.49679  0.99020  0.71920  1.0000
  Fe  Fe44      1.0  0.43680  0.96199  0.62228  1.0000
  S   S87       1.0  0.46147  0.91909  0.61300  1.0000
  C   C226      1.0  0.45315  0.03157  0.60935  1.0000
  Fe  Fe45      1.0  0.36978  0.93625  0.61318  1.0000
  S   S88       1.0  0.38826  0.89113  0.60247  1.0000
  S   S89       1.0  0.59117  0.90179  0.78133  1.0000
  H   H353      1.0  0.54928  0.00657  0.75352  1.0000
  C   C227      1.0  0.52971  0.02307  0.75109  1.0000
  H   H354      1.0  0.51338  0.02019  0.77153  1.0000
  H   H355      1.0  0.49151  0.86344  0.81804  1.0000
  H   H356      1.0  0.55434  0.00542  0.69562  1.0000
  C   C228      1.0  0.51036  0.87867  0.82747  1.0000
  H   H357      1.0  0.51994  0.84828  0.90006  1.0000
  N   N26       1.0  0.52880  0.86565  0.85393  1.0000
  H   H358      1.0  0.57061  0.89288  0.84728  1.0000
  H   H359      1.0  0.52637  0.88420  0.80745  1.0000
  H   H360      1.0  0.53741  0.85201  0.07239  1.0000
  H   H361      1.0  0.56719  0.87797  0.88607  1.0000
  H   H362      1.0  0.54166  0.90775  0.87402  1.0000
  H   H363      1.0  0.49379  0.87788  0.88869  1.0000
  C   C229      1.0  0.57931  0.82419  0.07248  1.0000
  H   H364      1.0  0.60528  0.03300  0.79930  1.0000
  H   H365      1.0  0.52776  0.82249  0.83277  1.0000
  H   H366      1.0  0.49816  0.89937  0.83478  1.0000
  C   C230      1.0  0.55155  0.83635  0.08569  1.0000
  C   C231      1.0  0.55306  0.88698  0.86586  1.0000
  C   C232      1.0  0.54521  0.83879  0.84272  1.0000
  S   S90       1.0  0.59051  0.83459  0.03443  1.0000
  H   H367      1.0  0.56294  0.84381  0.82394  1.0000
  H   H368      1.0  0.55857  0.82788  0.86230  1.0000
  H   H369      1.0  0.48810  0.84189  0.87164  1.0000
  C   C233      1.0  0.50662  0.85810  0.87971  1.0000
  C   C234      1.0  0.48706  0.04232  0.71792  1.0000
  H   H370      1.0  0.32220  0.82749  0.71170  1.0000
  H   H371      1.0  0.16889  0.82434  0.61177  1.0000
  C   C235      1.0  0.60782  0.05413  0.78836  1.0000
  H   H372      1.0  0.20983  0.90943  0.60202  1.0000
  C   C236      1.0  0.53509  0.02235  0.69435  1.0000
  H   H373      1.0  0.54121  0.04511  0.75326  1.0000
  H   H374      1.0  0.52262  0.01978  0.67100  1.0000
  C   C237      1.0  0.14422  0.81487  0.61387  1.0000
  C   C238      1.0  0.33538  0.82033  0.69022  1.0000
  H   H375      1.0  0.28473  0.81241  0.65065  1.0000
  H   H376      1.0  0.28899  0.04404  0.60402  1.0000
  H   H377      1.0  0.47330  0.04000  0.69524  1.0000
  H   H378      1.0  0.54727  0.04414  0.69489  1.0000
  S   S91       1.0  0.68159  0.28689  0.30184  1.0000
  H   H379      1.0  0.67047  0.09829  0.33373  1.0000
  H   H380      1.0  0.70454  0.24003  0.33976  1.0000
  C   C239      1.0  0.67855  0.28081  0.34260  1.0000
  C   C240      1.0  0.66157  0.09431  0.35801  1.0000
  H   H381      1.0  0.64275  0.23379  0.31133  1.0000
  C   C241      1.0  0.69105  0.25475  0.35485  1.0000
  H   H382      1.0  0.63591  0.10136  0.35855  1.0000
  C   C242      1.0  0.66176  0.30007  0.36243  1.0000
  H   H383      1.0  0.67532  0.10900  0.37452  1.0000
  C   C243      1.0  0.77400  0.06815  0.49786  1.0000
  H   H384      1.0  0.66569  0.07286  0.41669  1.0000
  N   N27       1.0  0.66505  0.06317  0.36689  1.0000
  C   C244      1.0  0.65595  0.29238  0.39397  1.0000
  H   H385      1.0  0.71826  0.20916  0.51800  1.0000
  C   C245      1.0  0.82396  0.09954  0.59008  1.0000
  H   H386      1.0  0.79593  0.06517  0.51288  1.0000
  H   H387      1.0  0.78729  0.25950  0.50343  1.0000
  H   H388      1.0  0.74950  0.21186  0.46833  1.0000
  H   H389      1.0  0.71864  0.23492  0.45238  1.0000
  S   S92       1.0  0.78212  0.18081  0.58202  1.0000
  C   C246      1.0  0.66686  0.26543  0.40555  1.0000
  H   H390      1.0  0.82616  0.14685  0.44477  1.0000
  S   S93       1.0  0.65648  0.17346  0.47962  1.0000
  Fe  Fe46      1.0  0.82598  0.19102  0.55382  1.0000
  H   H391      1.0  0.69545  0.22720  0.39548  1.0000
  Fe  Fe47      1.0  0.66943  0.14301  0.43970  1.0000
  S   S94       1.0  0.71368  0.11473  0.43650  1.0000
  S   S95       1.0  0.66085  0.17609  0.40189  1.0000
  C   C247      1.0  0.79863  0.16141  0.48481  1.0000
  C   C248      1.0  0.76831  0.16116  0.49898  1.0000
  C   C249      1.0  0.74215  0.14695  0.48411  1.0000
  C   C250      1.0  0.74635  0.13241  0.45524  1.0000
  C   C251      1.0  0.77681  0.13192  0.44136  1.0000
  C   C252      1.0  0.80280  0.14674  0.45593  1.0000
  H   H392      1.0  0.76460  0.17253  0.52093  1.0000
  H   H393      1.0  0.71884  0.14690  0.49526  1.0000
  H   H394      1.0  0.78018  0.12070  0.41899  1.0000
  S   S96       1.0  0.83054  0.23753  0.57081  1.0000
  C   C253      1.0  0.68542  0.24720  0.38628  1.0000
  N   N28       1.0  0.73700  0.24875  0.49786  1.0000
  C   C254      1.0  0.71188  0.23269  0.51522  1.0000
  C   C255      1.0  0.74146  0.23503  0.46640  1.0000
  C   C256      1.0  0.72696  0.27965  0.49410  1.0000
  S   S97       1.0  0.83118  0.18084  0.50207  1.0000
  Fe  Fe48      1.0  0.64366  0.20517  0.44114  1.0000
  S   S98       1.0  0.65508  0.25343  0.44300  1.0000
  H   H395      1.0  0.68817  0.23364  0.50261  1.0000
  H   H396      1.0  0.77595  0.22476  0.51930  1.0000
  H   H397      1.0  0.75980  0.24694  0.45244  1.0000
  C   C257      1.0  0.76772  0.24773  0.51586  1.0000
  H   H398      1.0  0.82739  0.12142  0.58141  1.0000
  H   H399      1.0  0.70982  0.05775  0.34242  1.0000
  H   H400      1.0  0.76524  0.25800  0.53970  1.0000
  H   H401      1.0  0.70381  0.28125  0.48060  1.0000
  H   H402      1.0  0.74526  0.29250  0.48108  1.0000
  H   H403      1.0  0.71373  0.20388  0.58553  1.0000
  H   H404      1.0  0.70846  0.24217  0.53934  1.0000
  S   S99       1.0  0.86084  0.17356  0.58981  1.0000
  H   H405      1.0  0.78209  0.07611  0.47448  1.0000
  H   H406      1.0  0.62647  0.06482  0.40024  1.0000
  C   C258      1.0  0.83077  0.07558  0.57039  1.0000
  H   H407      1.0  0.84021  0.07929  0.54704  1.0000
  H   H408      1.0  0.72330  0.29056  0.51745  1.0000
  H   H409      1.0  0.71104  0.06265  0.48380  1.0000
  H   H410      1.0  0.75937  0.08593  0.50881  1.0000
  S   S100      1.0  0.62029  0.12316  0.43447  1.0000
  H   H411      1.0  0.64187  0.30675  0.40891  1.0000
  H   H412      1.0  0.89521  0.20527  0.53307  1.0000
  C   C259      1.0  0.90986  0.21363  0.51315  1.0000
  H   H413      1.0  0.96539  0.23086  0.48656  1.0000
  H   H414      1.0  0.89655  0.25524  0.55612  1.0000
  H   H415      1.0  0.92400  0.19478  0.50381  1.0000
  C   C260      1.0  0.94998  0.24862  0.49643  1.0000
  H   H416      1.0  0.96864  0.24623  0.55800  1.0000
  C   C261      1.0  0.91102  0.26245  0.53567  1.0000
  H   H417      1.0  0.89388  0.27067  0.51738  1.0000
  H   H418      1.0  0.93960  0.21922  0.56913  1.0000
  H   H419      1.0  0.96925  0.21019  0.54020  1.0000
  H   H420      1.0  0.96615  0.26716  0.50357  1.0000
  H   H421      1.0  0.89255  0.22041  0.49427  1.0000
  N   N29       1.0  0.93102  0.23816  0.52346  1.0000
  H   H422      1.0  0.93400  0.25654  0.47698  1.0000
  H   H423      1.0  0.92611  0.28135  0.54393  1.0000
  C   C262      1.0  0.95316  0.22802  0.54872  1.0000
  H   H424      1.0  0.71399  0.06863  0.38323  1.0000
  H   H425      1.0  0.61998  0.20034  0.31263  1.0000
  H   H426      1.0  0.61898  0.22269  0.27775  1.0000
  C   C263      1.0  0.61952  0.22336  0.30404  1.0000
  C   C264      1.0  0.65249  0.05900  0.39905  1.0000
  H   H427      1.0  0.61645  0.25034  0.36027  1.0000
  H   H428      1.0  0.61418  0.28204  0.31322  1.0000
  C   C265      1.0  0.72723  0.19645  0.72230  1.0000
  S   S101      1.0  0.80708  0.12536  0.64609  1.0000
  H   H429      1.0  0.70197  0.19114  0.71499  1.0000
  S   S102      1.0  0.65272  0.18975  0.76416  1.0000
  H   H430      1.0  0.76128  0.13155  0.70066  1.0000
  C   C266      1.0  0.66644  0.20435  0.65078  1.0000
  C   C267      1.0  0.67894  0.19520  0.62171  1.0000
  C   C268      1.0  0.71388  0.23795  0.62121  1.0000
  C   C269      1.0  0.70002  0.24795  0.64928  1.0000
  C   C270      1.0  0.67665  0.23095  0.66429  1.0000
  H   H431      1.0  0.67120  0.17457  0.61122  1.0000
  H   H432      1.0  0.70849  0.26814  0.66025  1.0000
  H   H433      1.0  0.66752  0.23803  0.68684  1.0000
  H   H434      1.0  0.71939  0.13966  0.70690  1.0000
  S   S103      1.0  0.67620  0.26753  0.79655  1.0000
  H   H435      1.0  0.80173  0.17165  0.70242  1.0000
  H   H436      1.0  0.78784  0.18301  0.74074  1.0000
  H   H437      1.0  0.74889  0.20464  0.66440  1.0000
  S   S104      1.0  0.81991  0.21149  0.64272  1.0000
  H   H438      1.0  0.72917  0.19395  0.74838  1.0000
  H   H439      1.0  0.72196  0.17355  0.66317  1.0000
  H   H440      1.0  0.78903  0.20887  0.70899  1.0000
  H   H441      1.0  0.74776  0.14256  0.73926  1.0000
  H   H442      1.0  0.73119  0.22005  0.71691  1.0000
  C   C271      1.0  0.78372  0.18561  0.71490  1.0000
  H   H443      1.0  0.76394  0.16847  0.65757  1.0000
  N   N30       1.0  0.75042  0.17744  0.70555  1.0000
  C   C272      1.0  0.74445  0.14641  0.71352  1.0000
  C   C273      1.0  0.74611  0.18128  0.67119  1.0000
  Fe  Fe49      1.0  0.63944  0.23604  0.77661  1.0000
  S   S105      1.0  0.64105  0.18068  0.67143  1.0000
  Fe  Fe50      1.0  0.62587  0.19805  0.71882  1.0000
  C   C274      1.0  0.67606  0.27359  0.90412  1.0000
  H   H444      1.0  0.62788  0.08514  0.71850  1.0000
  C   C275      1.0  0.62074  0.08355  0.74293  1.0000
  C   C276      1.0  0.67727  0.26889  0.83796  1.0000
  S   S106      1.0  0.61678  0.24544  0.72947  1.0000
  H   H445      1.0  0.64480  0.23262  0.84342  1.0000
  S   S107      1.0  0.74703  0.25658  0.60581  1.0000
  C   C277      1.0  0.81323  0.09510  0.62085  1.0000
  C   C278      1.0  0.61517  0.10917  0.76060  1.0000
  C   C279      1.0  0.69534  0.29068  0.85359  1.0000
  C   C280      1.0  0.65884  0.24931  0.85543  1.0000
  C   C281      1.0  0.80789  0.06647  0.63140  1.0000
  Fe  Fe51      1.0  0.81711  0.16695  0.61960  1.0000
  H   H446      1.0  0.64322  0.23710  0.90186  1.0000
  C   C282      1.0  0.70309  0.21172  0.60721  1.0000
  H   H447      1.0  0.61492  0.29231  0.83328  1.0000
  H   H448      1.0  0.79970  0.06292  0.65523  1.0000
  H   H449      1.0  0.62716  0.11734  0.87375  1.0000
  H   H450      1.0  0.61823  0.13030  0.74972  1.0000
  C   C283      1.0  0.67848  0.13876  0.90582  1.0000
  C   C284      1.0  0.89108  0.29270  0.60990  1.0000
  H   H451      1.0  0.96815  0.26844  0.61922  1.0000
  C   C285      1.0  0.94843  0.28324  0.61403  1.0000
  C   C286      1.0  0.91653  0.27351  0.61647  1.0000
  S   S108      1.0  0.90928  0.23673  0.62553  1.0000
  C   C287      1.0  0.62185  0.13352  0.89293  1.0000
  H   H452      1.0  0.69917  0.15413  0.90928  1.0000
  H   H453      1.0  0.65969  0.15578  0.84787  1.0000
  C   C288      1.0  0.65823  0.25166  0.88845  1.0000
  H   H454      1.0  0.63645  0.16418  0.94577  1.0000
  H   H455      1.0  0.67564  0.12629  0.92811  1.0000
  C   C289      1.0  0.69470  0.29306  0.88666  1.0000
  C   C290      1.0  0.64061  0.17563  0.92307  1.0000
  H   H456      1.0  0.67332  0.18732  0.87025  1.0000
  N   N31       1.0  0.64861  0.15470  0.89741  1.0000
  H   H457      1.0  0.68515  0.12277  0.88692  1.0000
  H   H458      1.0  0.66043  0.19182  0.92729  1.0000
  C   C291      1.0  0.65353  0.17089  0.86775  1.0000
  H   H459      1.0  0.61835  0.18825  0.91731  1.0000
  H   H460      1.0  0.63123  0.18273  0.86040  1.0000
  S   S109      1.0  0.67399  0.27663  0.94535  1.0000
  H   H461      1.0  0.86639  0.28532  0.61200  1.0000
  Fe  Fe52      1.0  0.86105  0.21916  0.60991  1.0000
  H   H462      1.0  0.61712  0.12102  0.91484  1.0000
  H   H463      1.0  0.70968  0.30586  0.84013  1.0000
  Fe  Fe53      1.0  0.78906  0.22600  0.60178  1.0000
  C   C292      1.0  0.64871  0.37601  0.15216  1.0000
  S   S110      1.0  0.70109  0.36512  0.27490  1.0000
  C   C293      1.0  0.69713  0.36789  0.12204  1.0000
  C   C294      1.0  0.68223  0.37338  0.15103  1.0000
  Fe  Fe54      1.0  0.66433  0.33023  0.28327  1.0000
  H   H464      1.0  0.72305  0.36541  0.12113  1.0000
  Fe  Fe55      1.0  0.67546  0.37121  0.22854  1.0000
  S   S111      1.0  0.70566  0.37831  0.18551  1.0000
  H   H465      1.0  0.80147  0.40870  0.30206  1.0000
  H   H466      1.0  0.76091  0.47917  0.28197  1.0000
  S   S112      1.0  0.75131  0.51865  0.22764  1.0000
  Fe  Fe56      1.0  0.79729  0.53814  0.24682  1.0000
  H   H467      1.0  0.79662  0.46340  0.23789  1.0000
  H   H468      1.0  0.73806  0.45122  0.23671  1.0000
  H   H469      1.0  0.72288  0.42414  0.26317  1.0000
  C   C295      1.0  0.67792  0.46648  0.31467  1.0000
  C   C296      1.0  0.67842  0.47115  0.28209  1.0000
  C   C297      1.0  0.67997  0.49967  0.27034  1.0000
  C   C298      1.0  0.68017  0.52363  0.29117  1.0000
  C   C299      1.0  0.67908  0.51913  0.32377  1.0000
  C   C300      1.0  0.67835  0.49049  0.33553  1.0000
  H   H470      1.0  0.68074  0.50316  0.24510  1.0000
  H   H471      1.0  0.75907  0.40050  0.30205  1.0000
  C   C301      1.0  0.77958  0.40676  0.28669  1.0000
  H   H472      1.0  0.67796  0.45291  0.26581  1.0000
  C   C302      1.0  0.80092  0.44250  0.25067  1.0000
  Fe  Fe57      1.0  0.66406  0.39596  0.29395  1.0000
  S   S113      1.0  0.83033  0.51030  0.27623  1.0000
  H   H473      1.0  0.74607  0.45240  0.30901  1.0000
  H   H474      1.0  0.78821  0.46205  0.30903  1.0000
  H   H475      1.0  0.78344  0.38831  0.26970  1.0000
  H   H476      1.0  0.74803  0.41317  0.23110  1.0000
  H   H477      1.0  0.80626  0.42523  0.23272  1.0000
  S   S114      1.0  0.67676  0.43088  0.32972  1.0000
  C   C303      1.0  0.74424  0.43063  0.24931  1.0000
  N   N32       1.0  0.77288  0.43450  0.27005  1.0000
  H   H478      1.0  0.82299  0.44585  0.26556  1.0000
  C   C304      1.0  0.76671  0.45800  0.29356  1.0000
  H   H479      1.0  0.63719  0.38006  0.17450  1.0000
  S   S115      1.0  0.64145  0.33341  0.23498  1.0000
  C   C305      1.0  0.63011  0.37388  0.12431  1.0000
  S   S116      1.0  0.64128  0.40521  0.24693  1.0000
  H   H480      1.0  0.67958  0.53770  0.33990  1.0000
  S   S117      1.0  0.75005  0.52850  0.13695  1.0000
  Fe  Fe58      1.0  0.76089  0.54647  0.18545  1.0000
  H   H481      1.0  0.99295  0.43989  0.58564  1.0000
  H   H482      1.0  0.65239  0.32040  0.35331  1.0000
  C   C306      1.0  0.86375  0.52971  0.29146  1.0000
  H   H483      1.0  0.71550  0.45961  0.13674  1.0000
  C   C307      1.0  0.76369  0.55355  0.10891  1.0000
  H   H484      1.0  0.68478  0.43488  0.12202  1.0000
  H   H485      1.0  0.67806  0.48695  0.36079  1.0000
  H   H486      1.0  0.72595  0.42308  0.12463  1.0000
  C   C308      1.0  0.71023  0.44209  0.11885  1.0000
  S   S118      1.0  0.92630  0.55408  0.42172  1.0000
  H   H487      1.0  0.61251  0.44442  0.30343  1.0000
  H   H488      1.0  0.75821  0.47666  0.10075  1.0000
  H   H489      1.0  0.99703  0.53646  0.31474  1.0000
  H   H490      1.0  0.06770  0.51636  0.30991  1.0000
  H   H491      1.0  0.86774  0.50278  0.33287  1.0000
  C   C309      1.0  0.87751  0.52131  0.32034  1.0000
  C   C310      1.0  0.90334  0.53730  0.33358  1.0000
  H   H492      1.0  0.08331  0.54196  0.33896  1.0000
  C   C311      1.0  0.06083  0.53387  0.32703  1.0000
  H   H493      1.0  0.04602  0.52342  0.34560  1.0000
  H   H494      1.0  0.01805  0.52919  0.27864  1.0000
  H   H495      1.0  0.88351  0.45606  0.52992  1.0000
  H   H496      1.0  0.86431  0.48868  0.51514  1.0000
  H   H497      1.0  0.09573  0.43375  0.44376  1.0000
  C   C312      1.0  0.99551  0.46109  0.59668  1.0000
  H   H498      1.0  0.10962  0.50587  0.48256  1.0000
  H   H499      1.0  0.61623  0.49878  0.30579  1.0000
  H   H500      1.0  0.10791  0.45269  0.52836  1.0000
  H   H501      1.0  0.90383  0.48441  0.57612  1.0000
  C   C313      1.0  0.88721  0.47598  0.51538  1.0000
  H   H502      1.0  0.92495  0.41441  0.46615  1.0000
  S   S119      1.0  0.93765  0.36651  0.58420  1.0000
  H   H503      1.0  0.94203  0.45608  0.54165  1.0000
  H   H504      1.0  0.96542  0.48885  0.53643  1.0000
  C   C314      1.0  0.94433  0.47618  0.52710  1.0000
  S   S120      1.0  0.07587  0.38220  0.53873  1.0000
  H   H505      1.0  0.07553  0.46712  0.43352  1.0000
  H   H506      1.0  0.89684  0.53434  0.50793  1.0000
  C   C315      1.0  0.09457  0.45770  0.44914  1.0000
  C   C316      1.0  0.97168  0.39457  0.46035  1.0000
  C   C317      1.0  0.00913  0.42111  0.42771  1.0000
  S   S121      1.0  0.99004  0.52776  0.45945  1.0000
  S   S122      1.0  0.92777  0.46953  0.43439  1.0000
  C   C318      1.0  0.05582  0.45026  0.49027  1.0000
  H   H507      1.0  0.03621  0.45975  0.47539  1.0000
  H   H508      1.0  0.89155  0.46834  0.49071  1.0000
  Fe  Fe59      1.0  0.95317  0.51164  0.42446  1.0000
  H   H509      1.0  0.03272  0.42313  0.41730  1.0000
  H   H510      1.0  0.04944  0.45423  0.51535  1.0000
  S   S123      1.0  0.98361  0.52031  0.38244  1.0000
  H   H511      1.0  0.96628  0.37604  0.47519  1.0000
  C   C319      1.0  0.94837  0.41630  0.45534  1.0000
  Fe  Fe60      1.0  0.98862  0.36970  0.56743  1.0000
  S   S124      1.0  0.06988  0.52596  0.41198  1.0000
  H   H512      1.0  0.87794  0.33638  0.59538  1.0000
  C   C320      1.0  0.09943  0.55313  0.40771  1.0000
  S   S125      1.0  0.01516  0.33455  0.54085  1.0000
  Fe  Fe61      1.0  0.04399  0.41284  0.56553  1.0000
  S   S126      1.0  0.00110  0.40545  0.53393  1.0000
  H   H513      1.0  0.95018  0.46891  0.50260  1.0000
  H   H514      1.0  0.92814  0.51650  0.57058  1.0000
  C   C321      1.0  0.00214  0.39707  0.44675  1.0000
  H   H515      1.0  0.92267  0.51366  0.48256  1.0000
  H   H516      1.0  0.88578  0.51738  0.56154  1.0000
  C   C322      1.0  0.90776  0.50345  0.56038  1.0000
  C   C323      1.0  0.95581  0.44096  0.43743  1.0000
  H   H517      1.0  0.08243  0.49979  0.51478  1.0000
  C   C324      1.0  0.08660  0.49510  0.48926  1.0000
  Fe  Fe62      1.0  0.03149  0.37149  0.51026  1.0000
  N   N33       1.0  0.91446  0.49389  0.52763  1.0000
  Fe  Fe63      1.0  0.05727  0.34808  0.57174  1.0000
  H   H518      1.0  0.05576  0.42614  0.48608  1.0000
  Fe  Fe64      1.0  0.01845  0.54056  0.41710  1.0000
  H   H519      1.0  0.93947  0.53357  0.51565  1.0000
  C   C325      1.0  0.98616  0.44333  0.42353  1.0000
  S   S127      1.0  0.03280  0.37266  0.45753  1.0000
  C   C326      1.0  0.91853  0.51999  0.50762  1.0000
  H   H520      1.0  0.99201  0.46229  0.40962  1.0000
  N   N34       1.0  0.08748  0.46318  0.48284  1.0000
  H   H521      1.0  0.06689  0.50585  0.47559  1.0000
  H   H522      1.0  0.91321  0.53102  0.35626  1.0000
  S   S128      1.0  0.05910  0.45798  0.58110  1.0000
  S   S129      1.0  0.08888  0.31585  0.59712  1.0000
  C   C327      1.0  0.92956  0.33094  0.59719  1.0000
  C   C328      1.0  0.01305  0.54638  0.29677  1.0000
  S   S130      1.0  0.62916  0.36054  0.30653  1.0000
  C   C329      1.0  0.87666  0.55353  0.27523  1.0000
  H   H523      1.0  0.07013  0.55440  0.26846  1.0000
  H   H524      1.0  0.61519  0.47439  0.25412  1.0000
  C   C330      1.0  0.02568  0.47475  0.59857  1.0000
  H   H525      1.0  0.83364  0.50829  0.82206  1.0000
  H   H526      1.0  0.63787  0.32447  0.82432  1.0000
  C   C331      1.0  0.10918  0.51809  0.76151  1.0000
  H   H527      1.0  0.61695  0.37418  0.84248  1.0000
  H   H528      1.0  0.85835  0.43353  0.88767  1.0000
  C   C332      1.0  0.62828  0.55545  0.92805  1.0000
  H   H529      1.0  0.88453  0.45091  0.91653  1.0000
  C   C333      1.0  0.85528  0.51303  0.83575  1.0000
  C   C334      1.0  0.88127  0.53472  0.88211  1.0000
  S   S131      1.0  0.99280  0.54960  0.71032  1.0000
  C   C335      1.0  0.96843  0.47460  0.60963  1.0000
  S   S132      1.0  0.88836  0.48872  0.78649  1.0000
  C   C336      1.0  0.88546  0.50501  0.82394  1.0000
  H   H530      1.0  0.96197  0.41220  0.63304  1.0000
  C   C337      1.0  0.96674  0.41789  0.65835  1.0000
  H   H531      1.0  0.99258  0.42447  0.66052  1.0000
  H   H532      1.0  0.95201  0.43757  0.66429  1.0000
  Fe  Fe65      1.0  0.92877  0.50978  0.76002  1.0000
  Fe  Fe66      1.0  0.99967  0.51256  0.74397  1.0000
  S   S133      1.0  0.04944  0.49412  0.74993  1.0000
  Fe  Fe67      1.0  0.94916  0.52467  0.69382  1.0000
  S   S134      1.0  0.93758  0.51744  0.64246  1.0000
  S   S135      1.0  0.95859  0.48571  0.72433  1.0000
  C   C338      1.0  0.02892  0.50165  0.61449  1.0000
  C   C339      1.0  0.00194  0.51469  0.62857  1.0000
  H   H533      1.0  0.00467  0.53514  0.64144  1.0000
  C   C340      1.0  0.96546  0.40151  0.71238  1.0000
  H   H534      1.0  0.90864  0.40366  0.68105  1.0000
  H   H535      1.0  0.93665  0.50428  0.83301  1.0000
  H   H536      1.0  0.97423  0.34823  0.68542  1.0000
  H   H537      1.0  0.91810  0.36611  0.69004  1.0000
  N   N35       1.0  0.95911  0.39298  0.67907  1.0000
  C   C341      1.0  0.97948  0.36760  0.67051  1.0000
  H   H538      1.0  0.99097  0.40864  0.71611  1.0000
  H   H539      1.0  0.94983  0.42013  0.71983  1.0000
  H   H540      1.0  0.91918  0.37849  0.64996  1.0000
  H   H541      1.0  0.97524  0.36076  0.64547  1.0000
  C   C342      1.0  0.07584  0.52291  0.76036  1.0000
  H   H542      1.0  0.00561  0.37285  0.67324  1.0000
  C   C343      1.0  0.92474  0.38497  0.67491  1.0000
  C   C344      1.0  0.97162  0.50131  0.62570  1.0000
  H   H543      1.0  0.05233  0.51209  0.61645  1.0000
  S   S136      1.0  0.97079  0.53322  0.78280  1.0000
  H   H544      1.0  0.96078  0.38301  0.72866  1.0000
  H   H545      1.0  0.64821  0.55432  0.91064  1.0000
  S   S137      1.0  0.02907  0.37984  0.60121  1.0000
  C   C345      1.0  0.95496  0.31181  0.60402  1.0000
  S   S138      1.0  0.91564  0.54663  0.72763  1.0000
  H   H546      1.0  0.97969  0.31900  0.60171  1.0000
  C   C346      1.0  0.86157  0.45338  0.90292  1.0000
  C   C347      1.0  0.06369  0.55085  0.76726  1.0000
  H   H547      1.0  0.94525  0.46374  0.60823  1.0000
  H   H548      1.0  0.70216  0.49692  0.09746  1.0000
  H   H549      1.0  0.03800  0.55472  0.76676  1.0000
  C   C348      1.0  0.91125  0.52570  0.87080  1.0000
  S   S139      1.0  0.80396  0.55488  0.97133  1.0000
  C   C349      1.0  0.61581  0.33014  0.88311  1.0000
  H   H550      1.0  0.76587  0.44037  0.08578  1.0000
  H   H551      1.0  0.82577  0.41153  0.93075  1.0000
  H   H552      1.0  0.79892  0.44160  0.89006  1.0000
  H   H553      1.0  0.68105  0.42280  0.06536  1.0000
  C   C350      1.0  0.69586  0.47884  0.08055  1.0000
  C   C351      1.0  0.70686  0.42930  0.06328  1.0000
  H   H554      1.0  0.71063  0.43660  0.03856  1.0000
  C   C352      1.0  0.85321  0.52816  0.86471  1.0000
  H   H555      1.0  0.82995  0.53463  0.87348  1.0000
  H   H556      1.0  0.61694  0.48197  0.93633  1.0000
  H   H557      1.0  0.72169  0.40920  0.06665  1.0000
  N   N36       1.0  0.71579  0.45255  0.08640  1.0000
  S   S140      1.0  0.61897  0.40664  0.90889  1.0000
  H   H558      1.0  0.81917  0.48771  0.96079  1.0000
  H   H559      1.0  0.86477  0.47236  0.88698  1.0000
  H   H560      1.0  0.74735  0.52783  0.06878  1.0000
  C   C353      1.0  0.83913  0.48431  0.94380  1.0000
  H   H561      1.0  0.78273  0.46497  0.92026  1.0000
  H   H562      1.0  0.80575  0.48056  0.88903  1.0000
  C   C354      1.0  0.75025  0.46003  0.08287  1.0000
  S   S141      1.0  0.62589  0.34342  0.97115  1.0000
  H   H563      1.0  0.70905  0.30963  0.89865  1.0000
  S   S142      1.0  0.71955  0.53097  0.93384  1.0000
  H   H564      1.0  0.81021  0.43459  0.96134  1.0000
  H   H565      1.0  0.85274  0.42839  0.95925  1.0000
  S   S143      1.0  0.69318  0.36135  0.93471  1.0000
  Fe  Fe68      1.0  0.67452  0.32352  0.96279  1.0000
  S   S144      1.0  0.69580  0.33945  0.00908  1.0000
  Fe  Fe69      1.0  0.64859  0.36271  0.01508  1.0000
  Fe  Fe70      1.0  0.70963  0.37942  0.98171  1.0000
  H   H566      1.0  0.69012  0.36123  0.07198  1.0000
  H   H567      1.0  0.71123  0.42439  0.93952  1.0000
  S   S145      1.0  0.66392  0.40379  0.99108  1.0000
  C   C355      1.0  0.74401  0.44159  0.97504  1.0000
  C   C356      1.0  0.75803  0.46692  0.98809  1.0000
  C   C357      1.0  0.74963  0.49453  0.97628  1.0000
  C   C358      1.0  0.72826  0.49681  0.95057  1.0000
  C   C359      1.0  0.71431  0.47142  0.93754  1.0000
  C   C360      1.0  0.72197  0.44388  0.94992  1.0000
  H   H568      1.0  0.75921  0.51404  0.98749  1.0000
  H   H569      1.0  0.69811  0.47285  0.91742  1.0000
  S   S146      1.0  0.75363  0.40712  0.99034  1.0000
  N   N37       1.0  0.83383  0.45773  0.92410  1.0000
  H   H570      1.0  0.77511  0.46522  0.00747  1.0000
  S   S147      1.0  0.62132  0.36750  0.06047  1.0000
  Fe  Fe71      1.0  0.64613  0.38238  0.94649  1.0000
  C   C361      1.0  0.83058  0.43193  0.94472  1.0000
  C   C362      1.0  0.80403  0.46134  0.90499  1.0000
  H   H571      1.0  0.84036  0.50434  0.92907  1.0000
  H   H572      1.0  0.75502  0.46927  0.05919  1.0000
  C   C363      1.0  0.75941  0.54767  0.07658  1.0000
  H   H573      1.0  0.64040  0.33957  0.88030  1.0000
  C   C364      1.0  0.67851  0.36551  0.09420  1.0000
  C   C365      1.0  0.64498  0.36878  0.09522  1.0000
  H   H574      1.0  0.61332  0.52127  0.87785  1.0000
  H   H575      1.0  0.86208  0.48314  0.95762  1.0000
  H   H576      1.0  0.69942  0.48730  0.05624  1.0000
  H   H577      1.0  0.64994  0.50058  0.91800  1.0000
  C   C366      1.0  0.63053  0.50306  0.93575  1.0000
  H   H578      1.0  0.66973  0.47390  0.08323  1.0000
  H   H579      1.0  0.64264  0.50620  0.95916  1.0000
  H   H580      1.0  0.93299  0.53045  0.88435  1.0000
  C   C367      1.0  0.91337  0.51109  0.84165  1.0000
  S   S148      1.0  0.87983  0.55456  0.91771  1.0000
  C   C368      1.0  0.61294  0.31607  0.82794  1.0000
  H   H581      1.0  0.61877  0.30700  0.89073  1.0000
  C   C369      1.0  0.89762  0.32155  0.60055  1.0000
  N   N38       1.0  0.64626  0.62989  0.22716  1.0000
  Fe  Fe72      1.0  0.78031  0.59919  0.22468  1.0000
  S   S149      1.0  0.79235  0.64700  0.22896  1.0000
  S   S150      1.0  0.73302  0.58511  0.20340  1.0000
  S   S151      1.0  0.77279  0.57595  0.27027  1.0000
  C   C370      1.0  0.64842  0.60369  0.20644  1.0000
  C   C371      1.0  0.76250  0.66673  0.20864  1.0000
  C   C372      1.0  0.74916  0.69193  0.22238  1.0000
  C   C373      1.0  0.72324  0.70625  0.20749  1.0000
  C   C374      1.0  0.71111  0.69568  0.17856  1.0000
  C   C375      1.0  0.72507  0.67096  0.16441  1.0000
  C   C376      1.0  0.75057  0.65636  0.17954  1.0000
  H   H582      1.0  0.75834  0.70004  0.24486  1.0000
  H   H583      1.0  0.71563  0.66261  0.14219  1.0000
  H   H584      1.0  0.76105  0.63706  0.16868  1.0000
  H   H585      1.0  0.65965  0.58494  0.21910  1.0000
  H   H586      1.0  0.69080  0.62138  0.25199  1.0000
  H   H587      1.0  0.67820  0.65913  0.25271  1.0000
  S   S152      1.0  0.67775  0.71227  0.16030  1.0000
  H   H588      1.0  0.71289  0.72562  0.21825  1.0000
  C   C377      1.0  0.67892  0.63887  0.23782  1.0000
  H   H589      1.0  0.69471  0.64354  0.21745  1.0000
  Fe  Fe73      1.0  0.63306  0.77817  0.24970  1.0000
  S   S153      1.0  0.64771  0.73074  0.24739  1.0000
  Fe  Fe74      1.0  0.64627  0.73641  0.19476  1.0000
  H   H590      1.0  0.66333  0.60814  0.18530  1.0000
  C   C378      1.0  0.80681  0.64718  0.31145  1.0000
  H   H591      1.0  0.78202  0.58436  0.14367  1.0000
  S   S154      1.0  0.63676  0.78483  0.19728  1.0000
  N   N39       1.0  0.84040  0.63655  0.31422  1.0000
  H   H592      1.0  0.79156  0.63164  0.29741  1.0000
  H   H593      1.0  0.82788  0.59069  0.31596  1.0000
  H   H594      1.0  0.80556  0.66859  0.29900  1.0000
  H   H595      1.0  0.84137  0.61622  0.26811  1.0000
  C   C379      1.0  0.84085  0.60781  0.33016  1.0000
  C   C380      1.0  0.77896  0.57948  0.11880  1.0000
  H   H596      1.0  0.85236  0.65418  0.26879  1.0000
  H   H597      1.0  0.80297  0.61896  0.10426  1.0000
  H   H598      1.0  0.86654  0.55973  0.25259  1.0000
  C   C381      1.0  0.62654  0.62303  0.25500  1.0000
  C   C382      1.0  0.85423  0.63340  0.28233  1.0000
  H   H599      1.0  0.86016  0.67973  0.32139  1.0000
  H   H600      1.0  0.64558  0.66022  0.18850  1.0000
  H   H601      1.0  0.86595  0.59985  0.33392  1.0000
  H   H602      1.0  0.62414  0.59641  0.19801  1.0000
  H   H603      1.0  0.89402  0.79900  0.59605  1.0000
  S   S155      1.0  0.80932  0.56281  0.20288  1.0000
  C   C383      1.0  0.63107  0.65405  0.20941  1.0000
  H   H604      1.0  0.96492  0.56001  0.59614  1.0000
  H   H605      1.0  0.63713  0.60473  0.26885  1.0000
  H   H606      1.0  0.79550  0.65000  0.33498  1.0000
  H   H607      1.0  0.62467  0.64231  0.27124  1.0000
  Fe  Fe75      1.0  0.72784  0.55893  0.24725  1.0000
  C   C384      1.0  0.97593  0.58191  0.59223  1.0000
  H   H608      1.0  0.62871  0.67395  0.22450  1.0000
  S   S156      1.0  0.93514  0.75023  0.58721  1.0000
  C   C385      1.0  0.10941  0.71975  0.56468  1.0000
  H   H609      1.0  0.94393  0.69139  0.54811  1.0000
  H   H610      1.0  0.08644  0.57990  0.29716  1.0000
  H   H611      1.0  0.92054  0.61102  0.58685  1.0000
  H   H612      1.0  0.10149  0.71659  0.54041  1.0000
  H   H613      1.0  0.02113  0.59905  0.32433  1.0000
  H   H614      1.0  0.88013  0.62731  0.28354  1.0000
  S   S157      1.0  0.94635  0.58308  0.33536  1.0000
  H   H615      1.0  0.91367  0.58690  0.27515  1.0000
  H   H616      1.0  0.99877  0.56409  0.28525  1.0000
  C   C386      1.0  0.03506  0.58071  0.33506  1.0000
  C   C387      1.0  0.06357  0.57096  0.28679  1.0000
  H   H617      1.0  0.05095  0.58930  0.27465  1.0000
  C   C388      1.0  0.90322  0.56894  0.28803  1.0000
  C   C389      1.0  0.91599  0.56136  0.31763  1.0000
  H   H618      1.0  0.10898  0.62713  0.40265  1.0000
  C   C390      1.0  0.85981  0.65788  0.33290  1.0000
  H   H619      1.0  0.82931  0.60902  0.35374  1.0000
  H   H620      1.0  0.85001  0.66085  0.35710  1.0000
  H   H621      1.0  0.88530  0.65040  0.33552  1.0000
  C   C391      1.0  0.94555  0.64925  0.52477  1.0000
  C   C392      1.0  0.09128  0.58286  0.40730  1.0000
  C   C393      1.0  0.08654  0.72296  0.58858  1.0000
  H   H622      1.0  0.00255  0.57945  0.59463  1.0000
  C   C394      1.0  0.91635  0.77612  0.47657  1.0000
  S   S158      1.0  0.98556  0.72916  0.51301  1.0000
  H   H623      1.0  0.09305  0.78364  0.59370  1.0000
  H   H624      1.0  0.06114  0.72222  0.58258  1.0000
  H   H625      1.0  0.89654  0.76552  0.48988  1.0000
  H   H626      1.0  0.91628  0.79025  0.53763  1.0000
  S   S159      1.0  0.01012  0.77457  0.58884  1.0000
  H   H627      1.0  0.05709  0.59007  0.34664  1.0000
  Fe  Fe76      1.0  0.98204  0.73851  0.56497  1.0000
  Fe  Fe77      1.0  0.96035  0.56452  0.38259  1.0000
  H   H628      1.0  0.90817  0.77830  0.45157  1.0000
  H   H629      1.0  0.06659  0.58957  0.41050  1.0000
  H   H630      1.0  0.95728  0.78634  0.52548  1.0000
  S   S160      1.0  0.95029  0.59483  0.49817  1.0000
  H   H631      1.0  0.01983  0.57145  0.35387  1.0000
  H   H632      1.0  0.98827  0.63372  0.45870  1.0000
  C   C395      1.0  0.97824  0.64630  0.47792  1.0000
  C   C396      1.0  0.97402  0.69244  0.50696  1.0000
  C   C397      1.0  0.95842  0.63268  0.49997  1.0000
  H   H633      1.0  0.93715  0.76064  0.47694  1.0000
  C   C398      1.0  0.95362  0.67894  0.52853  1.0000
  H   H634      1.0  0.97054  0.58820  0.56732  1.0000
  C   C399      1.0  0.93567  0.80075  0.52379  1.0000
  C   C400      1.0  0.98583  0.67627  0.48128  1.0000
  H   H635      1.0  0.92945  0.63909  0.54128  1.0000
  H   H636      1.0  0.97188  0.64018  0.58396  1.0000
  Fe  Fe78      1.0  0.96555  0.57128  0.45382  1.0000
  S   S161      1.0  0.99751  0.58591  0.41441  1.0000
  H   H637      1.0  0.00168  0.68662  0.46459  1.0000
  S   S162      1.0  0.68326  0.55904  0.27632  1.0000
  N   N40       1.0  0.92526  0.80488  0.49065  1.0000
  H   H638      1.0  0.97366  0.80323  0.47317  1.0000
  N   N41       1.0  0.04313  0.55795  0.31138  1.0000
  H   H639      1.0  0.69939  0.76820  0.82413  1.0000
  C   C401      1.0  0.69654  0.78118  0.84632  1.0000
  H   H640      1.0  0.74360  0.74021  0.84982  1.0000
  H   H641      1.0  0.67070  0.78743  0.84778  1.0000
  H   H642      1.0  0.71069  0.80182  0.84419  1.0000
  C   C402      1.0  0.72766  0.70425  0.08198  1.0000
  H   H643      1.0  0.86821  0.63082  0.87121  1.0000
  H   H644      1.0  0.88459  0.56802  0.81687  1.0000
  H   H645      1.0  0.84094  0.61848  0.84052  1.0000
  C   C403      1.0  0.86445  0.61383  0.85243  1.0000
  H   H646      1.0  0.91626  0.58442  0.61765  1.0000
  S   S163      1.0  0.96317  0.61573  0.76047  1.0000
  H   H647      1.0  0.97067  0.69394  0.68278  1.0000
  C   C404      1.0  0.94864  0.63675  0.72902  1.0000
  C   C405      1.0  0.91938  0.62942  0.71417  1.0000
  C   C406      1.0  0.90830  0.64572  0.68833  1.0000
  C   C407      1.0  0.96678  0.66041  0.71808  1.0000
  H   H648      1.0  0.90514  0.61135  0.72273  1.0000
  H   H649      1.0  0.88560  0.64006  0.67692  1.0000
  C   C408      1.0  0.92688  0.66885  0.67679  1.0000
  H   H650      1.0  0.98946  0.66605  0.72955  1.0000
  C   C409      1.0  0.95614  0.67620  0.69166  1.0000
  S   S164      1.0  0.91413  0.68701  0.64258  1.0000
  S   S165      1.0  0.97543  0.75409  0.65502  1.0000
  S   S166      1.0  0.06822  0.73569  0.64909  1.0000
  Fe  Fe79      1.0  0.01911  0.74169  0.62701  1.0000
  Fe  Fe80      1.0  0.96024  0.56809  0.74732  1.0000
  H   H651      1.0  0.90544  0.58925  0.78822  1.0000
  H   H652      1.0  0.87082  0.64698  0.80046  1.0000
  C   C410      1.0  0.88567  0.59001  0.80580  1.0000
  Fe  Fe81      1.0  0.95044  0.71955  0.62550  1.0000
  H   H653      1.0  0.86262  0.59337  0.79263  1.0000
  H   H654      1.0  0.99840  0.59285  0.65075  1.0000
  H   H655      1.0  0.07519  0.59538  0.78083  1.0000
  H   H656      1.0  0.92734  0.62482  0.86480  1.0000
  H   H657      1.0  0.96026  0.57443  0.65389  1.0000
  C   C411      1.0  0.97190  0.59544  0.64748  1.0000
  C   C412      1.0  0.89335  0.64206  0.81392  1.0000
  C   C413      1.0  0.09658  0.72802  0.61984  1.0000
  H   H658      1.0  0.96379  0.61220  0.66493  1.0000
  Fe  Fe82      1.0  0.96404  0.78376  0.61439  1.0000
  H   H659      1.0  0.91361  0.64257  0.79688  1.0000
  H   H660      1.0  0.00454  0.63235  0.61073  1.0000
  C   C414      1.0  0.08477  0.57389  0.77529  1.0000
  C   C415      1.0  0.92198  0.60752  0.84676  1.0000
  H   H661      1.0  0.08755  0.65585  0.69814  1.0000
  H   H662      1.0  0.89747  0.66019  0.83132  1.0000
  N   N42       1.0  0.89134  0.61336  0.82974  1.0000
  H   H663      1.0  0.91775  0.62289  0.62712  1.0000
  N   N43       1.0  0.96339  0.60391  0.61483  1.0000
  C   C416      1.0  0.92792  0.60560  0.61144  1.0000
  H   H664      1.0  0.96870  0.64984  0.62492  1.0000
  H   H665      1.0  0.86200  0.59243  0.86453  1.0000
  C   C417      1.0  0.97780  0.63280  0.60827  1.0000
  S   S167      1.0  0.99508  0.70466  0.60081  1.0000
  H   H666      1.0  0.92112  0.58621  0.85934  1.0000
  H   H667      1.0  0.10389  0.69209  0.69384  1.0000
  C   C418      1.0  0.10916  0.66830  0.69043  1.0000
  H   H668      1.0  0.70930  0.64750  0.08572  1.0000
  C   C419      1.0  0.79069  0.59915  0.09647  1.0000
  H   H669      1.0  0.94270  0.60656  0.83019  1.0000
  H   H670      1.0  0.76712  0.56317  0.02930  1.0000
  H   H671      1.0  0.63962  0.55985  0.95160  1.0000
  H   H672      1.0  0.75699  0.77406  0.86813  1.0000
  H   H673      1.0  0.75253  0.65023  0.08712  1.0000
  H   H674      1.0  0.61950  0.79505  0.07986  1.0000
  H   H675      1.0  0.68757  0.72345  0.85607  1.0000
  H   H676      1.0  0.69755  0.70534  0.02603  1.0000
  S   S168      1.0  0.61321  0.79163  0.88607  1.0000
  C   C420      1.0  0.74058  0.75493  0.87072  1.0000
  H   H677      1.0  0.72663  0.72669  0.07177  1.0000
  H   H678      1.0  0.66006  0.74433  0.87980  1.0000
  C   C421      1.0  0.68587  0.73809  0.87717  1.0000
  H   H679      1.0  0.75866  0.70871  0.02754  1.0000
  C   C422      1.0  0.70008  0.68322  0.03656  1.0000
  H   H680      1.0  0.71957  0.80255  0.90201  1.0000
  C   C423      1.0  0.77080  0.56758  0.05420  1.0000
  H   H681      1.0  0.73288  0.63457  0.05301  1.0000
  H   H682      1.0  0.71073  0.77054  0.92472  1.0000
  C   C424      1.0  0.78679  0.59316  0.06417  1.0000
  C   C425      1.0  0.75829  0.68628  0.03764  1.0000
  H   H683      1.0  0.69414  0.70160  0.96460  1.0000
  H   H684      1.0  0.67872  0.79061  0.90621  1.0000
  S   S169      1.0  0.80110  0.61842  0.03672  1.0000
  S   S170      1.0  0.82968  0.61950  0.94975  1.0000
  H   H685      1.0  0.70097  0.66699  0.01675  1.0000
  Fe  Fe83      1.0  0.61873  0.77950  0.93733  1.0000
  H   H686      1.0  0.69270  0.72493  0.89816  1.0000
  H   H687      1.0  0.80605  0.71373  0.92675  1.0000
  H   H688      1.0  0.74899  0.74256  0.89169  1.0000
  C   C426      1.0  0.76219  0.68850  0.92277  1.0000
  C   C427      1.0  0.71830  0.70466  0.95603  1.0000
  H   H689      1.0  0.78389  0.74882  0.96620  1.0000
  C   C428      1.0  0.70386  0.78279  0.90303  1.0000
  C   C429      1.0  0.73085  0.68479  0.93392  1.0000
  S   S171      1.0  0.75168  0.60859  0.95922  1.0000
  C   C430      1.0  0.73096  0.65216  0.07136  1.0000
  Fe  Fe84      1.0  0.66799  0.76044  0.98627  1.0000
  Fe  Fe85      1.0  0.76046  0.56315  0.94050  1.0000
  Fe  Fe86      1.0  0.83181  0.57340  0.93120  1.0000
  S   S172      1.0  0.63149  0.75584  0.02456  1.0000
  S   S173      1.0  0.72124  0.75404  0.99346  1.0000
  C   C431      1.0  0.76904  0.73100  0.95714  1.0000
  S   S174      1.0  0.63927  0.73551  0.94969  1.0000
  S   S175      1.0  0.78904  0.57798  0.89871  1.0000
  H   H690      1.0  0.71616  0.66674  0.92518  1.0000
  N   N44       1.0  0.72924  0.68149  0.05689  1.0000
  C   C432      1.0  0.73720  0.72807  0.96723  1.0000
  H   H691      1.0  0.78082  0.68353  0.05189  1.0000
  Fe  Fe87      1.0  0.78459  0.62263  0.92060  1.0000
  N   N45       1.0  0.70671  0.76426  0.87431  1.0000
  H   H692      1.0  0.75956  0.67033  0.01756  1.0000
  S   S176      1.0  0.77730  0.66431  0.89433  1.0000
  C   C433      1.0  0.78152  0.71128  0.93479  1.0000
  Fe  Fe88      1.0  0.79731  0.60160  0.98684  1.0000
  H   H693      1.0  0.67778  0.67902  0.05018  1.0000
  H   H694      1.0  0.61292  0.57472  0.92200  1.0000
  H   H695      1.0  0.70586  0.70155  0.09680  1.0000
  S   S177      1.0  0.65067  0.80461  0.97100  1.0000
  H   H696      1.0  0.11194  0.66450  0.66457  1.0000
  H   H697      1.0  0.74910  0.70337  0.09805  1.0000
  H   H698      1.0  0.65943  0.86812  0.31389  1.0000
  C   C434      1.0  0.63620  0.85853  0.31898  1.0000
  C   C435      1.0  0.62845  0.83052  0.30717  1.0000
  H   H699      1.0  0.64880  0.02077  0.35038  1.0000
  C   C436      1.0  0.64666  0.04444  0.34431  1.0000
  H   H700      1.0  0.65534  0.04703  0.31972  1.0000
  H   H701      1.0  0.61962  0.89623  0.34538  1.0000
  C   C437      1.0  0.69951  0.05492  0.36634  1.0000
  H   H702      1.0  0.61394  0.95148  0.54102  1.0000
  H   H703      1.0  0.07677  0.81060  0.56753  1.0000
  H   H704      1.0  0.62052  0.04996  0.34422  1.0000
  S   S178      1.0  0.65552  0.81225  0.28205  1.0000
  H   H705      1.0  0.72904  0.04776  0.53751  1.0000
  Fe  Fe89      1.0  0.62203  0.97090  0.38987  1.0000
  H   H706      1.0  0.10817  0.85620  0.55721  1.0000
  H   H707      1.0  0.62801  0.88178  0.49632  1.0000
  H   H708      1.0  0.79799  0.01349  0.49572  1.0000
  H   H709      1.0  0.64749  0.91194  0.51647  1.0000
  C   C438      1.0  0.72698  0.04517  0.47413  1.0000
  H   H710      1.0  0.70294  0.03152  0.37301  1.0000
  C   C439      1.0  0.62574  0.90550  0.50232  1.0000
  C   C440      1.0  0.74491  0.03109  0.52631  1.0000
  C   C441      1.0  0.82551  0.04700  0.58081  1.0000
  S   S179      1.0  0.83140  0.93763  0.59394  1.0000
  Fe  Fe90      1.0  0.74554  0.94494  0.55688  1.0000
  S   S180      1.0  0.69447  0.95501  0.54250  1.0000
  S   S181      1.0  0.79002  0.94867  0.52760  1.0000
  S   S182      1.0  0.67524  0.97657  0.39677  1.0000
  C   C442      1.0  0.69043  0.96210  0.50207  1.0000
  C   C443      1.0  0.71389  0.95286  0.48071  1.0000
  C   C444      1.0  0.70992  0.95832  0.44833  1.0000
  C   C445      1.0  0.68197  0.97216  0.43729  1.0000
  C   C446      1.0  0.65858  0.98151  0.45870  1.0000
  C   C447      1.0  0.66307  0.97688  0.49108  1.0000
  H   H711      1.0  0.73460  0.94067  0.48890  1.0000
  H   H712      1.0  0.72776  0.95063  0.43173  1.0000
  H   H713      1.0  0.64525  0.98472  0.50756  1.0000
  S   S183      1.0  0.76178  0.90376  0.58068  1.0000
  S   S184      1.0  0.83197  0.87010  0.53513  1.0000
  Fe  Fe91      1.0  0.80932  0.97557  0.56818  1.0000
  S   S185      1.0  0.83334  0.01761  0.55498  1.0000
  Fe  Fe92      1.0  0.80834  0.91034  0.55541  1.0000
  H   H714      1.0  0.63701  0.99237  0.45035  1.0000
  H   H715      1.0  0.76587  0.02767  0.54253  1.0000
  C   C448      1.0  0.77623  0.01758  0.48070  1.0000
  S   S186      1.0  0.76343  0.97495  0.59530  1.0000
  H   H716      1.0  0.73133  0.01002  0.52493  1.0000
  H   H717      1.0  0.65508  0.03585  0.40669  1.0000
  H   H718      1.0  0.62664  0.91788  0.47979  1.0000
  H   H719      1.0  0.76313  0.99636  0.47807  1.0000
  N   N46       1.0  0.75551  0.04050  0.49475  1.0000
  H   H720      1.0  0.71237  0.02476  0.47147  1.0000
  H   H721      1.0  0.84876  0.81435  0.56121  1.0000
  H   H722      1.0  0.78476  0.02397  0.45691  1.0000
  H   H723      1.0  0.73415  0.05215  0.45008  1.0000
  H   H724      1.0  0.61726  0.90254  0.56503  1.0000
  C   C449      1.0  0.86445  0.85935  0.55903  1.0000
  H   H725      1.0  0.88877  0.82882  0.46499  1.0000
  C   C450      1.0  0.61365  0.87448  0.33673  1.0000
  H   H726      1.0  0.93174  0.88677  0.59563  1.0000
  C   C451      1.0  0.88770  0.87980  0.56895  1.0000
  H   H727      1.0  0.87624  0.81545  0.50262  1.0000
  C   C452      1.0  0.86703  0.83011  0.56847  1.0000
  H   H728      1.0  0.90266  0.84643  0.50082  1.0000
  C   C453      1.0  0.89274  0.82136  0.58798  1.0000
  H   H729      1.0  0.95948  0.83944  0.48295  1.0000
  H   H730      1.0  0.88583  0.90242  0.56161  1.0000
  C   C454      1.0  0.91365  0.87094  0.58814  1.0000
  H   H731      1.0  0.94514  0.82124  0.44757  1.0000
  H   H732      1.0  0.94185  0.82199  0.53563  1.0000
  C   C455      1.0  0.89707  0.82474  0.48965  1.0000
  C   C456      1.0  0.95207  0.81781  0.47275  1.0000
  H   H733      1.0  0.62317  0.86136  0.24532  1.0000
  C   C457      1.0  0.91640  0.84163  0.59735  1.0000
  C   C458      1.0  0.09211  0.80757  0.58900  1.0000
  N   N47       1.0  0.69186  0.00004  0.66726  1.0000
  S   S187      1.0  0.65181  0.94669  0.76421  1.0000
  S   S188      1.0  0.77685  0.92592  0.66894  1.0000
  C   C459      1.0  0.67417  0.89655  0.69027  1.0000
  C   C460      1.0  0.68338  0.90137  0.65910  1.0000
  C   C461      1.0  0.71489  0.91038  0.65258  1.0000
  C   C462      1.0  0.73761  0.91378  0.67702  1.0000
  C   C463      1.0  0.72862  0.90835  0.70820  1.0000
  C   C464      1.0  0.69683  0.89994  0.71485  1.0000
  H   H734      1.0  0.66583  0.89907  0.64010  1.0000
  H   H735      1.0  0.72112  0.91538  0.62866  1.0000
  H   H736      1.0  0.74600  0.91111  0.72727  1.0000
  H   H737      1.0  0.68983  0.89601  0.73899  1.0000
  N   N48       1.0  0.83972  0.85629  0.66823  1.0000
  H   H738      1.0  0.63992  0.87151  0.81498  1.0000
  C   C465      1.0  0.80900  0.84545  0.68116  1.0000
  C   C466      1.0  0.72734  0.00137  0.67103  1.0000
  S   S189      1.0  0.63378  0.88866  0.69828  1.0000
  C   C467      1.0  0.68346  0.98789  0.63568  1.0000
  C   C468      1.0  0.67834  0.98102  0.69190  1.0000
  H   H739      1.0  0.79859  0.82752  0.66616  1.0000
  H   H740      1.0  0.73833  0.97920  0.66857  1.0000
  H   H741      1.0  0.68360  0.98985  0.71605  1.0000
  H   H742      1.0  0.68855  0.95857  0.69069  1.0000
  Fe  Fe93      1.0  0.78312  0.93419  0.61714  1.0000
  C   C469      1.0  0.67827  0.02987  0.67055  1.0000
  Fe  Fe94      1.0  0.62319  0.93425  0.80674  1.0000
  H   H743      1.0  0.68378  0.03947  0.69433  1.0000
  H   H744      1.0  0.73451  0.01006  0.69477  1.0000
  H   H745      1.0  0.79064  0.86328  0.68236  1.0000
  C   C470      1.0  0.83395  0.86742  0.63599  1.0000
  H   H746      1.0  0.81539  0.88497  0.63580  1.0000
  H   H747      1.0  0.65149  0.02957  0.66801  1.0000
  S   S190      1.0  0.62396  0.02443  0.73378  1.0000
  H   H748      1.0  0.83524  0.89896  0.68988  1.0000
  H   H749      1.0  0.82533  0.84980  0.61956  1.0000
  H   H750      1.0  0.81233  0.83687  0.70550  1.0000
  H   H751      1.0  0.65166  0.97893  0.68951  1.0000
  H   H752      1.0  0.65686  0.98628  0.63219  1.0000
  H   H753      1.0  0.73849  0.01565  0.65295  1.0000
  H   H754      1.0  0.69344  0.96544  0.63240  1.0000
  C   C471      1.0  0.63618  0.86535  0.83924  1.0000
  Fe  Fe95      1.0  0.61403  0.98116  0.75682  1.0000
  H   H755      1.0  0.81016  0.02030  0.61960  1.0000
  H   H756      1.0  0.62584  0.82020  0.82758  1.0000
  H   H757      1.0  0.68801  0.04498  0.65250  1.0000
  Fe  Fe96      1.0  0.61723  0.91698  0.73836  1.0000
  H   H758      1.0  0.69323  0.00166  0.61643  1.0000
  C   C472      1.0  0.85249  0.88029  0.68858  1.0000
  H   H759      1.0  0.85711  0.87274  0.71313  1.0000
  C   C473      1.0  0.81374  0.04238  0.61125  1.0000
  H   H760      1.0  0.62379  0.84287  0.92633  1.0000
  H   H761      1.0  0.85629  0.87691  0.62605  1.0000
  C   C474      1.0  0.86347  0.83214  0.66706  1.0000
  H   H762      1.0  0.88715  0.83985  0.65808  1.0000
  H   H763      1.0  0.87557  0.88909  0.67931  1.0000
  S   S191      1.0  0.94922  0.83088  0.62093  1.0000
  H   H764      1.0  0.85516  0.81399  0.65113  1.0000
  H   H765      1.0  0.07955  0.81798  0.60934  1.0000
  C   C475      1.0  0.63905  0.88639  0.86338  1.0000
  H   H766      1.0  0.86798  0.82274  0.69087  1.0000
  H   H767      1.0  0.63766  0.89421  0.91363  1.0000
  S   S192      1.0  0.64421  0.92354  0.85432  1.0000
  C   C476      1.0  0.62797  0.84880  0.90210  1.0000
  C   C477      1.0  0.63560  0.87796  0.89488  1.0000
  C   C478      1.0  0.62435  0.82792  0.87789  1.0000
  C   C479      1.0  0.62866  0.83622  0.84646  1.0000
  C   C480      1.0  0.61706  0.05600  0.75675  1.0000
  H   H768      1.0  0.11104  0.86344  0.59902  1.0000
