data_image0
_chemical_formula_structural       H2CH5CHCH3CS2HC2HC2HCHC2S2HFeSHCH3NHCFeSH2SHCFeSHCSFeSCSCHNHS2H2C2FeHC4FeH5CHCH2C2H2C2H3CHCH3C2Fe2NHNHCHCH4SH2CH3C2H4CSH2CSC4HCFeHCHNH2CH4C2H4CH5CNHS2HFeSCFeCFeCSNH2CH3CSC6SH5C2H2FeH2CH2CH4SHCH2NHCSH4CFeSHFeHFeSFeCH2S2CHC2HS2CH2C3SCHC2H2C2HSH3SHSHC2S2NHC2HFe2S2FeSCHS2FeH2C3HC4H2C2H6CH2SHNFeCHCSH3SHCH3CHCH6CHC2HNHC3H3CH7C3H2CHCSHSNHSHCH3C2HCH3SCH6SCH2CHC2SNCH2FeH2FeCHSHFeHSH2FeHCHCH4FeSCHFeS3FeSFeCFeSCH2C6HSH2CHC3HC2H2CH2CH3CHCFeSH2CH5SFeSFeCSHC2HCH3CHCH3CNC2H3C3SCH7CH2FeH7SHSHCH2CH2CSHFeH2NH2CHSH2C2H3CH2CS2HC4H6C2H4CHFeHNH2CSH3S2FeSHFeCFeSHSCH2FeSHCFe2SCSCHSHCHFeSH2C6H3CH3NHCHSHSH2C2H3C3HCHC2H2NHCHNHCH2NH4SFeCSC3H2NH4CHCHC2S2CFe2H3CH3NFeSH2CSHS2HC2HC3H5CH2C2HSCH2CHC3HCHCSH3CFeCH3C3HCH3CHCH3CHFeCH3C2FeHSHCSNSHC3HCHCH3CHCHSH2CHCHCNHCH2CH5CSHSH4SCFeHC2HFeSHFeSNFeSFeS4CHC3H3C6H6C2H4C2SH5NHCH2CHC2NHSCHCSFeC2S2CSFeSCFeHFeS2HSHNHCHCHC3HC4H9C4FeHC2H3SHCHCH3C2SHCH3C2HFeCNSH2SH2C2H2CNHCHCH3NH4CSHSHCHCH6CHSC2HSH2CSHSHCFe2SCHC2H2NCH7
_chemical_formula_sum              "H512 C320 S128 Fe64 N32"
_cell_length_a       28.8719
_cell_length_b       31.7465
_cell_length_c       40.7647
_cell_angle_alpha    90.131
_cell_angle_beta     90.0484
_cell_angle_gamma    90.2351

_space_group_name_H-M_alt    "P 1"
_space_group_IT_number       1

loop_
  _space_group_symop_operation_xyz
  'x, y, z'

loop_
  _atom_site_type_symbol
  _atom_site_label
  _atom_site_symmetry_multiplicity
  _atom_site_fract_x
  _atom_site_fract_y
  _atom_site_fract_z
  _atom_site_occupancy
  H   H1        1.0  0.51255  0.13107  0.28879  1.0000
  H   H2        1.0  0.54676  0.37893  0.15674  1.0000
  C   C1        1.0  0.33063  0.52967  0.15637  1.0000
  H   H3        1.0  0.42533  0.13390  0.19856  1.0000
  H   H4        1.0  0.49017  0.10026  0.10047  1.0000
  H   H5        1.0  0.19856  0.15937  0.25096  1.0000
  H   H6        1.0  0.20080  0.14328  0.31079  1.0000
  H   H7        1.0  0.26052  0.15397  0.24875  1.0000
  C   C2        1.0  0.25074  0.54728  0.16807  1.0000
  H   H8        1.0  0.18949  0.41322  0.08711  1.0000
  C   C3        1.0  0.33069  0.50193  0.18299  1.0000
  H   H9        1.0  0.29107  0.47604  0.22312  1.0000
  H   H10       1.0  0.36137  0.48391  0.18862  1.0000
  H   H11       1.0  0.58992  0.29063  0.10494  1.0000
  C   C4        1.0  0.25108  0.52056  0.19524  1.0000
  S   S1        1.0  0.38122  0.53872  0.13374  1.0000
  S   S2        1.0  0.61820  0.18012  0.07934  1.0000
  H   H12       1.0  0.29005  0.57351  0.12818  1.0000
  C   C5        1.0  0.49585  0.11447  0.20641  1.0000
  C   C6        1.0  0.20193  0.12880  0.09672  1.0000
  H   H13       1.0  0.54564  0.50419  0.08715  1.0000
  C   C7        1.0  0.54440  0.21014  0.29396  1.0000
  C   C8        1.0  0.29079  0.49714  0.20229  1.0000
  H   H14       1.0  0.21989  0.56456  0.16208  1.0000
  C   C9        1.0  0.51155  0.30507  0.13895  1.0000
  H   H15       1.0  0.54916  0.24087  0.30671  1.0000
  C   C10       1.0  0.44984  0.10831  0.19672  1.0000
  C   C11       1.0  0.29035  0.55182  0.14859  1.0000
  S   S3        1.0  0.44019  0.52487  0.22039  1.0000
  S   S4        1.0  0.20264  0.51750  0.22103  1.0000
  H   H16       1.0  0.22397  0.12339  0.22218  1.0000
  Fe  Fe1       1.0  0.44409  0.53096  0.16562  1.0000
  S   S5        1.0  0.49893  0.41607  0.24031  1.0000
  H   H17       1.0  0.52714  0.30438  0.16398  1.0000
  C   C12       1.0  0.51499  0.57050  0.30501  1.0000
  H   H18       1.0  0.61581  0.54071  0.29956  1.0000
  H   H19       1.0  0.17513  0.14972  0.08834  1.0000
  H   H20       1.0  0.49627  0.38862  0.13248  1.0000
  N   N1        1.0  0.53642  0.33498  0.11745  1.0000
  H   H21       1.0  0.58158  0.46110  0.26617  1.0000
  C   C13       1.0  0.19738  0.10844  0.12713  1.0000
  Fe  Fe2       1.0  0.49712  0.57290  0.22066  1.0000
  S   S6        1.0  0.64561  0.19933  0.22777  1.0000
  H   H22       1.0  0.57174  0.13247  0.27541  1.0000
  H   H23       1.0  0.65168  0.40146  0.18992  1.0000
  S   S7        1.0  0.62312  0.12958  0.16863  1.0000
  H   H24       1.0  0.60289  0.32360  0.13967  1.0000
  C   C14       1.0  0.54902  0.13436  0.29743  1.0000
  Fe  Fe3       1.0  0.54859  0.53048  0.16490  1.0000
  S   S8        1.0  0.61387  0.52824  0.13547  1.0000
  H   H25       1.0  0.47452  0.31390  0.14189  1.0000
  C   C15       1.0  0.16022  0.40654  0.10413  1.0000
  S   S9        1.0  0.51430  0.16425  0.21963  1.0000
  Fe  Fe4       1.0  0.58453  0.17709  0.19856  1.0000
  S   S10       1.0  0.55409  0.52552  0.21954  1.0000
  C   C16       1.0  0.57423  0.48230  0.08579  1.0000
  S   S11       1.0  0.49698  0.58293  0.16620  1.0000
  C   C17       1.0  0.58576  0.32293  0.11519  1.0000
  H   H26       1.0  0.19066  0.44715  0.15824  1.0000
  N   N2        1.0  0.55614  0.17431  0.31548  1.0000
  H   H27       1.0  0.52167  0.32829  0.24576  1.0000
  S   S12       1.0  0.49578  0.47924  0.15927  1.0000
  S   S13       1.0  0.59081  0.22783  0.16114  1.0000
  H   H28       1.0  0.56644  0.21054  0.27162  1.0000
  H   H29       1.0  0.51262  0.27246  0.12890  1.0000
  C   C18       1.0  0.61164  0.48642  0.10742  1.0000
  C   C19       1.0  0.55010  0.34426  0.23369  1.0000
  Fe  Fe5       1.0  0.63479  0.18253  0.13327  1.0000
  H   H30       1.0  0.62900  0.17652  0.30436  1.0000
  C   C20       1.0  0.54785  0.38768  0.22808  1.0000
  C   C21       1.0  0.58448  0.40821  0.21223  1.0000
  C   C22       1.0  0.62354  0.38553  0.20240  1.0000
  C   C23       1.0  0.62549  0.34207  0.20754  1.0000
  Fe  Fe6       1.0  0.49720  0.47796  0.21415  1.0000
  H   H31       1.0  0.60549  0.34478  0.09909  1.0000
  H   H32       1.0  0.58262  0.44144  0.20700  1.0000
  H   H33       1.0  0.54428  0.12803  0.10460  1.0000
  H   H34       1.0  0.47795  0.34213  0.08524  1.0000
  H   H35       1.0  0.50780  0.20816  0.28537  1.0000
  C   C24       1.0  0.58870  0.32131  0.22301  1.0000
  H   H36       1.0  0.16439  0.49671  0.14940  1.0000
  C   C25       1.0  0.64797  0.42552  0.08238  1.0000
  H   H37       1.0  0.51899  0.30272  0.07266  1.0000
  H   H38       1.0  0.49479  0.54827  0.29072  1.0000
  C   C26       1.0  0.51545  0.33426  0.08437  1.0000
  C   C27       1.0  0.64166  0.51835  0.28930  1.0000
  H   H39       1.0  0.18627  0.55026  0.10838  1.0000
  H   H40       1.0  0.59012  0.28765  0.22687  1.0000
  C   C28       1.0  0.16756  0.57764  0.10025  1.0000
  C   C29       1.0  0.53284  0.37780  0.13140  1.0000
  H   H41       1.0  0.35873  0.56763  0.24883  1.0000
  H   H42       1.0  0.56000  0.48117  0.30395  1.0000
  H   H43       1.0  0.63871  0.51962  0.26209  1.0000
  C   C30       1.0  0.58702  0.46069  0.29308  1.0000
  H   H44       1.0  0.55289  0.40109  0.11684  1.0000
  C   C31       1.0  0.24115  0.12189  0.07732  1.0000
  H   H45       1.0  0.55644  0.10665  0.31317  1.0000
  H   H46       1.0  0.58026  0.42789  0.30147  1.0000
  H   H47       1.0  0.20801  0.47604  0.12241  1.0000
  C   C32       1.0  0.22713  0.13638  0.24752  1.0000
  C   C33       1.0  0.64860  0.45817  0.10557  1.0000
  Fe  Fe7       1.0  0.17021  0.58133  0.22760  1.0000
  Fe  Fe8       1.0  0.65611  0.24562  0.18708  1.0000
  N   N3        1.0  0.63420  0.47511  0.30174  1.0000
  H   H48       1.0  0.65361  0.10127  0.25320  1.0000
  N   N4        1.0  0.22520  0.10250  0.27231  1.0000
  H   H49       1.0  0.17310  0.38477  0.12341  1.0000
  C   C34       1.0  0.17771  0.46728  0.13788  1.0000
  H   H50       1.0  0.16689  0.11364  0.14198  1.0000
  C   C35       1.0  0.22944  0.12091  0.30554  1.0000
  H   H51       1.0  0.26284  0.13809  0.30867  1.0000
  H   H52       1.0  0.29452  0.54490  0.07291  1.0000
  H   H53       1.0  0.29840  0.59787  0.21403  1.0000
  H   H54       1.0  0.37848  0.59471  0.19310  1.0000
  S   S14       1.0  0.58824  0.56865  0.38933  1.0000
  H   H55       1.0  0.16829  0.57915  0.51586  1.0000
  H   H56       1.0  0.43627  0.14348  0.45195  1.0000
  C   C36       1.0  0.53433  0.55820  0.33505  1.0000
  H   H57       1.0  0.52850  0.52665  0.34416  1.0000
  H   H58       1.0  0.53385  0.14849  0.36146  1.0000
  H   H59       1.0  0.63432  0.44284  0.34812  1.0000
  C   C37       1.0  0.42109  0.13019  0.42993  1.0000
  C   C38       1.0  0.52584  0.17500  0.34467  1.0000
  H   H60       1.0  0.52982  0.20480  0.35881  1.0000
  H   H61       1.0  0.61408  0.49616  0.34983  1.0000
  H   H62       1.0  0.61502  0.15143  0.34250  1.0000
  H   H63       1.0  0.48866  0.17166  0.33769  1.0000
  C   C39       1.0  0.44970  0.11542  0.40479  1.0000
  S   S15       1.0  0.33859  0.13819  0.46131  1.0000
  H   H64       1.0  0.61204  0.20772  0.33910  1.0000
  H   H65       1.0  0.48670  0.11783  0.40750  1.0000
  C   C40       1.0  0.16240  0.59858  0.43415  1.0000
  S   S16       1.0  0.20620  0.12333  0.43677  1.0000
  C   C41       1.0  0.63962  0.47492  0.33781  1.0000
  C   C42       1.0  0.56163  0.58639  0.35320  1.0000
  C   C43       1.0  0.37304  0.12611  0.42730  1.0000
  C   C44       1.0  0.60514  0.17769  0.32583  1.0000
  H   H66       1.0  0.31625  0.10625  0.39655  1.0000
  C   C45       1.0  0.35346  0.10912  0.39872  1.0000
  Fe  Fe9       1.0  0.27222  0.10168  0.46018  1.0000
  H   H67       1.0  0.21615  0.21046  0.56151  1.0000
  C   C46       1.0  0.63549  0.46515  0.80940  1.0000
  H   H68       1.0  0.38873  0.57669  0.78842  1.0000
  N   N5        1.0  0.17806  0.20768  0.60675  1.0000
  H   H69       1.0  0.20708  0.26060  0.58103  1.0000
  H   H70       1.0  0.16495  0.48676  0.79465  1.0000
  C   C47       1.0  0.21421  0.22671  0.58576  1.0000
  H   H71       1.0  0.21012  0.22798  0.65186  1.0000
  H   H72       1.0  0.59893  0.54273  0.80552  1.0000
  H   H73       1.0  0.16795  0.26386  0.63561  1.0000
  H   H74       1.0  0.59854  0.46595  0.81718  1.0000
  C   C48       1.0  0.17647  0.22989  0.63864  1.0000
  C   C49       1.0  0.18880  0.16277  0.61226  1.0000
  H   H75       1.0  0.18899  0.14477  0.58877  1.0000
  H   H76       1.0  0.63631  0.45781  0.78270  1.0000
  H   H77       1.0  0.22327  0.15871  0.62402  1.0000
  H   H78       1.0  0.16277  0.14769  0.62866  1.0000
  C   C50       1.0  0.63613  0.53998  0.79870  1.0000
  H   H79       1.0  0.24903  0.22458  0.59738  1.0000
  H   H80       1.0  0.16127  0.53689  0.81481  1.0000
  H   H81       1.0  0.63811  0.53521  0.77165  1.0000
  H   H82       1.0  0.65285  0.57087  0.80404  1.0000
  H   H83       1.0  0.44513  0.58700  0.80500  1.0000
  C   C51       1.0  0.40787  0.58366  0.81152  1.0000
  N   N6        1.0  0.65920  0.50548  0.81664  1.0000
  H   H84       1.0  0.62060  0.51628  0.86076  1.0000
  S   S17       1.0  0.19433  0.55294  0.03973  1.0000
  S   S18       1.0  0.20866  0.55916  0.89057  1.0000
  H   H85       1.0  0.30338  0.50292  0.90614  1.0000
  Fe  Fe10      1.0  0.19130  0.56363  0.98529  1.0000
  S   S19       1.0  0.24092  0.51959  0.96090  1.0000
  C   C52       1.0  0.61115  0.42196  0.06022  1.0000
  Fe  Fe11      1.0  0.26026  0.57465  0.92986  1.0000
  C   C53       1.0  0.31520  0.53249  0.05201  1.0000
  Fe  Fe12      1.0  0.18467  0.50845  0.92444  1.0000
  C   C54       1.0  0.61171  0.25614  0.87884  1.0000
  S   S20       1.0  0.20096  0.24332  0.99221  1.0000
  N   N7        1.0  0.28751  0.33056  0.91290  1.0000
  H   H86       1.0  0.26123  0.39383  0.91627  1.0000
  H   H87       1.0  0.29060  0.51540  0.03561  1.0000
  C   C55       1.0  0.29001  0.29629  0.88833  1.0000
  H   H88       1.0  0.43176  0.56474  0.93021  1.0000
  H   H89       1.0  0.33423  0.36790  0.94232  1.0000
  H   H90       1.0  0.39059  0.52579  0.01337  1.0000
  C   C56       1.0  0.65784  0.15059  0.05637  1.0000
  S   S21       1.0  0.60942  0.55363  0.93925  1.0000
  C   C57       1.0  0.43485  0.49726  0.92485  1.0000
  C   C58       1.0  0.40994  0.46021  0.91865  1.0000
  C   C59       1.0  0.36255  0.46244  0.91164  1.0000
  C   C60       1.0  0.33996  0.50146  0.91166  1.0000
  C   C61       1.0  0.36473  0.53836  0.91870  1.0000
  C   C62       1.0  0.41236  0.53632  0.92479  1.0000
  S   S22       1.0  0.43758  0.41111  0.92025  1.0000
  H   H91       1.0  0.34325  0.43406  0.90632  1.0000
  H   H92       1.0  0.30646  0.26761  0.89877  1.0000
  H   H93       1.0  0.60674  0.28335  0.99912  1.0000
  H   H94       1.0  0.28535  0.38020  0.87706  1.0000
  H   H95       1.0  0.33990  0.53321  0.98856  1.0000
  C   C63       1.0  0.57426  0.45037  0.06192  1.0000
  C   C64       1.0  0.30504  0.59805  0.02307  1.0000
  H   H96       1.0  0.65345  0.31902  0.95618  1.0000
  H   H97       1.0  0.25544  0.34147  0.95986  1.0000
  Fe  Fe13      1.0  0.18767  0.18240  0.01815  1.0000
  H   H98       1.0  0.63111  0.24030  0.02202  1.0000
  H   H99       1.0  0.22970  0.36000  0.88895  1.0000
  C   C65       1.0  0.26503  0.36775  0.89813  1.0000
  H   H100      1.0  0.22492  0.30530  0.93359  1.0000
  H   H101      1.0  0.61502  0.52436  0.02148  1.0000
  C   C66       1.0  0.26006  0.31602  0.94131  1.0000
  H   H102      1.0  0.25479  0.28671  0.87974  1.0000
  H   H103      1.0  0.53244  0.35756  0.06791  1.0000
  H   H104      1.0  0.31044  0.30597  0.86645  1.0000
  H   H105      1.0  0.35664  0.35305  0.90300  1.0000
  S   S23       1.0  0.61136  0.38166  0.03079  1.0000
  H   H106      1.0  0.54523  0.44719  0.04536  1.0000
  C   C67       1.0  0.33478  0.34202  0.92383  1.0000
  H   H107      1.0  0.35285  0.31478  0.93517  1.0000
  H   H108      1.0  0.27683  0.28886  0.95373  1.0000
  N   N8        1.0  0.33931  0.56684  0.03441  1.0000
  H   H109      1.0  0.62657  0.24605  0.94730  1.0000
  C   C68       1.0  0.58605  0.57749  0.90433  1.0000
  S   S24       1.0  0.24699  0.14473  0.03828  1.0000
  H   H110      1.0  0.39943  0.56501  0.06552  1.0000
  H   H111      1.0  0.62080  0.15976  0.01112  1.0000
  H   H112      1.0  0.65080  0.29322  0.02920  1.0000
  H   H113      1.0  0.58485  0.31929  0.88060  1.0000
  C   C69       1.0  0.65076  0.14574  0.02260  1.0000
  Fe  Fe14      1.0  0.61156  0.40142  0.91031  1.0000
  S   S25       1.0  0.64615  0.17648  0.88109  1.0000
  H   H114      1.0  0.47140  0.49577  0.93005  1.0000
  Fe  Fe15      1.0  0.58788  0.40732  0.98245  1.0000
  H   H115      1.0  0.38210  0.57441  0.99159  1.0000
  Fe  Fe16      1.0  0.51331  0.41999  0.93166  1.0000
  S   S26       1.0  0.53579  0.45857  0.97521  1.0000
  Fe  Fe17      1.0  0.58764  0.48582  0.94032  1.0000
  C   C70       1.0  0.54554  0.56136  0.89030  1.0000
  H   H116      1.0  0.57807  0.24146  0.88176  1.0000
  H   H117      1.0  0.62536  0.57116  0.06936  1.0000
  S   S27       1.0  0.56132  0.45151  0.89590  1.0000
  S   S28       1.0  0.56131  0.36593  0.94202  1.0000
  C   C71       1.0  0.16610  0.58729  0.06687  1.0000
  H   H118      1.0  0.52694  0.53621  0.90225  1.0000
  C   C72       1.0  0.61559  0.30014  0.87852  1.0000
  C   C73       1.0  0.52909  0.57756  0.86064  1.0000
  H   H119      1.0  0.27932  0.58333  0.00630  1.0000
  S   S29       1.0  0.64205  0.43834  0.95173  1.0000
  S   S30       1.0  0.33595  0.58675  0.92161  1.0000
  C   C74       1.0  0.36416  0.54927  0.00581  1.0000
  H   H120      1.0  0.17280  0.49032  0.83845  1.0000
  H   H121      1.0  0.49825  0.56421  0.84968  1.0000
  C   C75       1.0  0.65829  0.59804  0.01062  1.0000
  C   C76       1.0  0.65705  0.51391  0.85227  1.0000
  C   C77       1.0  0.65135  0.23111  0.87635  1.0000
  S   S31       1.0  0.16830  0.44332  0.90690  1.0000
  C   C78       1.0  0.65906  0.23523  0.95926  1.0000
  H   H122      1.0  0.65220  0.20361  0.96976  1.0000
  C   C79       1.0  0.37274  0.58757  0.05673  1.0000
  C   C80       1.0  0.63937  0.27074  0.00977  1.0000
  H   H123      1.0  0.34014  0.50928  0.06222  1.0000
  H   H124      1.0  0.56904  0.10442  0.05027  1.0000
  C   C81       1.0  0.65900  0.31920  0.87490  1.0000
  C   C82       1.0  0.65346  0.52296  0.01960  1.0000
  H   H125      1.0  0.33427  0.58886  0.85082  1.0000
  S   S32       1.0  0.16800  0.23636  0.90120  1.0000
  H   H126      1.0  0.40455  0.55575  0.82788  1.0000
  H   H127      1.0  0.65211  0.43841  0.82257  1.0000
  H   H128      1.0  0.16445  0.74286  0.15458  1.0000
  S   S33       1.0  0.49787  0.62723  0.25601  1.0000
  H   H129      1.0  0.59965  0.05017  0.12835  1.0000
  S   S34       1.0  0.31546  0.96903  0.14288  1.0000
  H   H130      1.0  0.40754  0.99863  0.27601  1.0000
  C   C83       1.0  0.43592  0.06958  0.18330  1.0000
  C   C84       1.0  0.26364  0.07281  0.26664  1.0000
  S   S35       1.0  0.24954  0.71601  0.26131  1.0000
  S   S36       1.0  0.17417  0.61592  0.27558  1.0000
  N   N9        1.0  0.35604  0.63243  0.23391  1.0000
  H   H131      1.0  0.25954  0.76136  0.14695  1.0000
  C   C85       1.0  0.59874  0.05906  0.10195  1.0000
  C   C86       1.0  0.46025  0.93175  0.25893  1.0000
  H   H132      1.0  0.48876  0.02510  0.08740  1.0000
  Fe  Fe18      1.0  0.19307  0.67195  0.24523  1.0000
  Fe  Fe19      1.0  0.32239  0.95110  0.23696  1.0000
  S   S37       1.0  0.36373  0.91300  0.20159  1.0000
  S   S38       1.0  0.33445  0.94261  0.29071  1.0000
  Fe  Fe20      1.0  0.37700  0.97430  0.17642  1.0000
  S   S39       1.0  0.45095  0.98836  0.16340  1.0000
  C   C87       1.0  0.52134  0.61169  0.29372  1.0000
  H   H133      1.0  0.52621  0.01330  0.12106  1.0000
  S   S40       1.0  0.34075  0.01301  0.21441  1.0000
  S   S41       1.0  0.25538  0.94460  0.20975  1.0000
  Fe  Fe21      1.0  0.27767  0.00310  0.18316  1.0000
  H   H134      1.0  0.23502  0.93935  0.28470  1.0000
  H   H135      1.0  0.30666  0.08998  0.07394  1.0000
  C   C88       1.0  0.46790  0.03691  0.17990  1.0000
  C   C89       1.0  0.24401  0.96100  0.30426  1.0000
  C   C90       1.0  0.52298  0.98029  0.26950  1.0000
  H   H136      1.0  0.18529  0.78909  0.13362  1.0000
  C   C91       1.0  0.51370  0.04280  0.19021  1.0000
  C   C92       1.0  0.47078  0.96069  0.31325  1.0000
  C   C93       1.0  0.26121  0.75235  0.23014  1.0000
  C   C94       1.0  0.25607  0.74082  0.19720  1.0000
  H   H137      1.0  0.42222  0.62883  0.20998  1.0000
  H   H138      1.0  0.44495  0.01184  0.24252  1.0000
  C   C95       1.0  0.27992  0.82361  0.21341  1.0000
  C   C96       1.0  0.27429  0.79352  0.23821  1.0000
  H   H139      1.0  0.24654  0.70916  0.19063  1.0000
  H   H140      1.0  0.29703  0.65359  0.20675  1.0000
  H   H141      1.0  0.28784  0.85580  0.21996  1.0000
  H   H142      1.0  0.27833  0.80261  0.26366  1.0000
  H   H143      1.0  0.63824  0.08648  0.31208  1.0000
  H   H144      1.0  0.37674  0.65019  0.18517  1.0000
  C   C97       1.0  0.27373  0.81223  0.18050  1.0000
  H   H145      1.0  0.48298  0.90442  0.26438  1.0000
  H   H146      1.0  0.45464  0.03451  0.28235  1.0000
  S   S42       1.0  0.27408  0.85062  0.14978  1.0000
  H   H147      1.0  0.46166  0.93759  0.23198  1.0000
  N   N10       1.0  0.47454  0.96948  0.27775  1.0000
  Fe  Fe22      1.0  0.29839  0.91127  0.17208  1.0000
  C   C98       1.0  0.26323  0.77051  0.17240  1.0000
  H   H148      1.0  0.26082  0.05779  0.24203  1.0000
  C   C99       1.0  0.30666  0.62913  0.22494  1.0000
  S   S43       1.0  0.22525  0.05469  0.17577  1.0000
  H   H149      1.0  0.54740  0.95540  0.27785  1.0000
  H   H150      1.0  0.17770  0.05435  0.28813  1.0000
  H   H151      1.0  0.55199  0.67232  0.30379  1.0000
  S   S44       1.0  0.19589  0.63601  0.19826  1.0000
  H   H152      1.0  0.56278  0.08566  0.21218  1.0000
  C   C100      1.0  0.29050  0.96747  0.31265  1.0000
  H   H153      1.0  0.52752  0.98406  0.24258  1.0000
  H   H154      1.0  0.53371  0.01046  0.28117  1.0000
  H   H155      1.0  0.40283  0.67807  0.25477  1.0000
  C   C101      1.0  0.44413  0.00519  0.26925  1.0000
  H   H156      1.0  0.29918  0.05509  0.12787  1.0000
  C   C102      1.0  0.54683  0.64049  0.31259  1.0000
  H   H157      1.0  0.35704  0.70002  0.23019  1.0000
  H   H158      1.0  0.43457  0.95224  0.32015  1.0000
  H   H159      1.0  0.34642  0.60414  0.28124  1.0000
  H   H160      1.0  0.49359  0.93412  0.32070  1.0000
  H   H161      1.0  0.42411  0.92226  0.26495  1.0000
  H   H162      1.0  0.53848  0.01751  0.18772  1.0000
  C   C103      1.0  0.38464  0.62624  0.20425  1.0000
  H   H163      1.0  0.34441  0.68042  0.27027  1.0000
  C   C104      1.0  0.52581  0.02286  0.09482  1.0000
  C   C105      1.0  0.27168  0.07507  0.11916  1.0000
  H   H164      1.0  0.40075  0.06548  0.17470  1.0000
  N   N11       1.0  0.55066  0.06316  0.08990  1.0000
  H   H165      1.0  0.61826  0.03474  0.08799  1.0000
  C   C106      1.0  0.52754  0.08143  0.20379  1.0000
  C   C107      1.0  0.36562  0.67456  0.24794  1.0000
  C   C108      1.0  0.18060  0.07972  0.26943  1.0000
  H   H166      1.0  0.28390  0.63320  0.24673  1.0000
  H   H167      1.0  0.52698  0.09077  0.13500  1.0000
  H   H168      1.0  0.26355  0.04707  0.28501  1.0000
  C   C109      1.0  0.23208  0.08119  0.13824  1.0000
  H   H169      1.0  0.17678  0.06474  0.24479  1.0000
  H   H170      1.0  0.17309  0.97660  0.31543  1.0000
  H   H171      1.0  0.29795  0.08879  0.26806  1.0000
  H   H172      1.0  0.54184  0.99686  0.08049  1.0000
  H   H173      1.0  0.35515  0.60033  0.07893  1.0000
  H   H174      1.0  0.61811  0.08921  0.09948  1.0000
  H   H175      1.0  0.18141  0.82720  0.18880  1.0000
  C   C110      1.0  0.27610  0.09522  0.08874  1.0000
  C   C111      1.0  0.52693  0.09702  0.10824  1.0000
  C   C112      1.0  0.20909  0.98204  0.32159  1.0000
  H   H176      1.0  0.16021  0.77925  0.20659  1.0000
  H   H177      1.0  0.40423  0.60038  0.26526  1.0000
  C   C113      1.0  0.36692  0.59969  0.25841  1.0000
  H   H178      1.0  0.50349  0.68268  0.45902  1.0000
  C   C114      1.0  0.39662  0.01737  0.44941  1.0000
  S   S45       1.0  0.17715  0.03691  0.36801  1.0000
  H   H179      1.0  0.42552  0.68379  0.36988  1.0000
  S   S46       1.0  0.27006  0.03719  0.43814  1.0000
  N   N12       1.0  0.47090  0.68014  0.41157  1.0000
  H   H180      1.0  0.51360  0.62525  0.41765  1.0000
  S   S47       1.0  0.16174  0.03330  0.46180  1.0000
  H   H181      1.0  0.44214  0.67388  0.46011  1.0000
  C   C115      1.0  0.56754  0.62767  0.34206  1.0000
  H   H182      1.0  0.27679  0.04133  0.37196  1.0000
  H   H183      1.0  0.41867  0.72549  0.39934  1.0000
  H   H184      1.0  0.18654  0.91372  0.36966  1.0000
  C   C116      1.0  0.19961  0.93162  0.51828  1.0000
  C   C117      1.0  0.26736  0.01760  0.35427  1.0000
  H   H185      1.0  0.45605  0.97862  0.51466  1.0000
  C   C118      1.0  0.43301  0.05553  0.49380  1.0000
  H   H186      1.0  0.35120  0.97826  0.49814  1.0000
  H   H187      1.0  0.48091  0.98864  0.32812  1.0000
  H   H188      1.0  0.51006  0.69683  0.36853  1.0000
  S   S48       1.0  0.57577  0.08325  0.40519  1.0000
  C   C119      1.0  0.19748  0.88777  0.52142  1.0000
  H   H189      1.0  0.46350  0.06266  0.47799  1.0000
  H   H190      1.0  0.33820  0.00153  0.34363  1.0000
  H   H191      1.0  0.58868  0.64955  0.35572  1.0000
  H   H192      1.0  0.54254  0.69655  0.40608  1.0000
  H   H193      1.0  0.44564  0.05467  0.51959  1.0000
  H   H194      1.0  0.22083  0.88545  0.39890  1.0000
  S   S49       1.0  0.24017  0.08162  0.50765  1.0000
  C   C120      1.0  0.22079  0.01013  0.34681  1.0000
  H   H195      1.0  0.37843  0.00634  0.53131  1.0000
  H   H196      1.0  0.47510  0.98473  0.47321  1.0000
  C   C121      1.0  0.36927  0.00816  0.50484  1.0000
  H   H197      1.0  0.22764  0.86890  0.51600  1.0000
  C   C122      1.0  0.43039  0.09783  0.37641  1.0000
  C   C123      1.0  0.44379  0.98043  0.48879  1.0000
  S   S50       1.0  0.24998  0.95590  0.50353  1.0000
  N   N13       1.0  0.41068  0.01534  0.48423  1.0000
  C   C124      1.0  0.47929  0.63450  0.40749  1.0000
  H   H198      1.0  0.38016  0.98742  0.44112  1.0000
  H   H199      1.0  0.37113  0.04293  0.44539  1.0000
  Fe  Fe23      1.0  0.23139  0.01895  0.48309  1.0000
  H   H200      1.0  0.45257  0.61528  0.42028  1.0000
  H   H201      1.0  0.34362  0.03404  0.50195  1.0000
  Fe  Fe24      1.0  0.20116  0.05682  0.41829  1.0000
  C   C125      1.0  0.60306  0.95519  0.49198  1.0000
  H   H202      1.0  0.40854  0.08242  0.49164  1.0000
  S   S51       1.0  0.51764  0.99314  0.40329  1.0000
  H   H203      1.0  0.42667  0.02400  0.43311  1.0000
  Fe  Fe25      1.0  0.17324  0.09769  0.48254  1.0000
  H   H204      1.0  0.22803  0.09612  0.32480  1.0000
  S   S52       1.0  0.55990  0.03123  0.48991  1.0000
  H   H205      1.0  0.55164  0.90268  0.42469  1.0000
  H   H206      1.0  0.42793  0.94951  0.48230  1.0000
  Fe  Fe26      1.0  0.52846  0.04887  0.37065  1.0000
  H   H207      1.0  0.47918  0.62516  0.38115  1.0000
  C   C126      1.0  0.42595  0.69122  0.39660  1.0000
  H   H208      1.0  0.16699  0.67226  0.40212  1.0000
  C   C127      1.0  0.50825  0.70409  0.39522  1.0000
  H   H209      1.0  0.50326  0.73869  0.39798  1.0000
  H   H210      1.0  0.16757  0.61171  0.45925  1.0000
  H   H211      1.0  0.59921  0.02581  0.55475  1.0000
  H   H212      1.0  0.36709  0.08181  0.35114  1.0000
  Fe  Fe27      1.0  0.62462  0.61657  0.42130  1.0000
  S   S53       1.0  0.64261  0.68265  0.40664  1.0000
  C   C128      1.0  0.47020  0.69090  0.44689  1.0000
  H   H213      1.0  0.60597  0.66362  0.53954  1.0000
  Fe  Fe28      1.0  0.61192  0.70058  0.45508  1.0000
  S   S54       1.0  0.56669  0.75731  0.46301  1.0000
  S   S55       1.0  0.58162  0.90144  0.35683  1.0000
  S   S56       1.0  0.58917  0.63506  0.46813  1.0000
  Fe  Fe29      1.0  0.57945  0.96671  0.37748  1.0000
  S   S57       1.0  0.63150  0.99331  0.41282  1.0000
  Fe  Fe30      1.0  0.63245  0.04901  0.37917  1.0000
  C   C129      1.0  0.60848  0.99776  0.54116  1.0000
  Fe  Fe31      1.0  0.56996  0.02489  0.43562  1.0000
  S   S58       1.0  0.58572  0.01971  0.34168  1.0000
  C   C130      1.0  0.59156  0.99164  0.50931  1.0000
  H   H214      1.0  0.46524  0.72534  0.45085  1.0000
  H   H215      1.0  0.58907  0.94978  0.46774  1.0000
  C   C131      1.0  0.57117  0.79738  0.43348  1.0000
  C   C132      1.0  0.55784  0.83853  0.44156  1.0000
  C   C133      1.0  0.56174  0.87096  0.41832  1.0000
  C   C134      1.0  0.57774  0.86198  0.38669  1.0000
  C   C135      1.0  0.59052  0.82083  0.37855  1.0000
  C   C136      1.0  0.58775  0.78874  0.40198  1.0000
  H   H216      1.0  0.54504  0.84546  0.46592  1.0000
  S   S59       1.0  0.46664  0.07707  0.34599  1.0000
  H   H217      1.0  0.60285  0.81383  0.35407  1.0000
  H   H218      1.0  0.59768  0.75730  0.39526  1.0000
  C   C137      1.0  0.38218  0.09545  0.37305  1.0000
  H   H219      1.0  0.39693  0.67361  0.40827  1.0000
  C   C138      1.0  0.30218  0.99565  0.33772  1.0000
  C   C139      1.0  0.61398  0.65546  0.56463  1.0000
  C   C140      1.0  0.65221  0.93289  0.53690  1.0000
  H   H220      1.0  0.65039  0.83391  0.46373  1.0000
  C   C141      1.0  0.63921  0.96852  0.55487  1.0000
  C   C142      1.0  0.18554  0.88779  0.38804  1.0000
  H   H221      1.0  0.17828  0.85789  0.37462  1.0000
  H   H222      1.0  0.18443  0.85801  0.44997  1.0000
  C   C143      1.0  0.64698  0.62451  0.57134  1.0000
  H   H223      1.0  0.19568  0.60238  0.42073  1.0000
  H   H224      1.0  0.19593  0.93472  0.44242  1.0000
  C   C144      1.0  0.63320  0.92579  0.50581  1.0000
  H   H225      1.0  0.64279  0.89831  0.49190  1.0000
  H   H226      1.0  0.16248  0.98985  0.52393  1.0000
  H   H227      1.0  0.16125  0.96276  0.41316  1.0000
  C   C145      1.0  0.16119  0.93572  0.43054  1.0000
  H   H228      1.0  0.16041  0.06511  0.54536  1.0000
  C   C146      1.0  0.16075  0.95594  0.52567  1.0000
  Fe  Fe32      1.0  0.65948  0.62852  0.49080  1.0000
  S   S60       1.0  0.53272  0.62864  0.80712  1.0000
  H   H229      1.0  0.63383  0.80740  0.59558  1.0000
  H   H230      1.0  0.61570  0.75899  0.61424  1.0000
  C   C147      1.0  0.60132  0.66543  0.62301  1.0000
  H   H231      1.0  0.38418  0.68824  0.81691  1.0000
  H   H232      1.0  0.60155  0.91211  0.81747  1.0000
  H   H233      1.0  0.65303  0.97374  0.57920  1.0000
  H   H234      1.0  0.65369  0.91939  0.76916  1.0000
  H   H235      1.0  0.56521  0.69943  0.58520  1.0000
  S   S61       1.0  0.58512  0.71478  0.74804  1.0000
  Fe  Fe33      1.0  0.60666  0.67801  0.70375  1.0000
  S   S62       1.0  0.57524  0.69364  0.65500  1.0000
  Fe  Fe34      1.0  0.58942  0.65297  0.77427  1.0000
  C   C148      1.0  0.64561  0.77525  0.60249  1.0000
  S   S63       1.0  0.60446  0.61536  0.72891  1.0000
  H   H236      1.0  0.43429  0.66332  0.79950  1.0000
  C   C149      1.0  0.63454  0.63467  0.62976  1.0000
  C   C150      1.0  0.59089  0.67565  0.59045  1.0000
  H   H237      1.0  0.64416  0.77969  0.66843  1.0000
  C   C151      1.0  0.16696  0.62762  0.80463  1.0000
  H   H238      1.0  0.37813  0.65409  0.78188  1.0000
  H   H239      1.0  0.20122  0.62331  0.79447  1.0000
  H   H240      1.0  0.31967  0.61237  0.81213  1.0000
  C   C152      1.0  0.65720  0.61409  0.60391  1.0000
  H   H241      1.0  0.64281  0.62672  0.65486  1.0000
  C   C153      1.0  0.39690  0.65859  0.80550  1.0000
  H   H242      1.0  0.65371  0.75778  0.57950  1.0000
  H   H243      1.0  0.65755  0.85577  0.80399  1.0000
  H   H244      1.0  0.56997  0.04952  0.04002  1.0000
  C   C154      1.0  0.55311  0.61007  0.84488  1.0000
  N   N14       1.0  0.39026  0.62220  0.82760  1.0000
  C   C155      1.0  0.60949  0.61079  0.88910  1.0000
  C   C156      1.0  0.55124  0.07375  0.05461  1.0000
  H   H245      1.0  0.16957  0.02783  0.02120  1.0000
  H   H246      1.0  0.45332  0.63602  0.85370  1.0000
  H   H247      1.0  0.40196  0.65712  0.87219  1.0000
  C   C157      1.0  0.16150  0.63396  0.83843  1.0000
  C   C158      1.0  0.62892  0.92734  0.83275  1.0000
  C   C159      1.0  0.41598  0.62967  0.85846  1.0000
  S   S64       1.0  0.21501  0.62030  0.95691  1.0000
  C   C160      1.0  0.59310  0.62696  0.85927  1.0000
  H   H248      1.0  0.61106  0.65284  0.84769  1.0000
  H   H249      1.0  0.62505  0.91547  0.85828  1.0000
  H   H250      1.0  0.62191  0.96183  0.83316  1.0000
  H   H251      1.0  0.19155  0.63534  0.85420  1.0000
  H   H252      1.0  0.28518  0.61169  0.04394  1.0000
  H   H253      1.0  0.32623  0.64461  0.84817  1.0000
  H   H254      1.0  0.17727  0.05298  0.06035  1.0000
  C   C161      1.0  0.34042  0.61680  0.83492  1.0000
  H   H255      1.0  0.39104  0.61409  0.04445  1.0000
  H   H256      1.0  0.64079  0.62349  0.89995  1.0000
  Fe  Fe35      1.0  0.16102  0.60010  0.92012  1.0000
  H   H257      1.0  0.32178  0.62434  0.00941  1.0000
  H   H258      1.0  0.16785  0.08415  0.02446  1.0000
  H   H259      1.0  0.51551  0.07637  0.04457  1.0000
  H   H260      1.0  0.41383  0.60196  0.87503  1.0000
  H   H261      1.0  0.61977  0.59985  0.01108  1.0000
  H   H262      1.0  0.11265  0.41441  0.16056  1.0000
  H   H263      1.0  0.15454  0.48245  0.07515  1.0000
  S   S65       1.0  0.73939  0.11512  0.21799  1.0000
  H   H264      1.0  0.13343  0.38918  0.08970  1.0000
  S   S66       1.0  0.70123  0.20405  0.15642  1.0000
  H   H265      1.0  0.67642  0.40346  0.08131  1.0000
  C   C162      1.0  0.72753  0.10535  0.25956  1.0000
  H   H266      1.0  0.09847  0.45815  0.07637  1.0000
  H   H267      1.0  0.70455  0.45631  0.29255  1.0000
  C   C163      1.0  0.66844  0.44644  0.28668  1.0000
  H   H268      1.0  0.11061  0.50343  0.10155  1.0000
  H   H269      1.0  0.07372  0.41894  0.12628  1.0000
  C   C164      1.0  0.10184  0.43534  0.14007  1.0000
  S   S67       1.0  0.09500  0.59496  0.21926  1.0000
  H   H270      1.0  0.08681  0.46430  0.15125  1.0000
  Fe  Fe36      1.0  0.68519  0.15560  0.19501  1.0000
  H   H271      1.0  0.14480  0.59430  0.14869  1.0000
  H   H272      1.0  0.15068  0.10118  0.27311  1.0000
  N   N15       1.0  0.14135  0.44570  0.11846  1.0000
  H   H273      1.0  0.70110  0.13450  0.09758  1.0000
  H   H274      1.0  0.67751  0.46124  0.12235  1.0000
  C   C165      1.0  0.12550  0.47364  0.09177  1.0000
  H   H275      1.0  0.67740  0.54488  0.08158  1.0000
  S   S68       1.0  0.67315  0.31397  0.19309  1.0000
  H   H276      1.0  0.79939  0.10713  0.27355  1.0000
  H   H277      1.0  0.67659  0.53057  0.29605  1.0000
  C   C166      1.0  0.76414  0.10293  0.28196  1.0000
  C   C167      1.0  0.68192  0.09989  0.27054  1.0000
  H   H278      1.0  0.66493  0.44574  0.25944  1.0000
  H   H279      1.0  0.66375  0.41348  0.29541  1.0000
  H   H280      1.0  0.15538  0.56427  0.43685  1.0000
  C   C168      1.0  0.14122  0.58426  0.53371  1.0000
  H   H281      1.0  0.14213  0.52015  0.55118  1.0000
  H   H282      1.0  0.98584  0.56374  0.55191  1.0000
  C   C169      1.0  0.12652  0.55091  0.55373  1.0000
  S   S69       1.0  0.67606  0.59912  0.53925  1.0000
  S   S70       1.0  0.11437  0.13011  0.50795  1.0000
  H   H283      1.0  0.94405  0.52322  0.56084  1.0000
  C   C170      1.0  0.95971  0.55297  0.57019  1.0000
  C   C171      1.0  0.10399  0.10917  0.54695  1.0000
  C   C172      1.0  0.89962  0.59502  0.54531  1.0000
  C   C173      1.0  0.06802  0.12546  0.56605  1.0000
  H   H284      1.0  0.88266  0.56649  0.53481  1.0000
  H   H285      1.0  0.67466  0.48606  0.34535  1.0000
  H   H286      1.0  0.13272  0.19528  0.56588  1.0000
  H   H287      1.0  0.11378  0.56812  0.38363  1.0000
  H   H288      1.0  0.04417  0.14795  0.55556  1.0000
  H   H289      1.0  0.07105  0.57921  0.43618  1.0000
  C   C174      1.0  0.70814  0.50291  0.80622  1.0000
  C   C175      1.0  0.86581  0.57894  0.71501  1.0000
  H   H290      1.0  0.89135  0.17388  0.76417  1.0000
  H   H291      1.0  0.72685  0.47752  0.81948  1.0000
  H   H292      1.0  0.03636  0.12673  0.61373  1.0000
  H   H293      1.0  0.86418  0.59431  0.60678  1.0000
  C   C176      1.0  0.07278  0.59748  0.58104  1.0000
  H   H294      1.0  0.82511  0.12001  0.67306  1.0000
  Fe  Fe37      1.0  0.97838  0.58635  0.68847  1.0000
  H   H295      1.0  0.87216  0.54133  0.59222  1.0000
  N   N16       1.0  0.92421  0.58549  0.57622  1.0000
  H   H296      1.0  0.96704  0.36401  0.68578  1.0000
  H   H297      1.0  0.08650  0.49552  0.77060  1.0000
  C   C177      1.0  0.09282  0.55767  0.57779  1.0000
  S   S71       1.0  0.00319  0.11792  0.71511  1.0000
  H   H298      1.0  0.68273  0.59017  0.60914  1.0000
  H   H299      1.0  0.94534  0.14735  0.77002  1.0000
  H   H300      1.0  0.93799  0.36651  0.64703  1.0000
  S   S72       1.0  0.03325  0.18904  0.66058  1.0000
  S   S73       1.0  0.89979  0.17999  0.68033  1.0000
  Fe  Fe38      1.0  0.03704  0.16002  0.75233  1.0000
  S   S74       1.0  0.00241  0.21883  0.73476  1.0000
  H   H301      1.0  0.09213  0.37144  0.66564  1.0000
  Fe  Fe39      1.0  0.97434  0.17764  0.69490  1.0000
  C   C178      1.0  0.92426  0.12964  0.62862  1.0000
  Fe  Fe40      1.0  0.06466  0.22497  0.70233  1.0000
  S   S75       1.0  0.09768  0.28620  0.68783  1.0000
  H   H302      1.0  0.09926  0.20699  0.79359  1.0000
  S   S76       1.0  0.10220  0.16919  0.72306  1.0000
  C   C179      1.0  0.96227  0.28647  0.65996  1.0000
  H   H303      1.0  0.71100  0.49639  0.77943  1.0000
  H   H304      1.0  0.08505  0.54663  0.78910  1.0000
  Fe  Fe41      1.0  0.05182  0.53755  0.65285  1.0000
  S   S77       1.0  0.98049  0.52003  0.66954  1.0000
  H   H305      1.0  0.99551  0.29195  0.67316  1.0000
  C   C180      1.0  0.82372  0.56713  0.72973  1.0000
  Fe  Fe42      1.0  0.06482  0.13219  0.68400  1.0000
  Fe  Fe43      1.0  0.01450  0.50501  0.71759  1.0000
  S   S78       1.0  0.00000  0.44681  0.74760  1.0000
  C   C181      1.0  0.88037  0.30088  0.65737  1.0000
  S   S79       1.0  0.08639  0.51680  0.69924  1.0000
  C   C182      1.0  0.15263  0.50279  0.81731  1.0000
  H   H306      1.0  0.03890  0.50983  0.79647  1.0000
  S   S80       1.0  0.73080  0.57539  0.74202  1.0000
  H   H307      1.0  0.95514  0.25201  0.66043  1.0000
  C   C183      1.0  0.10003  0.19861  0.81928  1.0000
  H   H308      1.0  0.88288  0.30935  0.63095  1.0000
  Fe  Fe44      1.0  0.07522  0.58282  0.71684  1.0000
  S   S81       1.0  0.00520  0.56998  0.73862  1.0000
  H   H309      1.0  0.12299  0.24476  0.58622  1.0000
  H   H310      1.0  0.10468  0.19656  0.60517  1.0000
  C   C184      1.0  0.07192  0.33084  0.70547  1.0000
  C   C185      1.0  0.04813  0.32824  0.73531  1.0000
  C   C186      1.0  0.02637  0.36406  0.74835  1.0000
  C   C187      1.0  0.02826  0.40247  0.73153  1.0000
  C   C188      1.0  0.05185  0.40490  0.70164  1.0000
  C   C189      1.0  0.07397  0.36927  0.68881  1.0000
  H   H311      1.0  0.04727  0.29889  0.74863  1.0000
  H   H312      1.0  0.00814  0.36204  0.77147  1.0000
  H   H313      1.0  0.05253  0.43402  0.68803  1.0000
  C   C190      1.0  0.85104  0.11337  0.65462  1.0000
  H   H314      1.0  0.89054  0.31577  0.72197  1.0000
  H   H315      1.0  0.91128  0.26395  0.71222  1.0000
  H   H316      1.0  0.82303  0.54190  0.74750  1.0000
  N   N17       1.0  0.92395  0.31044  0.67500  1.0000
  H   H317      1.0  0.85064  0.31841  0.66804  1.0000
  C   C191      1.0  0.78284  0.58867  0.72208  1.0000
  H   H318      1.0  0.90635  0.37522  0.68445  1.0000
  S   S82       1.0  0.07542  0.51592  0.60314  1.0000
  H   H319      1.0  0.95142  0.30481  0.72380  1.0000
  S   S83       1.0  0.03052  0.14184  0.80520  1.0000
  H   H320      1.0  0.95472  0.14925  0.62653  1.0000
  H   H321      1.0  0.81897  0.14157  0.78263  1.0000
  C   C192      1.0  0.93415  0.35603  0.67292  1.0000
  C   C193      1.0  0.91907  0.29822  0.70980  1.0000
  H   H322      1.0  0.89737  0.56266  0.72139  1.0000
  H   H323      1.0  0.87175  0.26662  0.65866  1.0000
  H   H324      1.0  0.96776  0.29554  0.63390  1.0000
  C   C194      1.0  0.89073  0.13863  0.65237  1.0000
  C   C195      1.0  0.89071  0.57005  0.60090  1.0000
  C   C196      1.0  0.07708  0.51285  0.79338  1.0000
  H   H325      1.0  0.97899  0.54518  0.59307  1.0000
  C   C197      1.0  0.06410  0.11412  0.59912  1.0000
  H   H326      1.0  0.90824  0.56210  0.62442  1.0000
  C   C198      1.0  0.13263  0.21127  0.59027  1.0000
  C   C199      1.0  0.90788  0.14233  0.76513  1.0000
  H   H327      1.0  0.10324  0.43307  0.80351  1.0000
  H   H328      1.0  0.90425  0.12783  0.74036  1.0000
  N   N18       1.0  0.88674  0.11551  0.79061  1.0000
  H   H329      1.0  0.14951  0.21615  0.65504  1.0000
  C   C200      1.0  0.83682  0.11060  0.78361  1.0000
  H   H330      1.0  0.72681  0.53318  0.81073  1.0000
  N   N19       1.0  0.10235  0.49645  0.82212  1.0000
  H   H331      1.0  0.73623  0.55358  0.00134  1.0000
  C   C201      1.0  0.14825  0.40778  0.00116  1.0000
  H   H332      1.0  0.14633  0.42270  0.02497  1.0000
  H   H333      1.0  0.09500  0.55345  0.85017  1.0000
  N   N20       1.0  0.67535  0.56267  0.03077  1.0000
  H   H334      1.0  0.86656  0.15534  0.95906  1.0000
  H   H335      1.0  0.06965  0.28130  0.87381  1.0000
  H   H336      1.0  0.15468  0.35457  0.91547  1.0000
  H   H337      1.0  0.02029  0.24692  0.87135  1.0000
  S   S84       1.0  0.13278  0.54762  0.95118  1.0000
  Fe  Fe45      1.0  0.81762  0.15200  0.89855  1.0000
  C   C202      1.0  0.89316  0.13540  0.82312  1.0000
  S   S85       1.0  0.77238  0.13904  0.85484  1.0000
  C   C203      1.0  0.98977  0.32603  0.87053  1.0000
  C   C204      1.0  0.69484  0.25012  0.87258  1.0000
  C   C205      1.0  0.69857  0.29420  0.87148  1.0000
  H   H338      1.0  0.72556  0.23085  0.87076  1.0000
  H   H339      1.0  0.73221  0.30890  0.86868  1.0000
  N   N21       1.0  0.67539  0.26545  0.98436  1.0000
  H   H340      1.0  0.74383  0.58884  0.03554  1.0000
  H   H341      1.0  0.66189  0.51623  0.99349  1.0000
  H   H342      1.0  0.74607  0.24457  0.98112  1.0000
  H   H343      1.0  0.94870  0.26452  0.90457  1.0000
  C   C206      1.0  0.03924  0.26922  0.88773  1.0000
  H   H344      1.0  0.92040  0.13859  0.00459  1.0000
  C   C207      1.0  0.71823  0.24926  0.99965  1.0000
  H   H345      1.0  0.73166  0.27126  0.01874  1.0000
  C   C208      1.0  0.66356  0.57022  0.06555  1.0000
  C   C209      1.0  0.13102  0.21906  0.84067  1.0000
  S   S86       1.0  0.13551  0.33302  0.03345  1.0000
  S   S87       1.0  0.75870  0.16423  0.93295  1.0000
  C   C210      1.0  0.90345  0.15963  0.95575  1.0000
  Fe  Fe46      1.0  0.13644  0.26563  0.01689  1.0000
  Fe  Fe47      1.0  0.71380  0.14434  0.89070  1.0000
  H   H346      1.0  0.05196  0.31775  0.94110  1.0000
  H   H347      1.0  0.69628  0.33056  0.98684  1.0000
  H   H348      1.0  0.10150  0.11907  0.04991  1.0000
  C   C211      1.0  0.13199  0.20842  0.87401  1.0000
  H   H349      1.0  0.01771  0.33920  0.85472  1.0000
  H   H350      1.0  0.68537  0.23083  0.93971  1.0000
  H   H351      1.0  0.87627  0.16679  0.82441  1.0000
  N   N22       1.0  0.00917  0.30380  0.89921  1.0000
  Fe  Fe48      1.0  0.08582  0.18354  0.00379  1.0000
  S   S88       1.0  0.88276  0.19050  0.89458  1.0000
  H   H352      1.0  0.66517  0.49562  0.03446  1.0000
  H   H353      1.0  0.06606  0.34722  0.90504  1.0000
  C   C212      1.0  0.14397  0.36405  0.99839  1.0000
  S   S89       1.0  0.66415  0.37420  0.87602  1.0000
  H   H354      1.0  0.67370  0.48828  0.86665  1.0000
  S   S90       1.0  0.12725  0.20705  0.04685  1.0000
  S   S91       1.0  0.08841  0.24464  0.97688  1.0000
  H   H355      1.0  0.04803  0.13279  0.87388  1.0000
  C   C213      1.0  0.98161  0.15697  0.97789  1.0000
  C   C214      1.0  0.03677  0.33358  0.91929  1.0000
  H   H356      1.0  0.11050  0.43754  0.84729  1.0000
  C   C215      1.0  0.92069  0.17545  0.92614  1.0000
  C   C216      1.0  0.96850  0.18037  0.92201  1.0000
  C   C217      1.0  0.99888  0.17159  0.94795  1.0000
  H   H357      1.0  0.98435  0.26815  0.94056  1.0000
  H   H358      1.0  0.10293  0.16870  0.91144  1.0000
  H   H359      1.0  0.98204  0.19062  0.89867  1.0000
  H   H360      1.0  0.03569  0.17556  0.94467  1.0000
  H   H361      1.0  0.74011  0.53297  0.04226  1.0000
  C   C218      1.0  0.10219  0.17718  0.88584  1.0000
  H   H362      1.0  0.01533  0.36015  0.92847  1.0000
  H   H363      1.0  0.96857  0.30431  0.85504  1.0000
  C   C219      1.0  0.07117  0.15685  0.86453  1.0000
  C   C220      1.0  0.72617  0.55940  0.02733  1.0000
  H   H364      1.0  0.15395  0.24330  0.83143  1.0000
  S   S92       1.0  0.01941  0.14797  0.01092  1.0000
  C   C221      1.0  0.68489  0.30651  0.96859  1.0000
  H   H365      1.0  0.10574  0.50738  0.87421  1.0000
  H   H366      1.0  0.71224  0.30376  0.94945  1.0000
  C   C222      1.0  0.15551  0.43228  0.97303  1.0000
  H   H367      1.0  0.05298  0.25054  0.90862  1.0000
  C   C223      1.0  0.93394  0.15023  0.98157  1.0000
  C   C224      1.0  0.72617  0.10670  0.05267  1.0000
  C   C225      1.0  0.08746  0.51915  0.85200  1.0000
  H   H368      1.0  0.71216  0.21823  0.01171  1.0000
  C   C226      1.0  0.71981  0.10277  0.01872  1.0000
  H   H369      1.0  0.14471  0.31150  0.96492  1.0000
  C   C227      1.0  0.97098  0.28632  0.91921  1.0000
  S   S93       1.0  0.14573  0.15529  0.97673  1.0000
  H   H370      1.0  0.94817  0.31153  0.92899  1.0000
  H   H371      1.0  0.87815  0.11569  0.84307  1.0000
  H   H372      1.0  0.67676  0.11898  0.97751  1.0000
  C   C228      1.0  0.07010  0.16743  0.83123  1.0000
  Fe  Fe49      1.0  0.15267  0.21906  0.95359  1.0000
  C   C229      1.0  0.15294  0.36961  0.93927  1.0000
  H   H373      1.0  0.04958  0.51571  0.85623  1.0000
  H   H374      1.0  0.93055  0.14002  0.82906  1.0000
  H   H375      1.0  0.96700  0.35248  0.87822  1.0000
  C   C230      1.0  0.14675  0.34511  0.96741  1.0000
  C   C231      1.0  0.15781  0.41318  0.94206  1.0000
  C   C232      1.0  0.09223  0.45102  0.82568  1.0000
  H   H376      1.0  0.05442  0.44533  0.82882  1.0000
  C   C233      1.0  0.68215  0.12248  0.00366  1.0000
  H   H377      1.0  0.66864  0.59438  0.98447  1.0000
  H   H378      1.0  0.67453  0.54414  0.85874  1.0000
  H   H379      1.0  0.15919  0.46594  0.97551  1.0000
  C   C234      1.0  0.69554  0.13106  0.07145  1.0000
  H   H380      1.0  0.12780  0.82710  0.21092  1.0000
  C   C235      1.0  0.08076  0.77643  0.17059  1.0000
  H   H381      1.0  0.05748  0.79580  0.18619  1.0000
  H   H382      1.0  0.08763  0.74661  0.18396  1.0000
  H   H383      1.0  0.67815  0.60053  0.07470  1.0000
  C   C236      1.0  0.14489  0.60306  0.12314  1.0000
  H   H384      1.0  0.10995  0.08944  0.08684  1.0000
  Fe  Fe50      1.0  0.12106  0.65240  0.19292  1.0000
  C   C237      1.0  0.75528  0.09595  0.31534  1.0000
  H   H385      1.0  0.06151  0.76752  0.14790  1.0000
  H   H386      1.0  0.10367  0.71043  0.30643  1.0000
  H   H387      1.0  0.09193  0.85962  0.16086  1.0000
  C   C238      1.0  0.11382  0.83854  0.14557  1.0000
  C   C239      1.0  0.15349  0.77206  0.14164  1.0000
  Fe  Fe51      1.0  0.10111  0.63509  0.26479  1.0000
  H   H388      1.0  0.11342  0.01190  0.08447  1.0000
  S   S94       1.0  0.12032  0.69403  0.23757  1.0000
  H   H389      1.0  0.13455  0.76176  0.11918  1.0000
  C   C240      1.0  0.12221  0.63954  0.11304  1.0000
  S   S95       1.0  0.09741  0.67288  0.14269  1.0000
  N   N23       1.0  0.12436  0.79887  0.16289  1.0000
  S   S96       1.0  0.04920  0.63334  0.30603  1.0000
  H   H390      1.0  0.14621  0.85615  0.13947  1.0000
  C   C241      1.0  0.14947  0.80852  0.19365  1.0000
  C   C242      1.0  0.12064  0.64952  0.07951  1.0000
  C   C243      1.0  0.67322  0.09138  0.30382  1.0000
  H   H391      1.0  0.09508  0.83232  0.12216  1.0000
  C   C244      1.0  0.69914  0.06217  0.51503  1.0000
  H   H392      1.0  0.69893  0.98923  0.48212  1.0000
  C   C245      1.0  0.78220  0.05341  0.51391  1.0000
  H   H393      1.0  0.66548  0.05594  0.50247  1.0000
  H   H394      1.0  0.69949  0.76339  0.42734  1.0000
  H   H395      1.0  0.77194  0.66944  0.48471  1.0000
  C   C246      1.0  0.12115  0.62411  0.53700  1.0000
  H   H396      1.0  0.70287  0.09692  0.51758  1.0000
  C   C247      1.0  0.81601  0.70057  0.44960  1.0000
  H   H397      1.0  0.86821  0.73126  0.42033  1.0000
  S   S97       1.0  0.77500  0.69969  0.41787  1.0000
  H   H398      1.0  0.68566  0.83202  0.50009  1.0000
  H   H399      1.0  0.07101  0.66114  0.56319  1.0000
  C   C248      1.0  0.75930  0.79535  0.47220  1.0000
  H   H400      1.0  0.74301  0.79460  0.40781  1.0000
  C   C249      1.0  0.80489  0.68470  0.48062  1.0000
  H   H401      1.0  0.13687  0.67993  0.44028  1.0000
  C   C250      1.0  0.04924  0.67770  0.33203  1.0000
  N   N24       1.0  0.72140  0.81756  0.45513  1.0000
  H   H402      1.0  0.15477  0.83443  0.53424  1.0000
  C   C251      1.0  0.01944  0.67861  0.35918  1.0000
  H   H403      1.0  0.66689  0.78443  0.48036  1.0000
  H   H404      1.0  0.82721  0.67702  0.53062  1.0000
  C   C252      1.0  0.83654  0.68844  0.50655  1.0000
  H   H405      1.0  0.76853  0.04852  0.44844  1.0000
  H   H406      1.0  0.07647  0.90386  0.41674  1.0000
  H   H407      1.0  0.76800  0.81063  0.49603  1.0000
  H   H408      1.0  0.81256  0.03981  0.50088  1.0000
  H   H409      1.0  0.68416  0.81303  0.40947  1.0000
  C   C253      1.0  0.71154  0.79635  0.42354  1.0000
  S   S98       1.0  0.69513  0.89893  0.55148  1.0000
  H   H410      1.0  0.74235  0.87869  0.47247  1.0000
  S   S99       1.0  0.13952  0.66543  0.51157  1.0000
  H   H411      1.0  0.10433  0.77150  0.34436  1.0000
  H   H412      1.0  0.70752  0.87920  0.43590  1.0000
  H   H413      1.0  0.74978  0.76204  0.47734  1.0000
  H   H414      1.0  0.12392  0.86631  0.45715  1.0000
  S   S100      1.0  0.67852  0.69592  0.48269  1.0000
  C   C254      1.0  0.73531  0.86170  0.44902  1.0000
  Fe  Fe52      1.0  0.70773  0.67263  0.43528  1.0000
  H   H415      1.0  0.78377  0.09478  0.33256  1.0000
  C   C255      1.0  0.85941  0.71910  0.44433  1.0000
  C   C256      1.0  0.10406  0.89880  0.39808  1.0000
  H   H416      1.0  0.14185  0.83033  0.42566  1.0000
  Fe  Fe53      1.0  0.08730  0.71737  0.50905  1.0000
  S   S101      1.0  0.04436  0.74511  0.54953  1.0000
  H   H417      1.0  0.73150  0.98297  0.51934  1.0000
  Fe  Fe54      1.0  0.04252  0.77008  0.45613  1.0000
  S   S102      1.0  0.99406  0.80173  0.49138  1.0000
  N   N25       1.0  0.73830  0.04376  0.49665  1.0000
  Fe  Fe55      1.0  0.05604  0.80682  0.52422  1.0000
  S   S103      1.0  0.06495  0.86870  0.55039  1.0000
  Fe  Fe56      1.0  0.98609  0.73759  0.51376  1.0000
  S   S104      1.0  0.91994  0.71049  0.53351  1.0000
  S   S105      1.0  0.10536  0.77993  0.48735  1.0000
  S   S106      1.0  0.02800  0.70513  0.47500  1.0000
  S   S107      1.0  0.69975  0.08130  0.36839  1.0000
  C   C257      1.0  0.05114  0.74632  0.37585  1.0000
  H   H418      1.0  0.92360  0.60809  0.52646  1.0000
  C   C258      1.0  0.11961  0.93649  0.53576  1.0000
  C   C259      1.0  0.11712  0.89263  0.53850  1.0000
  C   C260      1.0  0.08053  0.74566  0.34853  1.0000
  H   H419      1.0  0.08960  0.95551  0.54084  1.0000
  H   H420      1.0  0.09497  0.86933  0.38458  1.0000
  H   H421      1.0  0.97207  0.63704  0.57045  1.0000
  C   C261      1.0  0.13407  0.66572  0.41533  1.0000
  C   C262      1.0  0.02065  0.71267  0.38124  1.0000
  C   C263      1.0  0.87999  0.70682  0.50124  1.0000
  C   C264      1.0  0.89152  0.72195  0.47007  1.0000
  C   C265      1.0  0.67936  0.81699  0.47578  1.0000
  C   C266      1.0  0.08006  0.71115  0.32693  1.0000
  H   H422      1.0  0.99545  0.65285  0.36320  1.0000
  H   H423      1.0  0.92506  0.73608  0.46572  1.0000
  H   H424      1.0  0.69660  0.04872  0.54020  1.0000
  H   H425      1.0  0.87218  0.61899  0.54929  1.0000
  H   H426      1.0  0.76071  0.98262  0.48049  1.0000
  H   H427      1.0  0.13549  0.94255  0.45020  1.0000
  C   C267      1.0  0.73212  0.99760  0.49451  1.0000
  C   C268      1.0  0.73954  0.06172  0.46318  1.0000
  H   H428      1.0  0.99748  0.71322  0.40207  1.0000
  H   H429      1.0  0.76716  0.86334  0.43368  1.0000
  H   H430      1.0  0.10251  0.92537  0.38032  1.0000
  H   H431      1.0  0.78241  0.04031  0.53927  1.0000
  C   C269      1.0  0.15023  0.86103  0.43758  1.0000
  C   C270      1.0  0.08643  0.63050  0.56038  1.0000
  S   S108      1.0  0.05445  0.78862  0.40361  1.0000
  H   H432      1.0  0.10618  0.68277  0.40219  1.0000
  H   H433      1.0  0.01783  0.98243  0.55737  1.0000
  H   H434      1.0  0.79138  0.79448  0.45704  1.0000
  H   H435      1.0  0.78810  0.08798  0.51607  1.0000
  H   H436      1.0  0.05105  0.63017  0.42339  1.0000
  N   N26       1.0  0.15027  0.89579  0.41354  1.0000
  H   H437      1.0  0.74401  0.09656  0.46376  1.0000
  C   C271      1.0  0.15614  0.86825  0.53140  1.0000
  H   H438      1.0  0.08321  0.62477  0.46089  1.0000
  H   H439      1.0  0.15064  0.60947  0.36826  1.0000
  C   C272      1.0  0.13358  0.07889  0.56023  1.0000
  H   H440      1.0  0.70690  0.05497  0.44946  1.0000
  C   C273      1.0  0.70988  0.08985  0.32633  1.0000
  C   C274      1.0  0.08040  0.61320  0.43514  1.0000
  N   N27       1.0  0.12409  0.62006  0.41700  1.0000
  H   H441      1.0  0.08938  0.61678  0.37042  1.0000
  S   S109      1.0  0.69353  0.60443  0.44511  1.0000
  C   C275      1.0  0.11943  0.60280  0.38342  1.0000
  H   H442      1.0  0.97207  0.01532  0.57208  1.0000
  C   C276      1.0  0.97711  0.94325  0.60721  1.0000
  S   S110      1.0  0.69226  0.78222  0.77180  1.0000
  Fe  Fe57      1.0  0.67893  0.62820  0.74111  1.0000
  C   C277      1.0  0.76922  0.98873  0.74268  1.0000
  C   C278      1.0  0.99081  0.00881  0.63588  1.0000
  S   S111      1.0  0.68252  0.68775  0.71166  1.0000
  S   S112      1.0  0.66396  0.66110  0.78866  1.0000
  C   C279      1.0  0.79546  0.78043  0.70431  1.0000
  S   S113      1.0  0.74587  0.99629  0.60474  1.0000
  Fe  Fe58      1.0  0.80508  0.89914  0.64362  1.0000
  S   S114      1.0  0.72810  0.90799  0.64470  1.0000
  C   C280      1.0  0.72376  0.80120  0.60918  1.0000
  Fe  Fe59      1.0  0.73666  0.92782  0.59246  1.0000
  H   H443      1.0  0.97150  0.69350  0.64055  1.0000
  Fe  Fe60      1.0  0.74542  0.97505  0.65742  1.0000
  S   S115      1.0  0.70639  0.01226  0.69544  1.0000
  S   S116      1.0  0.81257  0.91432  0.59038  1.0000
  H   H444      1.0  0.70195  0.79960  0.67331  1.0000
  S   S117      1.0  0.82212  0.96459  0.66070  1.0000
  H   H445      1.0  0.88598  0.70396  0.64082  1.0000
  N   N28       1.0  0.68598  0.77698  0.62481  1.0000
  H   H446      1.0  0.78206  0.96619  0.72507  1.0000
  C   C281      1.0  0.73263  0.01537  0.73432  1.0000
  H   H447      1.0  0.05708  0.95024  0.64110  1.0000
  C   C282      1.0  0.87920  0.06939  0.61007  1.0000
  H   H448      1.0  0.91138  0.78351  0.67947  1.0000
  C   C283      1.0  0.67235  0.79759  0.65588  1.0000
  C   C284      1.0  0.73497  0.79750  0.74357  1.0000
  C   C285      1.0  0.76347  0.76771  0.72832  1.0000
  H   H449      1.0  0.93422  0.73168  0.68594  1.0000
  C   C286      1.0  0.79881  0.82295  0.69556  1.0000
  C   C287      1.0  0.77140  0.85279  0.71157  1.0000
  C   C288      1.0  0.73952  0.84007  0.73546  1.0000
  C   C289      1.0  0.09647  0.08702  0.61318  1.0000
  H   H450      1.0  0.68707  0.06434  0.75141  1.0000
  H   H451      1.0  0.77456  0.88579  0.70546  1.0000
  H   H452      1.0  0.71739  0.86310  0.74689  1.0000
  H   H453      1.0  0.81539  0.05843  0.63626  1.0000
  H   H454      1.0  0.90537  0.05779  0.76634  1.0000
  H   H455      1.0  0.75245  0.63627  0.69160  1.0000
  H   H456      1.0  0.94098  0.95241  0.60080  1.0000
  H   H457      1.0  0.67454  0.71503  0.64388  1.0000
  H   H458      1.0  0.97300  0.71599  0.60003  1.0000
  C   C290      1.0  0.70213  0.73381  0.63176  1.0000
  C   C291      1.0  0.71547  0.04373  0.75774  1.0000
  C   C292      1.0  0.84559  0.07841  0.63379  1.0000
  C   C293      1.0  0.73463  0.04527  0.78944  1.0000
  Fe  Fe61      1.0  0.82131  0.98099  0.60727  1.0000
  H   H459      1.0  0.97692  0.80793  0.62316  1.0000
  C   C294      1.0  0.67917  0.93480  0.78586  1.0000
  C   C295      1.0  0.78824  0.99014  0.77435  1.0000
  H   H460      1.0  0.76121  0.73492  0.73526  1.0000
  H   H461      1.0  0.97581  0.92579  0.63082  1.0000
  H   H462      1.0  0.81619  0.96907  0.78076  1.0000
  S   S118      1.0  0.83426  0.83862  0.66286  1.0000
  H   H463      1.0  0.01141  0.03849  0.63706  1.0000
  C   C296      1.0  0.89144  0.73424  0.62766  1.0000
  H   H464      1.0  0.99302  0.99361  0.66038  1.0000
  C   C297      1.0  0.77087  0.01824  0.79778  1.0000
  H   H465      1.0  0.71170  0.71666  0.60891  1.0000
  H   H466      1.0  0.97292  0.77526  0.67889  1.0000
  H   H467      1.0  0.00909  0.73715  0.63200  1.0000
  C   C298      1.0  0.93902  0.76129  0.67161  1.0000
  C   C299      1.0  0.78398  0.62094  0.69881  1.0000
  S   S119      1.0  0.91924  0.62855  0.67473  1.0000
  H   H468      1.0  0.81689  0.75720  0.69227  1.0000
  C   C300      1.0  0.08395  0.63208  0.79717  1.0000
  H   H469      1.0  0.92091  0.64923  0.59353  1.0000
  H   H470      1.0  0.06908  0.94530  0.59814  1.0000
  H   H471      1.0  0.82640  0.65826  0.66661  1.0000
  C   C301      1.0  0.94288  0.79290  0.61768  1.0000
  C   C302      1.0  0.12996  0.06792  0.59341  1.0000
  H   H472      1.0  0.89331  0.05259  0.80936  1.0000
  Fe  Fe62      1.0  0.66130  0.71964  0.75812  1.0000
  C   C303      1.0  0.82593  0.63295  0.68428  1.0000
  N   N29       1.0  0.93692  0.75303  0.63592  1.0000
  S   S120      1.0  0.04770  0.60504  0.66848  1.0000
  H   H473      1.0  0.05396  0.63158  0.78130  1.0000
  H   H474      1.0  0.94118  0.78751  0.59066  1.0000
  S   S121      1.0  0.87406  0.02434  0.58523  1.0000
  H   H475      1.0  0.91532  0.81593  0.62410  1.0000
  H   H476      1.0  0.07948  0.99449  0.61893  1.0000
  C   C304      1.0  0.68357  0.87250  0.81950  1.0000
  C   C305      1.0  0.86696  0.61230  0.69264  1.0000
  H   H477      1.0  0.95404  0.01770  0.63186  1.0000
  H   H478      1.0  0.98943  0.92099  0.58792  1.0000
  C   C306      1.0  0.97425  0.72358  0.62669  1.0000
  N   N30       1.0  0.00767  0.98062  0.60958  1.0000
  H   H479      1.0  0.71231  0.83352  0.60263  1.0000
  C   C307      1.0  0.00726  0.00331  0.57795  1.0000
  H   H480      1.0  0.67296  0.96936  0.78497  1.0000
  C   C308      1.0  0.94683  0.62420  0.58856  1.0000
  H   H481      1.0  0.71421  0.92919  0.77547  1.0000
  H   H482      1.0  0.96580  0.61818  0.61186  1.0000
  H   H483      1.0  0.72099  0.06701  0.80746  1.0000
  N   N31       1.0  0.67561  0.91846  0.81969  1.0000
  H   H484      1.0  0.03126  0.03081  0.57828  1.0000
  H   H485      1.0  0.88834  0.72790  0.60088  1.0000
  H   H486      1.0  0.73568  0.78579  0.58617  1.0000
  H   H487      1.0  0.65969  0.83019  0.65165  1.0000
  C   C309      1.0  0.05541  0.96708  0.61724  1.0000
  S   S122      1.0  0.09801  0.07944  0.65568  1.0000
  H   H488      1.0  0.86260  0.75564  0.63466  1.0000
  S   S123      1.0  0.13593  0.61269  0.74261  1.0000
  H   H489      1.0  0.75419  0.80439  0.62583  1.0000
  C   C310      1.0  0.12815  0.62567  0.78407  1.0000
  H   H490      1.0  0.73266  0.73398  0.64848  1.0000
  C   C311      1.0  0.90909  0.07370  0.79056  1.0000
  H   H491      1.0  0.71838  0.86458  0.80948  1.0000
  H   H492      1.0  0.94684  0.07639  0.79609  1.0000
  H   H493      1.0  0.94418  0.08884  0.58879  1.0000
  H   H494      1.0  0.81965  0.09182  0.80299  1.0000
  H   H495      1.0  0.15453  0.04617  0.60404  1.0000
  H   H496      1.0  0.83066  0.09418  0.75980  1.0000
  C   C312      1.0  0.91816  0.09549  0.60714  1.0000
  H   H497      1.0  0.04659  0.60277  0.59933  1.0000
  S   S124      1.0  0.79452  0.01812  0.83750  1.0000
  C   C313      1.0  0.11724  0.63894  0.85173  1.0000
  C   C314      1.0  0.14240  0.62318  0.05631  1.0000
  H   H498      1.0  0.68148  0.85889  0.84457  1.0000
  S   S125      1.0  0.10975  0.64134  0.89438  1.0000
  H   H499      1.0  0.04400  0.05259  0.01420  1.0000
  H   H500      1.0  0.04427  0.64323  0.84119  1.0000
  C   C315      1.0  0.15755  0.05433  0.03688  1.0000
  S   S126      1.0  0.71261  0.07557  0.90359  1.0000
  H   H501      1.0  0.10570  0.98488  0.04603  1.0000
  S   S127      1.0  0.75867  0.07279  0.99543  1.0000
  H   H502      1.0  0.70550  0.97396  0.84163  1.0000
  C   C316      1.0  0.09536  0.01323  0.06033  1.0000
  Fe  Fe63      1.0  0.76206  0.09505  0.94328  1.0000
  Fe  Fe64      1.0  0.77541  0.07171  0.87127  1.0000
  S   S128      1.0  0.82506  0.08437  0.91242  1.0000
  C   C317      1.0  0.71078  0.93924  0.84061  1.0000
  H   H503      1.0  0.14104  0.63075  0.03046  1.0000
  C   C318      1.0  0.09266  0.08907  0.06244  1.0000
  C   C319      1.0  0.07853  0.63901  0.83098  1.0000
  H   H504      1.0  0.09040  0.08207  0.99669  1.0000
  H   H505      1.0  0.67227  0.62880  0.01932  1.0000
  N   N32       1.0  0.10699  0.05239  0.04258  1.0000
  C   C320      1.0  0.08231  0.05298  0.01077  1.0000
  H   H506      1.0  0.09177  0.02561  0.99512  1.0000
  H   H507      1.0  0.75531  0.09146  0.06434  1.0000
  H   H508      1.0  0.70976  0.92736  0.86624  1.0000
  H   H509      1.0  0.05743  0.01094  0.06507  1.0000
  H   H510      1.0  0.74648  0.93391  0.83111  1.0000
  H   H511      1.0  0.05448  0.08940  0.06647  1.0000
  H   H512      1.0  0.10281  0.67757  0.07149  1.0000
