data_image0
_chemical_formula_structural       HCH5CH2C2H3CHCHC2H5CSC5H2CHNH4C4H3CH4FeS2FeSFeSFeHFe2S2Fe2S2C6H4CSH4C2HSH2CHSC4HC2H2CN2CHC2H3CHCSH2NH3CH6CHCHCSC2SH2FeS2FeS2FeSFeS3FeSH9C6H5C8H4C6H3N2HNC4H15NHCH2CH2SC2H2NH3CNHC2H4SHSC2HSH2CHCH3CH5SH5CHSFeSHFeSHFe2S2CFeS2FeS2Fe2S3HC3HC4H2CHC6H5SC3HC3H5CNC2HCH3SH5SH3CHCH2CNHSH3CH4SC2H4C2HNCHCH2FeHSCH3CHC3H2SCH2C3SCH2C4HC4HCHCNHFeH2SHCH6CSHCH3CHFeHNHCH4CH7CSH5CSH2CHCSH2NH3SCSH3CNC2H3C6H2SC6H2CH2NCH6CH2CHCHCHCHCFeC4H2C3HSNHCH2C2H2SCH3SHCHCHCHCH3CHSH5CHCH5NCHSHSH2C3H4CSFeS2FeSC2S2FeHFeS2FeCFeCS2FeS2FeSHFeSFeSFeCFeS2FeSFeHS2H2C2SCHC4H4FeHNC6H7C6H4CSH2C2SH2CH2CHCH6FeC2HNC2H6CHNCH5CHC5SH2SH4SH2C2H4CSHFeHFeS2FeHFeHS3HFeS2FeHFeCS3HC7H6FeNCH3SCH3CHSH5CH3FeS2FeS2FeSFeS3HSH3CHC7H2CHC6H4C6H4C5H3CSH3NC4H16NHCNHC2H2NC4H14SCHCH4CHCH5Fe2S2Fe2SFe2SFe2S2C4H3S2H2NC3H2CH4CH4CH4NHC2HCH3CHSCSH2CSCHFeS2FeS2FeSFeS3H5CH4CHC6SH3C6H4C6H4C3H2C2H3C2H3NHCSHCH2C2H3NCH2C2H2CH4C2H2CH3CNHCH3CH2NH4CH6NHCH2C2H2C2SHCH5CHSHSHCSHCHFeSFe2S2FeSFeHFeS3FeCSH2CFeH3NHNH2C2H2CHCH2C6H4C6H4C6H2SH2S2HCHCHFeH3C2HSNH8CH2C5H3NCHNCHC2H2CH5CH3SH9CH5CH2CHCH2SHCFeH3S2CHSH2SC2HCH2FeCFeC2FeS2FeS2FeSFeS3FeHSH5CH3CNC6H4C6H4C6HCHNH3CH10SCNC4H4CH7CH2CSH3SCHSHCSCFeSHC2SC3HCH3S3FeSHFeCH6C3H2FeHFeH2CH4NCHCHCSH3SHN2CH2CHFeHCFeH3SFeHCFe2S2FeSHFeSFeSFe2S2FeSFeCS2FeSFeS2FeHFeHS2FeHFeS2FeHFeHS2C2SC2H2CH2CSCNHCH2CHC4H3C7H4C5H5C2S2HNC4H12NC4H13CHCHCSCH3CHC3HCHCNCH3CH2S2FeSHSFeS2FeSFeS3CH4S2H2CNCH3C6H4C6H4C5H3FeCH2NC3H3NC4H10NCHCH2C2H4CHC2H2CHSH3C3H3C2HSH3C4H9C2HCH4CSH2S2CHCSH3CH5FeH2FeHSFeSHSHC3SH2C6H3C7H2CHC6H3NH8CH3SH7C3HSHNH2SH5CH3CH3CNH2SC3HC2H6NC2H6CNHSHFeS2FeHFeHFeS4HCSHFe2HSFeSHFeSCHFeS2FeHS2HCHSH3CHCSC2HCNHCH2C2HC7H4C2SC3H10FeHSH2CH2NCHCSHSFeHFeCSH2NSC2FeHSHCH4NCH2C2HC2H3SFeS2FeS2FeSFeS3C2H3C3HC2H4C6H4C6H4C6H4NC3H5SH4CHN2H6SHCH3CSCHCSHFeNC4H13CH6C2H6CH2NHCH3CHFeS2FeHFeHFeHS2FeHFeSCFeSHFe2S2FeSCH2C3H2CHC6H4SHSHC2HSH3SNHC2SH4CSH3CS2CSHCHSCSNH3C2H2CSH4CH3SH3CH4CH9C3H2NHNHC2HC3H3CHCH
_chemical_formula_sum              "H1152 C720 S288 N72 Fe144"
_cell_length_a       73.2095
_cell_length_b       73.0814
_cell_length_c       36.1417
_cell_angle_alpha    90.9052
_cell_angle_beta     90.8427
_cell_angle_gamma    111.977

_space_group_name_H-M_alt    "P 1"
_space_group_IT_number       1

loop_
  _space_group_symop_operation_xyz
  'x, y, z'

loop_
  _atom_site_type_symbol
  _atom_site_label
  _atom_site_symmetry_multiplicity
  _atom_site_fract_x
  _atom_site_fract_y
  _atom_site_fract_z
  _atom_site_occupancy
  H   H1        1.0  0.00097  0.25921  0.46780  1.0000
  C   C1        1.0  0.01410  0.29612  0.00882  1.0000
  H   H2        1.0  0.19795  0.31192  0.38136  1.0000
  H   H3        1.0  0.15283  0.29185  0.46351  1.0000
  H   H4        1.0  0.07060  0.28393  0.02420  1.0000
  H   H5        1.0  0.97829  0.29219  0.42563  1.0000
  H   H6        1.0  0.02362  0.29766  0.03277  1.0000
  C   C2        1.0  0.01992  0.29009  0.46756  1.0000
  H   H7        1.0  0.19314  0.30191  0.33504  1.0000
  H   H8        1.0  0.13164  0.31405  0.10782  1.0000
  C   C3        1.0  0.00229  0.27405  0.47528  1.0000
  C   C4        1.0  0.99496  0.28128  0.00747  1.0000
  H   H9        1.0  0.99006  0.27141  0.03039  1.0000
  H   H10       1.0  0.03191  0.28746  0.45438  1.0000
  H   H11       1.0  0.16464  0.30616  0.02652  1.0000
  C   C5        1.0  0.18423  0.30707  0.46181  1.0000
  H   H12       1.0  0.18711  0.29410  0.46931  1.0000
  C   C6        1.0  0.16469  0.30577  0.45839  1.0000
  H   H13       1.0  0.15601  0.31477  0.15684  1.0000
  C   C7        1.0  0.19796  0.31590  0.35172  1.0000
  C   C8        1.0  0.02194  0.30946  0.47667  1.0000
  H   H14       1.0  0.04593  0.26834  0.00979  1.0000
  H   H15       1.0  0.05377  0.29461  0.00748  1.0000
  H   H16       1.0  0.11528  0.31678  0.14267  1.0000
  H   H17       1.0  0.13969  0.31727  0.19157  1.0000
  H   H18       1.0  0.97849  0.31664  0.42095  1.0000
  C   C9        1.0  0.05864  0.28203  0.00337  1.0000
  S   S1        1.0  0.13486  0.31869  0.44634  1.0000
  C   C10       1.0  0.98877  0.29197  0.94735  1.0000
  C   C11       1.0  0.07268  0.26510  0.96146  1.0000
  C   C12       1.0  0.02085  0.30880  0.97907  1.0000
  C   C13       1.0  0.00802  0.30658  0.94842  1.0000
  C   C14       1.0  0.04889  0.27815  0.93871  1.0000
  H   H19       1.0  0.09411  0.30365  0.97781  1.0000
  H   H20       1.0  0.07639  0.31278  0.95898  1.0000
  C   C15       1.0  0.98847  0.29638  0.50183  1.0000
  H   H21       1.0  0.05341  0.27746  0.90965  1.0000
  N   N1        1.0  0.06544  0.28138  0.96524  1.0000
  H   H22       1.0  0.08750  0.30024  0.92936  1.0000
  H   H23       1.0  0.07781  0.26409  0.93292  1.0000
  H   H24       1.0  0.99198  0.26344  0.63640  1.0000
  H   H25       1.0  0.98316  0.24515  0.59984  1.0000
  C   C16       1.0  0.00604  0.31242  0.49385  1.0000
  C   C17       1.0  0.98215  0.27908  0.97675  1.0000
  C   C18       1.0  0.98637  0.27703  0.49225  1.0000
  C   C19       1.0  0.08159  0.30030  0.95752  1.0000
  H   H26       1.0  0.03622  0.26422  0.94414  1.0000
  H   H27       1.0  0.08535  0.26731  0.98085  1.0000
  H   H28       1.0  0.04328  0.29035  0.94060  1.0000
  C   C20       1.0  0.98112  0.24836  0.62944  1.0000
  H   H29       1.0  0.06093  0.25062  0.96753  1.0000
  H   H30       1.0  0.98494  0.23772  0.64657  1.0000
  H   H31       1.0  0.97918  0.29050  0.92348  1.0000
  H   H32       1.0  0.01301  0.31624  0.92520  1.0000
  Fe  Fe1       1.0  0.07309  0.34032  0.01505  1.0000
  S   S2        1.0  0.07983  0.36789  0.05056  1.0000
  S   S3        1.0  0.10164  0.34588  0.48444  1.0000
  Fe  Fe2       1.0  0.11499  0.34033  0.03003  1.0000
  S   S4        1.0  0.12420  0.36775  0.06558  1.0000
  Fe  Fe3       1.0  0.09446  0.35407  0.09169  1.0000
  S   S5        1.0  0.08968  0.34497  0.15290  1.0000
  Fe  Fe4       1.0  0.10908  0.37902  0.02122  1.0000
  H   H33       1.0  0.09076  0.42631  0.35975  1.0000
  Fe  Fe5       1.0  0.11369  0.37613  0.46074  1.0000
  Fe  Fe6       1.0  0.10224  0.36020  0.37974  1.0000
  S   S6        1.0  0.08584  0.32592  0.05714  1.0000
  S   S7        1.0  0.10656  0.37526  0.32304  1.0000
  Fe  Fe7       1.0  0.07540  0.33967  0.44534  1.0000
  Fe  Fe8       1.0  0.11631  0.33727  0.43630  1.0000
  S   S8        1.0  0.08704  0.37088  0.42426  1.0000
  S   S9        1.0  0.12986  0.36774  0.41508  1.0000
  C   C21       1.0  0.10183  0.36641  0.27592  1.0000
  C   C22       1.0  0.09217  0.34640  0.26636  1.0000
  C   C23       1.0  0.08847  0.34026  0.22872  1.0000
  C   C24       1.0  0.09440  0.35393  0.19995  1.0000
  C   C25       1.0  0.10429  0.37391  0.20947  1.0000
  C   C26       1.0  0.10788  0.38007  0.24713  1.0000
  H   H34       1.0  0.08735  0.33566  0.28796  1.0000
  H   H35       1.0  0.21325  0.32080  0.28347  1.0000
  H   H36       1.0  0.10901  0.38465  0.18786  1.0000
  H   H37       1.0  0.11535  0.39559  0.25397  1.0000
  C   C27       1.0  0.18957  0.36296  0.03700  1.0000
  S   S10       1.0  0.04360  0.33054  0.46685  1.0000
  H   H38       1.0  0.19645  0.37885  0.04003  1.0000
  H   H39       1.0  0.12753  0.34443  0.18874  1.0000
  H   H40       1.0  0.13395  0.36116  0.15118  1.0000
  H   H41       1.0  0.16601  0.33836  0.10580  1.0000
  C   C28       1.0  0.19584  0.34145  0.44589  1.0000
  C   C29       1.0  0.17597  0.34009  0.44215  1.0000
  H   H42       1.0  0.12270  0.33363  0.10564  1.0000
  S   S11       1.0  0.08917  0.32859  0.39838  1.0000
  H   H43       1.0  0.20784  0.35533  0.44143  1.0000
  H   H44       1.0  0.17280  0.35281  0.43429  1.0000
  C   C30       1.0  0.20128  0.35151  0.03910  1.0000
  H   H45       1.0  0.17461  0.35863  0.13855  1.0000
  S   S12       1.0  0.12548  0.40959  0.99729  1.0000
  C   C31       1.0  0.15988  0.33357  0.02753  1.0000
  C   C32       1.0  0.16905  0.35409  0.03094  1.0000
  C   C33       1.0  0.16138  0.34866  0.12275  1.0000
  C   C34       1.0  0.13953  0.35211  0.16934  1.0000
  H   H46       1.0  0.20677  0.34159  0.29557  1.0000
  C   C35       1.0  0.20000  0.32477  0.45558  1.0000
  C   C36       1.0  0.21739  0.33433  0.30137  1.0000
  H   H47       1.0  0.11998  0.45722  0.37163  1.0000
  H   H48       1.0  0.08084  0.32475  0.22188  1.0000
  C   C37       1.0  0.16029  0.32212  0.44859  1.0000
  N   N2        1.0  0.14514  0.33785  0.14743  1.0000
  N   N3        1.0  0.11825  0.42807  0.38493  1.0000
  C   C38       1.0  0.13116  0.41664  0.38451  1.0000
  H   H49       1.0  0.10199  0.43779  0.42472  1.0000
  C   C39       1.0  0.10086  0.41813  0.36040  1.0000
  C   C40       1.0  0.12927  0.44815  0.37164  1.0000
  H   H50       1.0  0.13639  0.41536  0.35615  1.0000
  H   H51       1.0  0.12309  0.40137  0.39367  1.0000
  H   H52       1.0  0.14421  0.42330  0.40342  1.0000
  C   C41       1.0  0.98932  0.65070  0.48009  1.0000
  H   H53       1.0  0.12457  0.43648  0.44253  1.0000
  C   C42       1.0  0.11179  0.42930  0.42317  1.0000
  S   S13       1.0  0.22691  0.36380  0.04851  1.0000
  H   H54       1.0  0.09224  0.40289  0.36957  1.0000
  H   H55       1.0  0.10526  0.41660  0.33146  1.0000
  N   N4        1.0  0.21767  0.32966  0.34096  1.0000
  H   H56       1.0  0.13435  0.44769  0.34285  1.0000
  H   H57       1.0  0.14254  0.45598  0.38948  1.0000
  H   H58       1.0  0.10355  0.41438  0.43417  1.0000
  C   C43       1.0  0.19219  0.33097  0.03496  1.0000
  H   H59       1.0  0.16034  0.36318  0.02922  1.0000
  H   H60       1.0  0.15689  0.35792  0.10322  1.0000
  H   H61       1.0  0.22519  0.34532  0.39311  1.0000
  H   H62       1.0  0.00430  0.63297  0.45663  1.0000
  H   H63       1.0  0.16458  0.33494  0.19000  1.0000
  H   H64       1.0  0.15217  0.36243  0.18603  1.0000
  C   C44       1.0  0.15166  0.32566  0.17263  1.0000
  H   H65       1.0  0.20102  0.32198  0.03651  1.0000
  C   C45       1.0  0.12797  0.32494  0.12500  1.0000
  H   H66       1.0  0.21193  0.35478  0.36149  1.0000
  C   C46       1.0  0.00564  0.64770  0.46496  1.0000
  S   S14       1.0  0.13386  0.32194  0.02294  1.0000
  C   C47       1.0  0.17156  0.32205  0.02928  1.0000
  C   C48       1.0  0.22324  0.34807  0.36348  1.0000
  S   S15       1.0  0.22412  0.32416  0.45923  1.0000
  H   H67       1.0  0.18662  0.32253  0.34819  1.0000
  H   H68       1.0  0.17241  0.37383  0.48833  1.0000
  Fe  Fe9       1.0  0.14634  0.45577  0.78831  1.0000
  S   S16       1.0  0.17506  0.48221  0.79198  1.0000
  S   S17       1.0  0.12428  0.43562  0.82885  1.0000
  Fe  Fe10      1.0  0.14918  0.44990  0.70346  1.0000
  S   S18       1.0  0.17837  0.47542  0.70080  1.0000
  S   S19       1.0  0.12899  0.42561  0.66372  1.0000
  Fe  Fe11      1.0  0.18689  0.46467  0.75394  1.0000
  S   S20       1.0  0.21244  0.45558  0.76961  1.0000
  Fe  Fe12      1.0  0.16498  0.49203  0.73872  1.0000
  S   S21       1.0  0.17057  0.52377  0.72019  1.0000
  S   S22       1.0  0.15887  0.43797  0.75357  1.0000
  S   S23       1.0  0.13527  0.46692  0.73803  1.0000
  Fe  Fe13      1.0  0.16264  0.63262  0.75776  1.0000
  S   S24       1.0  0.15692  0.60127  0.77746  1.0000
  H   H69       1.0  0.18608  0.42204  0.80563  1.0000
  H   H70       1.0  0.13115  0.36653  0.55201  1.0000
  H   H71       1.0  0.18005  0.40103  0.83482  1.0000
  H   H72       1.0  0.10422  0.39367  0.61698  1.0000
  H   H73       1.0  0.19870  0.62737  0.80019  1.0000
  H   H74       1.0  0.15126  0.33687  0.56167  1.0000
  H   H75       1.0  0.17796  0.42863  0.92132  1.0000
  H   H76       1.0  0.16361  0.34102  0.51834  1.0000
  H   H77       1.0  0.09677  0.56664  0.66036  1.0000
  C   C49       1.0  0.16676  0.54517  0.73705  1.0000
  C   C50       1.0  0.17330  0.56241  0.71588  1.0000
  C   C51       1.0  0.17054  0.57972  0.72774  1.0000
  C   C52       1.0  0.16108  0.58000  0.76100  1.0000
  C   C53       1.0  0.15462  0.56282  0.78222  1.0000
  C   C54       1.0  0.15742  0.54554  0.77040  1.0000
  H   H78       1.0  0.18056  0.56232  0.69005  1.0000
  H   H79       1.0  0.17566  0.59274  0.71106  1.0000
  H   H80       1.0  0.14732  0.56283  0.80804  1.0000
  H   H81       1.0  0.15232  0.53249  0.78708  1.0000
  H   H82       1.0  0.14078  0.60335  0.61714  1.0000
  C   C55       1.0  0.16166  0.37668  0.50668  1.0000
  C   C56       1.0  0.14594  0.37119  0.56586  1.0000
  C   C57       1.0  0.12576  0.42850  0.87548  1.0000
  C   C58       1.0  0.11345  0.40945  0.88601  1.0000
  C   C59       1.0  0.11342  0.40333  0.92290  1.0000
  C   C60       1.0  0.12548  0.41631  0.95003  1.0000
  C   C61       1.0  0.13780  0.43538  0.93949  1.0000
  C   C62       1.0  0.13798  0.44145  0.90250  1.0000
  H   H83       1.0  0.10371  0.39936  0.86562  1.0000
  H   H84       1.0  0.10373  0.38869  0.93054  1.0000
  H   H85       1.0  0.14702  0.44564  0.96028  1.0000
  H   H86       1.0  0.14710  0.45634  0.89525  1.0000
  C   C63       1.0  0.13034  0.42022  0.61580  1.0000
  C   C64       1.0  0.14517  0.43235  0.59323  1.0000
  C   C65       1.0  0.14527  0.42755  0.55521  1.0000
  C   C66       1.0  0.13067  0.41054  0.53933  1.0000
  C   C67       1.0  0.11594  0.39832  0.56196  1.0000
  C   C68       1.0  0.11579  0.40316  0.59989  1.0000
  H   H87       1.0  0.15645  0.44553  0.60497  1.0000
  H   H88       1.0  0.15674  0.43715  0.53805  1.0000
  H   H89       1.0  0.10452  0.38525  0.55019  1.0000
  N   N5        1.0  0.16008  0.36660  0.54230  1.0000
  N   N6        1.0  0.22616  0.63342  0.77257  1.0000
  H   H90       1.0  0.12362  0.58011  0.70810  1.0000
  N   N7        1.0  0.08459  0.41289  0.74157  1.0000
  C   C69       1.0  0.06737  0.39411  0.74277  1.0000
  C   C70       1.0  0.10282  0.40895  0.74683  1.0000
  C   C71       1.0  0.08329  0.42640  0.77141  1.0000
  C   C72       1.0  0.08492  0.42208  0.70529  1.0000
  H   H91       1.0  0.05332  0.39651  0.73893  1.0000
  H   H92       1.0  0.06676  0.38683  0.76984  1.0000
  H   H93       1.0  0.06794  0.38358  0.72063  1.0000
  H   H94       1.0  0.11605  0.42283  0.74607  1.0000
  H   H95       1.0  0.10327  0.40221  0.77408  1.0000
  H   H96       1.0  0.10450  0.39901  0.72460  1.0000
  H   H97       1.0  0.09619  0.44066  0.77154  1.0000
  H   H98       1.0  0.08319  0.42000  0.79924  1.0000
  H   H99       1.0  0.06976  0.42980  0.76841  1.0000
  H   H100      1.0  0.09785  0.43622  0.70342  1.0000
  H   H101      1.0  0.07142  0.42530  0.70023  1.0000
  H   H102      1.0  0.08615  0.41237  0.68215  1.0000
  H   H103      1.0  0.20634  0.64090  0.73747  1.0000
  H   H104      1.0  0.14251  0.60380  0.70212  1.0000
  H   H105      1.0  0.99896  0.64153  0.65373  1.0000
  N   N8        1.0  0.18489  0.42850  0.86357  1.0000
  H   H106      1.0  0.21626  0.62031  0.82523  1.0000
  C   C73       1.0  0.21042  0.62123  0.79703  1.0000
  H   H107      1.0  0.14723  0.37153  0.49151  1.0000
  H   H108      1.0  0.17629  0.40507  0.90288  1.0000
  C   C74       1.0  0.21761  0.63417  0.73562  1.0000
  H   H109      1.0  0.12253  0.61437  0.61357  1.0000
  H   H110      1.0  0.01602  0.64763  0.59362  1.0000
  S   S25       1.0  0.10178  0.35222  0.98441  1.0000
  C   C75       1.0  0.18173  0.44700  0.85690  1.0000
  C   C76       1.0  0.13229  0.59050  0.68684  1.0000
  H   H111      1.0  0.14142  0.58344  0.67258  1.0000
  H   H112      1.0  0.20917  0.41950  0.87534  1.0000
  N   N9        1.0  0.98608  0.64504  0.60177  1.0000
  H   H113      1.0  0.00741  0.32728  0.50129  1.0000
  H   H114      1.0  0.15091  0.38733  0.57200  1.0000
  H   H115      1.0  0.15760  0.41449  0.89161  1.0000
  C   C77       1.0  0.17794  0.41517  0.83079  1.0000
  N   N10       1.0  0.11945  0.59565  0.66043  1.0000
  H   H116      1.0  0.11716  0.61834  0.69630  1.0000
  C   C78       1.0  0.13171  0.60974  0.63338  1.0000
  C   C79       1.0  0.10757  0.60480  0.68085  1.0000
  H   H117      1.0  0.09808  0.60941  0.66177  1.0000
  H   H118      1.0  0.09631  0.58097  0.62057  1.0000
  H   H119      1.0  0.14196  0.62350  0.64735  1.0000
  H   H120      1.0  0.09800  0.59460  0.70136  1.0000
  S   S26       1.0  0.13801  0.64414  0.75719  1.0000
  H   H121      1.0  0.21040  0.61917  0.72278  1.0000
  S   S27       1.0  0.13152  0.40513  0.49129  1.0000
  C   C80       1.0  0.20614  0.43309  0.87017  1.0000
  C   C81       1.0  0.10620  0.57758  0.64071  1.0000
  H   H122      1.0  0.16616  0.44405  0.84888  1.0000
  S   S28       1.0  0.17339  0.64489  0.70215  1.0000
  H   H123      1.0  0.16200  0.41165  0.82478  1.0000
  H   H124      1.0  0.13862  0.33935  0.52023  1.0000
  C   C82       1.0  0.15309  0.34504  0.53543  1.0000
  H   H125      1.0  0.98740  0.61613  0.60315  1.0000
  C   C83       1.0  0.17374  0.41875  0.89626  1.0000
  H   H126      1.0  0.14406  0.36361  0.59280  1.0000
  H   H127      1.0  0.11472  0.57031  0.62505  1.0000
  H   H128      1.0  0.21492  0.44038  0.84582  1.0000
  C   C84       1.0  0.17962  0.37355  0.56114  1.0000
  H   H129      1.0  0.20303  0.60588  0.78576  1.0000
  H   H130      1.0  0.18535  0.38980  0.56657  1.0000
  H   H131      1.0  0.00686  0.63951  0.98416  1.0000
  H   H132      1.0  0.17897  0.36630  0.58820  1.0000
  H   H133      1.0  0.06930  0.65154  0.89395  1.0000
  S   S29       1.0  0.04544  0.32672  0.97728  1.0000
  H   H134      1.0  0.19096  0.45535  0.83401  1.0000
  H   H135      1.0  0.18550  0.45692  0.88186  1.0000
  H   H136      1.0  0.19063  0.37029  0.54404  1.0000
  H   H137      1.0  0.16639  0.39296  0.51081  1.0000
  H   H138      1.0  0.21189  0.44327  0.89452  1.0000
  C   C85       1.0  0.98881  0.64827  0.64229  1.0000
  H   H139      1.0  0.00367  0.65143  0.55301  1.0000
  S   S30       1.0  0.21574  0.84837  0.07930  1.0000
  Fe  Fe14      1.0  0.07800  0.71562  0.02479  1.0000
  S   S31       1.0  0.08365  0.69239  0.05725  1.0000
  H   H140      1.0  0.01586  0.68852  0.06702  1.0000
  Fe  Fe15      1.0  0.12240  0.74488  0.03467  1.0000
  S   S32       1.0  0.12983  0.72294  0.06849  1.0000
  H   H141      1.0  0.05343  0.72480  0.12930  1.0000
  Fe  Fe16      1.0  0.11175  0.70079  0.02490  1.0000
  Fe  Fe17      1.0  0.10094  0.71718  0.09731  1.0000
  S   S33       1.0  0.09127  0.71800  0.15747  1.0000
  S   S34       1.0  0.09449  0.74049  0.06516  1.0000
  C   C86       1.0  0.15373  0.75405  0.33960  1.0000
  Fe  Fe18      1.0  0.11865  0.74333  0.43048  1.0000
  S   S35       1.0  0.13339  0.72278  0.41456  1.0000
  S   S36       1.0  0.13526  0.77678  0.42775  1.0000
  Fe  Fe19      1.0  0.07909  0.70828  0.44369  1.0000
  S   S37       1.0  0.09210  0.68571  0.42750  1.0000
  S   S38       1.0  0.04834  0.70360  0.46586  1.0000
  Fe  Fe20      1.0  0.11833  0.70460  0.46293  1.0000
  Fe  Fe21      1.0  0.10599  0.70633  0.38042  1.0000
  S   S39       1.0  0.11285  0.69871  0.32148  1.0000
  S   S40       1.0  0.14732  0.77124  0.01059  1.0000
  S   S41       1.0  0.09156  0.72770  0.39470  1.0000
  H   H142      1.0  0.03177  0.67195  0.15443  1.0000
  C   C87       1.0  0.02588  0.68282  0.47097  1.0000
  C   C88       1.0  0.18901  0.82208  0.43487  1.0000
  C   C89       1.0  0.20216  0.81258  0.44127  1.0000
  H   H143      1.0  0.16898  0.76472  0.43636  1.0000
  C   C90       1.0  0.15235  0.78494  0.32013  1.0000
  C   C91       1.0  0.16117  0.79016  0.43143  1.0000
  C   C92       1.0  0.17440  0.78065  0.43622  1.0000
  C   C93       1.0  0.19470  0.79180  0.44167  1.0000
  H   H144      1.0  0.11363  0.76227  0.30768  1.0000
  H   H145      1.0  0.00502  0.68521  0.14903  1.0000
  C   C94       1.0  0.16863  0.81091  0.43023  1.0000
  H   H146      1.0  0.15855  0.81845  0.42637  1.0000
  C   C95       1.0  0.09777  0.71263  0.20274  1.0000
  C   C96       1.0  0.08820  0.71683  0.23343  1.0000
  C   C97       1.0  0.09250  0.71261  0.26983  1.0000
  C   C98       1.0  0.10644  0.70405  0.27612  1.0000
  C   C99       1.0  0.11601  0.69987  0.24543  1.0000
  C   C100      1.0  0.11178  0.70418  0.20902  1.0000
  H   H147      1.0  0.07729  0.72331  0.22902  1.0000
  H   H148      1.0  0.08481  0.71573  0.29294  1.0000
  H   H149      1.0  0.12678  0.69320  0.24984  1.0000
  H   H150      1.0  0.11923  0.70076  0.18584  1.0000
  H   H151      1.0  0.15164  0.78968  0.34940  1.0000
  S   S42       1.0  0.10507  0.72271  0.99055  1.0000
  C   C101      1.0  0.18278  0.80287  0.00937  1.0000
  C   C102      1.0  0.19766  0.82614  0.06044  1.0000
  C   C103      1.0  0.19826  0.81971  0.02398  1.0000
  H   H152      1.0  0.20476  0.78431  0.44629  1.0000
  C   C104      1.0  0.16677  0.79188  0.03123  1.0000
  C   C105      1.0  0.16649  0.79792  0.06807  1.0000
  C   C106      1.0  0.18169  0.81509  0.08237  1.0000
  H   H153      1.0  0.18086  0.82002  0.11042  1.0000
  H   H154      1.0  0.00826  0.70602  0.12035  1.0000
  H   H155      1.0  0.20830  0.83530  0.15939  1.0000
  H   H156      1.0  0.19455  0.74643  0.03087  1.0000
  H   H157      1.0  0.03938  0.72164  0.08648  1.0000
  C   C107      1.0  0.02379  0.66361  0.46044  1.0000
  N   N11       1.0  0.03197  0.69545  0.11896  1.0000
  C   C108      1.0  0.02344  0.68203  0.08684  1.0000
  C   C109      1.0  0.04634  0.71433  0.10587  1.0000
  H   H158      1.0  0.02215  0.70932  0.16307  1.0000
  C   C110      1.0  0.14429  0.75737  0.27659  1.0000
  H   H159      1.0  0.12091  0.76137  0.35500  1.0000
  H   H160      1.0  0.03508  0.67906  0.07124  1.0000
  H   H161      1.0  0.13770  0.74103  0.27267  1.0000
  S   S43       1.0  0.10495  0.72630  0.48085  1.0000
  H   H162      1.0  0.15422  0.78979  0.08515  1.0000
  H   H163      1.0  0.05835  0.71193  0.09071  1.0000
  H   H164      1.0  0.14716  0.73762  0.33693  1.0000
  H   H165      1.0  0.21173  0.84419  0.20660  1.0000
  H   H166      1.0  0.16817  0.79060  0.31271  1.0000
  S   S44       1.0  0.12180  0.67874  0.99443  1.0000
  H   H167      1.0  0.11530  0.74009  0.32516  1.0000
  H   H168      1.0  0.03614  0.66105  0.44863  1.0000
  H   H169      1.0  0.19448  0.83803  0.43468  1.0000
  C   C111      1.0  0.21606  0.83510  0.18610  1.0000
  H   H170      1.0  0.05436  0.68373  0.13035  1.0000
  C   C112      1.0  0.04205  0.68636  0.14425  1.0000
  H   H171      1.0  0.14471  0.79236  0.30254  1.0000
  H   H172      1.0  0.04867  0.69611  0.16886  1.0000
  C   C113      1.0  0.12235  0.75646  0.32626  1.0000
  N   N12       1.0  0.14320  0.76323  0.31559  1.0000
  H   H173      1.0  0.01249  0.66758  0.09541  1.0000
  S   S45       1.0  0.22766  0.82566  0.45174  1.0000
  H   H174      1.0  0.16955  0.75885  0.33257  1.0000
  H   H175      1.0  0.15304  0.75808  0.36922  1.0000
  H   H176      1.0  0.13610  0.76363  0.25765  1.0000
  C   C114      1.0  0.01613  0.69916  0.13875  1.0000
  H   H177      1.0  0.15980  0.76236  0.26742  1.0000
  H   H178      1.0  0.16967  0.74544  0.02752  1.0000
  H   H179      1.0  0.21030  0.82813  0.00662  1.0000
  H   H180      1.0  0.18940  0.76639  0.01085  1.0000
  S   S46       1.0  0.04711  0.71102  0.00145  1.0000
  C   C115      1.0  0.18394  0.75004  0.01295  1.0000
  C   C116      1.0  0.02545  0.68992  0.98939  1.0000
  H   H181      1.0  0.03715  0.66786  0.00353  1.0000
  H   H182      1.0  0.21047  0.81960  0.19552  1.0000
  H   H183      1.0  0.15998  0.71307  0.99454  1.0000
  H   H184      1.0  0.18489  0.71428  0.99674  1.0000
  C   C117      1.0  0.02457  0.67053  0.99265  1.0000
  C   C118      1.0  0.00956  0.68578  0.48627  1.0000
  H   H185      1.0  0.15831  0.73952  0.48861  1.0000
  N   N13       1.0  0.16157  0.75545  0.54035  1.0000
  C   C119      1.0  0.07648  0.66758  0.88843  1.0000
  H   H186      1.0  0.09451  0.70568  0.90863  1.0000
  C   C120      1.0  0.99120  0.67665  0.96542  1.0000
  H   H187      1.0  0.07581  0.70351  0.87431  1.0000
  H   H188      1.0  0.13925  0.74521  0.58164  1.0000
  Fe  Fe22      1.0  0.19263  0.67222  0.73455  1.0000
  H   H189      1.0  0.07277  0.70990  0.92147  1.0000
  S   S47       1.0  0.17043  0.68667  0.73142  1.0000
  C   C121      1.0  0.07831  0.70055  0.90368  1.0000
  H   H190      1.0  0.18410  0.75618  0.57971  1.0000
  H   H191      1.0  0.18223  0.75843  0.49692  1.0000
  H   H192      1.0  0.06660  0.68549  0.96977  1.0000
  C   C122      1.0  0.14085  0.66927  0.89274  1.0000
  H   H193      1.0  0.10424  0.67616  0.54340  1.0000
  C   C123      1.0  0.11704  0.67683  0.55958  1.0000
  C   C124      1.0  0.99043  0.65728  0.96806  1.0000
  C   C125      1.0  0.07188  0.67629  0.95127  1.0000
  H   H194      1.0  0.22049  0.71293  0.77377  1.0000
  H   H195      1.0  0.17183  0.77279  0.59038  1.0000
  S   S48       1.0  0.18319  0.65918  0.79033  1.0000
  C   C126      1.0  0.14214  0.68613  0.87336  1.0000
  H   H196      1.0  0.15171  0.72871  0.57142  1.0000
  H   H197      1.0  0.20642  0.76351  0.95362  1.0000
  C   C127      1.0  0.12928  0.68163  0.94756  1.0000
  C   C128      1.0  0.13045  0.69834  0.92794  1.0000
  C   C129      1.0  0.13682  0.70057  0.89118  1.0000
  S   S49       1.0  0.22489  0.68525  0.71891  1.0000
  C   C130      1.0  0.17746  0.76620  0.56738  1.0000
  H   H198      1.0  0.12676  0.70975  0.94115  1.0000
  H   H199      1.0  0.13779  0.71367  0.87643  1.0000
  C   C131      1.0  0.13119  0.66816  0.61547  1.0000
  C   C132      1.0  0.15005  0.67815  0.60189  1.0000
  C   C133      1.0  0.15234  0.68705  0.56702  1.0000
  C   C134      1.0  0.13587  0.68639  0.54560  1.0000
  H   H200      1.0  0.16697  0.69433  0.55639  1.0000
  C   C135      1.0  0.99141  0.66989  0.49076  1.0000
  C   C136      1.0  0.04700  0.67322  0.90444  1.0000
  C   C137      1.0  0.17434  0.71870  0.98020  1.0000
  C   C138      1.0  0.11473  0.66759  0.59415  1.0000
  H   H201      1.0  0.00897  0.70767  0.97324  1.0000
  C   C139      1.0  0.16969  0.74693  0.51044  1.0000
  H   H202      1.0  0.08782  0.68030  0.95763  1.0000
  C   C140      1.0  0.13446  0.66707  0.92972  1.0000
  N   N14       1.0  0.06841  0.67939  0.91191  1.0000
  H   H203      1.0  0.14171  0.76185  0.50287  1.0000
  Fe  Fe23      1.0  0.15935  0.67156  0.78536  1.0000
  H   H204      1.0  0.17207  0.71083  0.95283  1.0000
  H   H205      1.0  0.14492  0.65803  0.87940  1.0000
  S   S50       1.0  0.13976  0.69745  0.50146  1.0000
  H   H206      1.0  0.09261  0.67181  0.89369  1.0000
  C   C141      1.0  0.15324  0.76926  0.52448  1.0000
  H   H207      1.0  0.21196  0.74376  0.97350  1.0000
  H   H208      1.0  0.17172  0.76163  0.95077  1.0000
  H   H209      1.0  0.99500  0.66429  0.64980  1.0000
  H   H210      1.0  0.15240  0.74010  0.96664  1.0000
  H   H211      1.0  0.16513  0.73860  0.92526  1.0000
  H   H212      1.0  0.04067  0.68239  0.92078  1.0000
  C   C142      1.0  0.00860  0.69280  0.97584  1.0000
  S   S51       1.0  0.15060  0.69039  0.82734  1.0000
  H   H213      1.0  0.13388  0.73078  0.53939  1.0000
  C   C143      1.0  0.14594  0.73941  0.55913  1.0000
  H   H214      1.0  0.17501  0.73552  0.52101  1.0000
  H   H215      1.0  0.16285  0.67863  0.61784  1.0000
  H   H216      1.0  0.07436  0.66969  0.85847  1.0000
  C   C144      1.0  0.16709  0.74536  0.95357  1.0000
  H   H217      1.0  0.01190  0.67025  0.58856  1.0000
  Fe  Fe24      1.0  0.15042  0.65848  0.70347  1.0000
  H   H218      1.0  0.18948  0.77843  0.55405  1.0000
  N   N15       1.0  0.18152  0.74033  0.97601  1.0000
  H   H219      1.0  0.06422  0.66059  0.95890  1.0000
  C   C145      1.0  0.20066  0.74723  0.95730  1.0000
  H   H220      1.0  0.04375  0.67473  0.87473  1.0000
  H   H221      1.0  0.19934  0.74014  0.92934  1.0000
  H   H222      1.0  0.16476  0.78190  0.51114  1.0000
  H   H223      1.0  0.14633  0.77547  0.54597  1.0000
  C   C146      1.0  0.00728  0.65441  0.98177  1.0000
  H   H224      1.0  0.97901  0.67259  0.50196  1.0000
  H   H225      1.0  0.22443  0.66084  0.79119  1.0000
  H   H226      1.0  0.03885  0.65756  0.91187  1.0000
  H   H227      1.0  0.13367  0.65406  0.94460  1.0000
  H   H228      1.0  0.18310  0.79854  0.98071  1.0000
  H   H229      1.0  0.01094  0.70058  0.49430  1.0000
  H   H230      1.0  0.10007  0.65989  0.60436  1.0000
  C   C147      1.0  0.00527  0.65398  0.58355  1.0000
  S   S52       1.0  0.12740  0.65530  0.65780  1.0000
  H   H231      1.0  0.97845  0.67920  0.95496  1.0000
  H   H232      1.0  0.97870  0.67052  0.59262  1.0000
  H   H233      1.0  0.44295  0.12658  0.06398  1.0000
  H   H234      1.0  0.39167  0.09751  0.43103  1.0000
  H   H235      1.0  0.39208  0.02531  0.09951  1.0000
  C   C148      1.0  0.33958  0.29240  0.99218  1.0000
  S   S53       1.0  0.44834  0.10619  0.32047  1.0000
  H   H236      1.0  0.44330  0.07111  0.02425  1.0000
  H   H237      1.0  0.36355  0.24952  0.43608  1.0000
  C   C149      1.0  0.31732  0.24312  0.04451  1.0000
  H   H238      1.0  0.41749  0.05881  0.11405  1.0000
  C   C150      1.0  0.30501  0.30122  0.99555  1.0000
  S   S54       1.0  0.46435  0.12952  0.22550  1.0000
  H   H239      1.0  0.22862  0.30655  0.33069  1.0000
  H   H240      1.0  0.42505  0.19674  0.06498  1.0000
  N   N16       1.0  0.39868  0.12839  0.44211  1.0000
  H   H241      1.0  0.39843  0.15746  0.45151  1.0000
  H   H242      1.0  0.38456  0.28565  0.36195  1.0000
  H   H243      1.0  0.37180  0.10329  0.44916  1.0000
  S   S55       1.0  0.47243  0.09202  0.14887  1.0000
  C   C151      1.0  0.44918  0.28337  0.03596  1.0000
  S   S56       1.0  0.28310  0.30630  0.99696  1.0000
  H   H244      1.0  0.46917  0.11485  0.45315  1.0000
  H   H245      1.0  0.38823  0.04277  0.02702  1.0000
  H   H246      1.0  0.42007  0.28304  0.04483  1.0000
  C   C152      1.0  0.41541  0.13483  0.41658  1.0000
  N   N17       1.0  0.43029  0.21847  0.02284  1.0000
  C   C153      1.0  0.43718  0.28130  0.43008  1.0000
  C   C154      1.0  0.44157  0.27429  0.39619  1.0000
  H   H247      1.0  0.42181  0.24330  0.03143  1.0000
  H   H248      1.0  0.43722  0.25855  0.39140  1.0000
  H   H249      1.0  0.36823  0.25230  0.38744  1.0000
  C   C155      1.0  0.44551  0.10199  0.36900  1.0000
  C   C156      1.0  0.42705  0.08941  0.38175  1.0000
  C   C157      1.0  0.42376  0.08587  0.41985  1.0000
  C   C158      1.0  0.43883  0.09514  0.44599  1.0000
  C   C159      1.0  0.45733  0.10767  0.43332  1.0000
  C   C160      1.0  0.46068  0.11106  0.39511  1.0000
  H   H250      1.0  0.41524  0.08215  0.36188  1.0000
  H   H251      1.0  0.40963  0.07576  0.42893  1.0000
  S   S57       1.0  0.45915  0.30006  0.16088  1.0000
  C   C161      1.0  0.46029  0.09502  0.10757  1.0000
  C   C162      1.0  0.45546  0.11159  0.10189  1.0000
  C   C163      1.0  0.44616  0.11348  0.06838  1.0000
  C   C164      1.0  0.44127  0.09872  0.04037  1.0000
  C   C165      1.0  0.44616  0.08218  0.04610  1.0000
  C   C166      1.0  0.45551  0.08032  0.07949  1.0000
  H   H252      1.0  0.40505  0.28953  0.39309  1.0000
  H   H253      1.0  0.37878  0.10854  0.40186  1.0000
  C   C167      1.0  0.32068  0.31021  0.02060  1.0000
  H   H254      1.0  0.38827  0.25642  0.42003  1.0000
  H   H255      1.0  0.41906  0.22811  0.07097  1.0000
  N   N18       1.0  0.39023  0.05282  0.08377  1.0000
  C   C168      1.0  0.40570  0.06485  0.11054  1.0000
  H   H256      1.0  0.38151  0.07698  0.07041  1.0000
  H   H257      1.0  0.40834  0.18917  0.02568  1.0000
  H   H258      1.0  0.42364  0.12475  0.41713  1.0000
  H   H259      1.0  0.41295  0.08030  0.10113  1.0000
  H   H260      1.0  0.39307  0.30693  0.39261  1.0000
  H   H261      1.0  0.45938  0.06755  0.08327  1.0000
  C   C169      1.0  0.39913  0.05252  0.04743  1.0000
  H   H262      1.0  0.36331  0.05297  0.05948  1.0000
  H   H263      1.0  0.47496  0.12077  0.38588  1.0000
  C   C170      1.0  0.46755  0.28651  0.05317  1.0000
  H   H264      1.0  0.34688  0.27285  0.43509  1.0000
  C   C171      1.0  0.37504  0.06150  0.08000  1.0000
  H   H265      1.0  0.41136  0.04705  0.04951  1.0000
  C   C172      1.0  0.33328  0.99735  0.00126  1.0000
  H   H266      1.0  0.31650  0.21003  0.07790  1.0000
  C   C173      1.0  0.38519  0.28723  0.45596  1.0000
  H   H267      1.0  0.45915  0.12312  0.12305  1.0000
  C   C174      1.0  0.41769  0.22779  0.04025  1.0000
  Fe  Fe25      1.0  0.47364  0.12066  0.28030  1.0000
  C   C175      1.0  0.38107  0.03241  0.09694  1.0000
  C   C176      1.0  0.45302  0.31482  0.40806  1.0000
  C   C177      1.0  0.43760  0.29018  0.09558  1.0000
  C   C178      1.0  0.47089  0.29133  0.09141  1.0000
  H   H268      1.0  0.36778  0.06166  0.10674  1.0000
  H   H269      1.0  0.37429  0.03200  0.12440  1.0000
  C   C179      1.0  0.38855  0.14249  0.44146  1.0000
  C   C180      1.0  0.42394  0.19773  0.03438  1.0000
  C   C181      1.0  0.44270  0.30167  0.43567  1.0000
  H   H270      1.0  0.34749  0.23962  0.08313  1.0000
  S   S58       1.0  0.35058  0.02239  0.00278  1.0000
  N   N19       1.0  0.32857  0.23070  0.03462  1.0000
  H   H271      1.0  0.32511  0.25864  0.03584  1.0000
  C   C182      1.0  0.33780  0.30578  0.01896  1.0000
  H   H272      1.0  0.40190  0.21980  0.03243  1.0000
  H   H273      1.0  0.42611  0.14988  0.42416  1.0000
  C   C183      1.0  0.45104  0.22940  0.03450  1.0000
  C   C184      1.0  0.39044  0.29093  0.39035  1.0000
  H   H274      1.0  0.45298  0.22964  0.06514  1.0000
  H   H275      1.0  0.39968  0.28587  0.46070  1.0000
  S   S59       1.0  0.38936  0.25317  0.99249  1.0000
  C   C185      1.0  0.43421  0.28519  0.05753  1.0000
  H   H276      1.0  0.34968  0.31260  0.03892  1.0000
  H   H277      1.0  0.35084  0.27622  0.38635  1.0000
  H   H278      1.0  0.37323  0.16444  0.01399  1.0000
  S   S60       1.0  0.42559  0.26388  0.46461  1.0000
  H   H279      1.0  0.35666  0.25438  0.04338  1.0000
  C   C186      1.0  0.45164  0.28741  0.36845  1.0000
  H   H280      1.0  0.35730  0.23007  0.04537  1.0000
  C   C187      1.0  0.45590  0.29326  0.11287  1.0000
  H   H281      1.0  0.37551  0.13760  0.45962  1.0000
  C   C188      1.0  0.38462  0.10858  0.43045  1.0000
  H   H282      1.0  0.39958  0.06551  0.13829  1.0000
  C   C189      1.0  0.34836  0.23902  0.05246  1.0000
  H   H283      1.0  0.30311  0.20366  0.03444  1.0000
  H   H284      1.0  0.40497  0.06746  0.03540  1.0000
  H   H285      1.0  0.45485  0.28177  0.34251  1.0000
  C   C190      1.0  0.37409  0.25853  0.41536  1.0000
  H   H286      1.0  0.35890  0.29719  0.41788  1.0000
  S   S61       1.0  0.43127  0.10253  0.99716  1.0000
  H   H287      1.0  0.41037  0.13506  0.38744  1.0000
  H   H288      1.0  0.36922  0.02309  0.07730  1.0000
  H   H289      1.0  0.30250  0.23764  0.03071  1.0000
  H   H290      1.0  0.42592  0.29174  0.11176  1.0000
  H   H291      1.0  0.32626  0.20066  0.03984  1.0000
  C   C191      1.0  0.35754  0.28157  0.41422  1.0000
  H   H292      1.0  0.38318  0.14385  0.41307  1.0000
  C   C192      1.0  0.31813  0.21036  0.04732  1.0000
  H   H293      1.0  0.43957  0.30734  0.46165  1.0000
  H   H294      1.0  0.43311  0.19020  0.02173  1.0000
  H   H295      1.0  0.29890  0.29809  0.46990  1.0000
  H   H296      1.0  0.31527  0.24357  0.07490  1.0000
  H   H297      1.0  0.45623  0.24505  0.02567  1.0000
  N   N20       1.0  0.37682  0.27958  0.41889  1.0000
  C   C193      1.0  0.45784  0.30779  0.37453  1.0000
  H   H298      1.0  0.38742  0.30306  0.45986  1.0000
  S   S62       1.0  0.47592  0.28883  0.26031  1.0000
  H   H299      1.0  0.37522  0.27890  0.47799  1.0000
  S   S63       1.0  0.36115  0.28672  0.99332  1.0000
  H   H300      1.0  0.46099  0.22271  0.02213  1.0000
  H   H301      1.0  0.23268  0.31656  0.37712  1.0000
  C   C194      1.0  0.32900  0.31780  0.47890  1.0000
  C   C195      1.0  0.31342  0.29946  0.47957  1.0000
  C   C196      1.0  0.33056  0.23029  0.99404  1.0000
  H   H302      1.0  0.47545  0.26483  0.37296  1.0000
  H   H303      1.0  0.34462  0.99022  0.05216  1.0000
  H   H304      1.0  0.41361  0.11692  0.48167  1.0000
  H   H305      1.0  0.36784  0.13079  0.98967  1.0000
  C   C197      1.0  0.40609  0.12760  0.48007  1.0000
  S   S64       1.0  0.37018  0.19877  0.98098  1.0000
  Fe  Fe26      1.0  0.38366  0.06347  0.88778  1.0000
  S   S65       1.0  0.35365  0.05816  0.91075  1.0000
  S   S66       1.0  0.38115  0.05124  0.82761  1.0000
  Fe  Fe27      1.0  0.36741  0.08952  0.93321  1.0000
  S   S67       1.0  0.35385  0.11196  0.91701  1.0000
  C   C198      1.0  0.36987  0.16102  0.98487  1.0000
  C   C199      1.0  0.30675  0.28781  0.96872  1.0000
  S   S68       1.0  0.39690  0.09495  0.90884  1.0000
  S   S69       1.0  0.39370  0.05206  0.93941  1.0000
  Fe  Fe28      1.0  0.41541  0.26652  0.95721  1.0000
  H   H306      1.0  0.35497  0.14748  0.88200  1.0000
  Fe  Fe29      1.0  0.38912  0.25638  0.88567  1.0000
  S   S70       1.0  0.36144  0.24227  0.91903  1.0000
  S   S71       1.0  0.38143  0.25340  0.82300  1.0000
  Fe  Fe30      1.0  0.37429  0.26871  0.95758  1.0000
  C   C200      1.0  0.36805  0.17549  0.96148  1.0000
  Fe  Fe31      1.0  0.37907  0.22804  0.95101  1.0000
  C   C201      1.0  0.44179  0.06740  0.63565  1.0000
  S   S72       1.0  0.40114  0.28361  0.92337  1.0000
  S   S73       1.0  0.40593  0.24061  0.91643  1.0000
  Fe  Fe32      1.0  0.36702  0.08392  0.53778  1.0000
  S   S74       1.0  0.39728  0.09679  0.56273  1.0000
  S   S75       1.0  0.35271  0.10517  0.51862  1.0000
  Fe  Fe33      1.0  0.36700  0.04175  0.53651  1.0000
  S   S76       1.0  0.39781  0.05275  0.56193  1.0000
  H   H307      1.0  0.31812  0.99938  0.95102  1.0000
  Fe  Fe34      1.0  0.38763  0.07105  0.60131  1.0000
  S   S77       1.0  0.40066  0.08061  0.66039  1.0000
  Fe  Fe35      1.0  0.40512  0.07763  0.52184  1.0000
  S   S78       1.0  0.35630  0.05890  0.57839  1.0000
  Fe  Fe36      1.0  0.40727  0.26142  0.51682  1.0000
  C   C202      1.0  0.31669  0.28271  0.49218  1.0000
  Fe  Fe37      1.0  0.39816  0.26494  0.60076  1.0000
  S   S79       1.0  0.36766  0.24196  0.59379  1.0000
  S   S80       1.0  0.41205  0.27747  0.65800  1.0000
  Fe  Fe38      1.0  0.38171  0.22453  0.56036  1.0000
  S   S81       1.0  0.38213  0.19465  0.57783  1.0000
  Fe  Fe39      1.0  0.36633  0.25763  0.54070  1.0000
  H   H308      1.0  0.44839  0.05622  0.64101  1.0000
  S   S82       1.0  0.41230  0.24720  0.56878  1.0000
  S   S83       1.0  0.39620  0.28181  0.54926  1.0000
  H   H309      1.0  0.36541  0.30394  0.51494  1.0000
  H   H310      1.0  0.41192  0.23956  0.71965  1.0000
  C   C203      1.0  0.35276  0.08748  0.76906  1.0000
  C   C204      1.0  0.36681  0.14187  0.97115  1.0000
  S   S84       1.0  0.33889  0.26220  0.51838  1.0000
  C   C205      1.0  0.36091  0.13008  0.53509  1.0000
  H   H311      1.0  0.41250  0.21603  0.62884  1.0000
  C   C206      1.0  0.31876  0.98994  0.97334  1.0000
  C   C207      1.0  0.37396  0.17011  0.55958  1.0000
  C   C208      1.0  0.38112  0.15682  0.57643  1.0000
  C   C209      1.0  0.37475  0.13699  0.56415  1.0000
  H   H312      1.0  0.38112  0.18630  0.70291  1.0000
  H   H313      1.0  0.38911  0.18566  0.65633  1.0000
  H   H314      1.0  0.39162  0.16187  0.59928  1.0000
  H   H315      1.0  0.38029  0.12699  0.57773  1.0000
  Fe  Fe40      1.0  0.40394  0.08327  0.96275  1.0000
  H   H316      1.0  0.43755  0.21188  0.96802  1.0000
  N   N21       1.0  0.45384  0.08272  0.61027  1.0000
  C   C210      1.0  0.39026  0.26152  0.77781  1.0000
  C   C211      1.0  0.37695  0.25544  0.74738  1.0000
  C   C212      1.0  0.38313  0.26083  0.71090  1.0000
  C   C213      1.0  0.40292  0.27207  0.70399  1.0000
  C   C214      1.0  0.41619  0.27852  0.73450  1.0000
  C   C215      1.0  0.40995  0.27328  0.77111  1.0000
  H   H317      1.0  0.35349  0.12283  0.79356  1.0000
  H   H318      1.0  0.34360  0.11478  0.83826  1.0000
  H   H319      1.0  0.43149  0.28738  0.72976  1.0000
  H   H320      1.0  0.42040  0.27820  0.79407  1.0000
  H   H321      1.0  0.42173  0.23865  0.65545  1.0000
  H   H322      1.0  0.35823  0.07520  0.76739  1.0000
  H   H323      1.0  0.32899  0.10449  0.79728  1.0000
  C   C216      1.0  0.38678  0.05990  0.78140  1.0000
  C   C217      1.0  0.37677  0.04747  0.75133  1.0000
  C   C218      1.0  0.38042  0.05363  0.71429  1.0000
  C   C219      1.0  0.39445  0.07227  0.70661  1.0000
  C   C220      1.0  0.40452  0.08468  0.73666  1.0000
  C   C221      1.0  0.40067  0.07863  0.77370  1.0000
  H   H324      1.0  0.36605  0.03292  0.75673  1.0000
  H   H325      1.0  0.37260  0.04381  0.69170  1.0000
  H   H326      1.0  0.41552  0.09907  0.73125  1.0000
  H   H327      1.0  0.40877  0.08831  0.79626  1.0000
  C   C222      1.0  0.36121  0.13675  0.93405  1.0000
  S   S85       1.0  0.43510  0.09168  0.49454  1.0000
  H   H328      1.0  0.31397  0.00025  0.52609  1.0000
  H   H329      1.0  0.44285  0.10442  0.63065  1.0000
  C   C223      1.0  0.36327  0.17063  0.92403  1.0000
  C   C224      1.0  0.35953  0.15128  0.91060  1.0000
  S   S86       1.0  0.35656  0.00892  0.51799  1.0000
  H   H330      1.0  0.42662  0.05944  0.62416  1.0000
  H   H331      1.0  0.36159  0.18151  0.90576  1.0000
  C   C225      1.0  0.41675  0.22228  0.65737  1.0000
  H   H332      1.0  0.29469  0.28074  0.94923  1.0000
  H   H333      1.0  0.40599  0.18830  0.69446  1.0000
  C   C226      1.0  0.35097  0.30252  0.50475  1.0000
  H   H334      1.0  0.37166  0.21622  0.69015  1.0000
  C   C227      1.0  0.32397  0.28346  0.96690  1.0000
  H   H335      1.0  0.38281  0.11355  0.80710  1.0000
  H   H336      1.0  0.38837  0.23521  0.66251  1.0000
  H   H337      1.0  0.39385  0.12287  0.50003  1.0000
  H   H338      1.0  0.42963  0.21882  0.66660  1.0000
  H   H339      1.0  0.45277  0.10872  0.58461  1.0000
  H   H340      1.0  0.37850  0.08980  0.82620  1.0000
  Fe  Fe41      1.0  0.36414  0.04833  0.96298  1.0000
  C   C228      1.0  0.38344  0.21937  0.66936  1.0000
  C   C229      1.0  0.37253  0.10166  0.82398  1.0000
  H   H341      1.0  0.37291  0.10783  0.85242  1.0000
  N   N22       1.0  0.35232  0.09399  0.80787  1.0000
  C   C230      1.0  0.33977  0.07705  0.82944  1.0000
  C   C231      1.0  0.34424  0.10973  0.80918  1.0000
  H   H342      1.0  0.33782  0.08201  0.75575  1.0000
  H   H343      1.0  0.33901  0.08148  0.85883  1.0000
  H   H344      1.0  0.36265  0.09964  0.75210  1.0000
  H   H345      1.0  0.34564  0.06498  0.82945  1.0000
  H   H346      1.0  0.41861  0.21924  0.73180  1.0000
  H   H347      1.0  0.37255  0.25618  0.68810  1.0000
  C   C232      1.0  0.39383  0.19268  0.68431  1.0000
  H   H348      1.0  0.39410  0.21837  0.74001  1.0000
  N   N23       1.0  0.40012  0.21436  0.68284  1.0000
  C   C233      1.0  0.40645  0.22319  0.72023  1.0000
  H   H349      1.0  0.32444  0.07074  0.81801  1.0000
  H   H350      1.0  0.42934  0.08971  0.59228  1.0000
  H   H351      1.0  0.37657  0.21097  0.64364  1.0000
  H   H352      1.0  0.32508  0.27310  0.94618  1.0000
  H   H353      1.0  0.35449  0.17331  0.51721  1.0000
  C   C234      1.0  0.33546  0.28409  0.50482  1.0000
  H   H354      1.0  0.46415  0.08465  0.55437  1.0000
  C   C235      1.0  0.44440  0.09713  0.60424  1.0000
  C   C236      1.0  0.45541  0.07345  0.57438  1.0000
  C   C237      1.0  0.36029  0.16331  0.53017  1.0000
  C   C238      1.0  0.31576  0.98725  0.51472  1.0000
  C   C239      1.0  0.35367  0.14333  0.51825  1.0000
  S   S87       1.0  0.37729  0.23774  0.50688  1.0000
  H   H355      1.0  0.46247  0.06247  0.57766  1.0000
  H   H356      1.0  0.36164  0.24656  0.75211  1.0000
  S   S88       1.0  0.37487  0.07939  0.98783  1.0000
  H   H357      1.0  0.44067  0.06567  0.56097  1.0000
  H   H358      1.0  0.44005  0.07397  0.66279  1.0000
  H   H359      1.0  0.30455  0.26856  0.49211  1.0000
  H   H360      1.0  0.33927  0.22130  0.98562  1.0000
  S   S89       1.0  0.37525  0.06595  0.49433  1.0000
  H   H361      1.0  0.34283  0.13811  0.49593  1.0000
  H   H362      1.0  0.47302  0.10014  0.65391  1.0000
  C   C240      1.0  0.47373  0.09298  0.62682  1.0000
  C   C241      1.0  0.33472  0.98771  0.50805  1.0000
  H   H363      1.0  0.31595  0.22392  0.97952  1.0000
  H   H364      1.0  0.41289  0.21116  0.97237  1.0000
  H   H365      1.0  0.33812  0.24543  0.98347  1.0000
  H   H366      1.0  0.43333  0.23445  0.97246  1.0000
  C   C242      1.0  0.42843  0.21899  0.98214  1.0000
  S   S90       1.0  0.44542  0.27683  0.98781  1.0000
  H   H367      1.0  0.41678  0.14224  0.48988  1.0000
  Fe  Fe42      1.0  0.29690  0.37733  0.02621  1.0000
  H   H368      1.0  0.30369  0.41899  0.17558  1.0000
  Fe  Fe43      1.0  0.28725  0.35618  0.10200  1.0000
  S   S91       1.0  0.26084  0.33137  0.07749  1.0000
  S   S92       1.0  0.30034  0.35696  0.16056  1.0000
  Fe  Fe44      1.0  0.28044  0.33244  0.02888  1.0000
  H   H369      1.0  0.29808  0.39528  0.15384  1.0000
  Fe  Fe45      1.0  0.25394  0.35527  0.04827  1.0000
  H   H370      1.0  0.45770  0.33057  0.41305  1.0000
  S   S93       1.0  0.30712  0.35568  0.05497  1.0000
  S   S94       1.0  0.27957  0.38001  0.07545  1.0000
  S   S95       1.0  0.31982  0.40403  0.99915  1.0000
  H   H371      1.0  0.32926  0.39450  0.18051  1.0000
  Fe  Fe46      1.0  0.28194  0.36525  0.38508  1.0000
  S   S96       1.0  0.27356  0.33458  0.40699  1.0000
  S   S97       1.0  0.27476  0.37064  0.32474  1.0000
  Fe  Fe47      1.0  0.25603  0.34423  0.44876  1.0000
  H   H372      1.0  0.32220  0.38921  0.11328  1.0000
  Fe  Fe48      1.0  0.29931  0.34722  0.44741  1.0000
  C   C243      1.0  0.23220  0.32039  0.34746  1.0000
  S   S98       1.0  0.26365  0.37432  0.42606  1.0000
  S   S99       1.0  0.30888  0.37761  0.42268  1.0000
  S   S100      1.0  0.32618  0.33930  0.46141  1.0000
  H   H373      1.0  0.33478  0.41840  0.20136  1.0000
  C   C244      1.0  0.33629  0.41063  0.17555  1.0000
  C   C245      1.0  0.29225  0.35987  0.20593  1.0000
  C   C246      1.0  0.30265  0.35686  0.23687  1.0000
  C   C247      1.0  0.29736  0.35971  0.27337  1.0000
  C   C248      1.0  0.28175  0.36596  0.27946  1.0000
  C   C249      1.0  0.27139  0.36903  0.24850  1.0000
  C   C250      1.0  0.27648  0.36588  0.21202  1.0000
  H   H374      1.0  0.31491  0.35225  0.23261  1.0000
  H   H375      1.0  0.30555  0.35733  0.29674  1.0000
  H   H376      1.0  0.25937  0.37398  0.25274  1.0000
  H   H377      1.0  0.26831  0.36829  0.18865  1.0000
  H   H378      1.0  0.35284  0.44199  0.13249  1.0000
  H   H379      1.0  0.33027  0.44244  0.11323  1.0000
  Fe  Fe49      1.0  0.28972  0.38346  0.46577  1.0000
  N   N24       1.0  0.32709  0.41631  0.14328  1.0000
  C   C251      1.0  0.32930  0.40545  0.10985  1.0000
  H   H380      1.0  0.33535  0.44644  0.16217  1.0000
  H   H381      1.0  0.34505  0.40881  0.10375  1.0000
  H   H382      1.0  0.23222  0.34458  0.29269  1.0000
  S   S101      1.0  0.27111  0.35415  0.99745  1.0000
  C   C252      1.0  0.30594  0.41141  0.15010  1.0000
  H   H383      1.0  0.35225  0.41403  0.17142  1.0000
  H   H384      1.0  0.29853  0.41572  0.12655  1.0000
  H   H385      1.0  0.32242  0.40925  0.08490  1.0000
  C   C253      1.0  0.33683  0.43776  0.13759  1.0000
  H   H386      1.0  0.36483  0.37373  0.47758  1.0000
  S   S102      1.0  0.47233  0.32493  0.34192  1.0000
  H   H387      1.0  0.34780  0.38276  0.45635  1.0000
  H   H388      1.0  0.37316  0.39887  0.46247  1.0000
  H   H389      1.0  0.24731  0.33048  0.34011  1.0000
  H   H390      1.0  0.23744  0.35929  0.35465  1.0000
  H   H391      1.0  0.34344  0.37695  0.99831  1.0000
  C   C254      1.0  0.36081  0.38695  0.47558  1.0000
  H   H392      1.0  0.34051  0.35164  0.00400  1.0000
  H   H393      1.0  0.31945  0.32027  0.04180  1.0000
  H   H394      1.0  0.47766  0.33719  0.11104  1.0000
  Fe  Fe50      1.0  0.32309  0.48216  0.74413  1.0000
  S   S103      1.0  0.31326  0.44935  0.74069  1.0000
  S   S104      1.0  0.30365  0.49989  0.73765  1.0000
  Fe  Fe51      1.0  0.36607  0.48888  0.75822  1.0000
  S   S105      1.0  0.35964  0.45594  0.75623  1.0000
  S   S106      1.0  0.39526  0.51413  0.77672  1.0000
  Fe  Fe52      1.0  0.33989  0.45420  0.70645  1.0000
  S   S107      1.0  0.33693  0.42978  0.66324  1.0000
  Fe  Fe53      1.0  0.33303  0.45188  0.79058  1.0000
  S   S108      1.0  0.31870  0.42529  0.82792  1.0000
  S   S109      1.0  0.34847  0.48732  0.70563  1.0000
  S   S110      1.0  0.34066  0.48464  0.79664  1.0000
  H   H395      1.0  0.33690  0.40671  0.49056  1.0000
  S   S111      1.0  0.29949  0.41245  0.49933  1.0000
  H   H396      1.0  0.28142  0.46214  0.77013  1.0000
  H   H397      1.0  0.27006  0.51070  0.72390  1.0000
  H   H398      1.0  0.23427  0.49370  0.73576  1.0000
  C   C255      1.0  0.33993  0.37684  0.52847  1.0000
  H   H399      1.0  0.34756  0.41602  0.53527  1.0000
  C   C256      1.0  0.34177  0.34280  0.93196  1.0000
  C   C257      1.0  0.31887  0.42056  0.87617  1.0000
  C   C258      1.0  0.30453  0.40316  0.88944  1.0000
  C   C259      1.0  0.30426  0.39825  0.92708  1.0000
  C   C260      1.0  0.31861  0.41050  0.95200  1.0000
  C   C261      1.0  0.33303  0.42786  0.93875  1.0000
  C   C262      1.0  0.33309  0.43296  0.90114  1.0000
  H   H400      1.0  0.29340  0.39348  0.87052  1.0000
  H   H401      1.0  0.29293  0.38497  0.93671  1.0000
  C   C263      1.0  0.34779  0.31919  0.49152  1.0000
  H   H402      1.0  0.34429  0.44633  0.89140  1.0000
  C   C264      1.0  0.32485  0.42497  0.61896  1.0000
  C   C265      1.0  0.32159  0.43968  0.59876  1.0000
  C   C266      1.0  0.31344  0.43552  0.56248  1.0000
  C   C267      1.0  0.30800  0.41653  0.54629  1.0000
  C   C268      1.0  0.31045  0.40161  0.56712  1.0000
  C   C269      1.0  0.31923  0.40592  0.60286  1.0000
  H   H403      1.0  0.32588  0.45442  0.61062  1.0000
  H   H404      1.0  0.31154  0.44717  0.54671  1.0000
  H   H405      1.0  0.30592  0.38685  0.55533  1.0000
  H   H406      1.0  0.32174  0.39443  0.61807  1.0000
  C   C270      1.0  0.41404  0.53626  0.76054  1.0000
  C   C271      1.0  0.42884  0.54812  0.78565  1.0000
  C   C272      1.0  0.44382  0.56588  0.77462  1.0000
  C   C273      1.0  0.44435  0.57214  0.73807  1.0000
  C   C274      1.0  0.42947  0.56035  0.71299  1.0000
  C   C275      1.0  0.41444  0.54262  0.72406  1.0000
  H   H407      1.0  0.42879  0.54350  0.81395  1.0000
  H   H408      1.0  0.45506  0.57463  0.79439  1.0000
  H   H409      1.0  0.42962  0.56489  0.68464  1.0000
  H   H410      1.0  0.40334  0.53376  0.70420  1.0000
  C   C276      1.0  0.24450  0.48678  0.74320  1.0000
  C   C277      1.0  0.26479  0.49640  0.73655  1.0000
  C   C278      1.0  0.27821  0.48752  0.74597  1.0000
  C   C279      1.0  0.27123  0.46903  0.76235  1.0000
  C   C280      1.0  0.35054  0.41048  0.50804  1.0000
  H   H411      1.0  0.36227  0.42296  0.49483  1.0000
  H   H412      1.0  0.37095  0.40359  0.56483  1.0000
  H   H413      1.0  0.30869  0.35031  0.92218  1.0000
  C   C281      1.0  0.24122  0.62457  0.76907  1.0000
  S   S112      1.0  0.46318  0.59425  0.72187  1.0000
  H   H414      1.0  0.33906  0.37403  0.89594  1.0000
  H   H415      1.0  0.33662  0.38075  0.55676  1.0000
  H   H416      1.0  0.34425  0.43745  0.95764  1.0000
  N   N25       1.0  0.29923  0.38869  0.73446  1.0000
  C   C282      1.0  0.29401  0.39495  0.69844  1.0000
  C   C283      1.0  0.32042  0.39958  0.74292  1.0000
  C   C284      1.0  0.29513  0.36730  0.73271  1.0000
  C   C285      1.0  0.28737  0.39288  0.76377  1.0000
  H   H417      1.0  0.27811  0.38725  0.69122  1.0000
  H   H418      1.0  0.30264  0.39195  0.67569  1.0000
  H   H419      1.0  0.29727  0.41111  0.69852  1.0000
  H   H420      1.0  0.32488  0.39547  0.77016  1.0000
  H   H421      1.0  0.32985  0.39697  0.72120  1.0000
  H   H422      1.0  0.32408  0.41576  0.74441  1.0000
  H   H423      1.0  0.27930  0.35859  0.72623  1.0000
  H   H424      1.0  0.29889  0.36212  0.75952  1.0000
  H   H425      1.0  0.30393  0.36368  0.71091  1.0000
  H   H426      1.0  0.29115  0.38867  0.79148  1.0000
  H   H427      1.0  0.27131  0.38486  0.75848  1.0000
  H   H428      1.0  0.29009  0.40892  0.76579  1.0000
  H   H429      1.0  0.37853  0.38596  0.54084  1.0000
  H   H430      1.0  0.30929  0.34100  0.96755  1.0000
  H   H431      1.0  0.32620  0.37280  0.51119  1.0000
  H   H432      1.0  0.33522  0.33868  0.90361  1.0000
  N   N26       1.0  0.35630  0.39325  0.51225  1.0000
  H   H433      1.0  0.36210  0.38133  0.92136  1.0000
  C   C286      1.0  0.37389  0.39870  0.53693  1.0000
  N   N27       1.0  0.33758  0.35955  0.94785  1.0000
  H   H434      1.0  0.24585  0.44525  0.78207  1.0000
  C   C287      1.0  0.23759  0.46829  0.75964  1.0000
  C   C288      1.0  0.34591  0.37694  0.92421  1.0000
  H   H435      1.0  0.33556  0.32943  0.94914  1.0000
  H   H436      1.0  0.24801  0.62379  0.79647  1.0000
  N   N28       1.0  0.35924  0.54875  0.76464  1.0000
  C   C289      1.0  0.37908  0.56385  0.77257  1.0000
  C   C290      1.0  0.35292  0.53564  0.79658  1.0000
  C   C291      1.0  0.35988  0.53696  0.73145  1.0000
  C   C292      1.0  0.34501  0.55836  0.75792  1.0000
  H   H437      1.0  0.38465  0.57368  0.74868  1.0000
  H   H438      1.0  0.38996  0.55689  0.77856  1.0000
  H   H439      1.0  0.37912  0.57324  0.79712  1.0000
  H   H440      1.0  0.35230  0.54398  0.82222  1.0000
  H   H441      1.0  0.33799  0.52404  0.79146  1.0000
  H   H442      1.0  0.36332  0.52805  0.80228  1.0000
  H   H443      1.0  0.34506  0.52563  0.72439  1.0000
  H   H444      1.0  0.37011  0.52910  0.73584  1.0000
  H   H445      1.0  0.36497  0.54636  0.70687  1.0000
  H   H446      1.0  0.32993  0.54717  0.75181  1.0000
  H   H447      1.0  0.34927  0.56830  0.73388  1.0000
  H   H448      1.0  0.34400  0.56729  0.78247  1.0000
  H   H449      1.0  0.23471  0.60927  0.75718  1.0000
  H   H450      1.0  0.35790  0.34631  0.93027  1.0000
  S   S113      1.0  0.28095  0.35377  0.49151  1.0000
  C   C293      1.0  0.25105  0.45951  0.76923  1.0000
  H   H451      1.0  0.38657  0.41101  0.52553  1.0000
  C   C294      1.0  0.34650  0.36445  0.98545  1.0000
  H   H452      1.0  0.36277  0.36874  0.98500  1.0000
  H   H453      1.0  0.34335  0.38993  0.93603  1.0000
  H   H454      1.0  0.34339  0.36328  0.53047  1.0000
  H   H455      1.0  0.46383  0.60531  0.60099  1.0000
  C   C295      1.0  0.31605  0.35404  0.94995  1.0000
  H   H456      1.0  0.31237  0.36623  0.96221  1.0000
  C   C296      1.0  0.47156  0.60304  0.62617  1.0000
  H   H457      1.0  0.35997  0.33328  0.49125  1.0000
  H   H458      1.0  0.46253  0.58843  0.63765  1.0000
  H   H459      1.0  0.25327  0.63337  0.75065  1.0000
  H   H460      1.0  0.47173  0.61436  0.64738  1.0000
  H   H461      1.0  0.22900  0.64341  0.71644  1.0000
  Fe  Fe54      1.0  0.28382  0.86549  0.01972  1.0000
  Fe  Fe55      1.0  0.28775  0.88097  0.10137  1.0000
  S   S114      1.0  0.26530  0.89475  0.09175  1.0000
  S   S115      1.0  0.30095  0.87757  0.15799  1.0000
  Fe  Fe56      1.0  0.24743  0.86606  0.06137  1.0000
  Fe  Fe57      1.0  0.28094  0.90535  0.03783  1.0000
  S   S116      1.0  0.26943  0.85219  0.07271  1.0000
  Fe  Fe58      1.0  0.27696  0.90116  0.45842  1.0000
  Fe  Fe59      1.0  0.25200  0.85613  0.44282  1.0000
  S   S117      1.0  0.27724  0.85292  0.41191  1.0000
  Fe  Fe60      1.0  0.29622  0.87103  0.45948  1.0000
  Fe  Fe61      1.0  0.28093  0.88173  0.38478  1.0000
  S   S118      1.0  0.28041  0.89253  0.32526  1.0000
  S   S119      1.0  0.25479  0.88415  0.41386  1.0000
  C   C297      1.0  0.28652  0.88811  0.27917  1.0000
  C   C298      1.0  0.29567  0.88245  0.20446  1.0000
  C   C299      1.0  0.28531  0.89462  0.21280  1.0000
  C   C300      1.0  0.28080  0.89742  0.24982  1.0000
  H   H462      1.0  0.28089  0.90202  0.19071  1.0000
  H   H463      1.0  0.27282  0.90690  0.25574  1.0000
  H   H464      1.0  0.31796  0.95501  0.32417  1.0000
  S   S120      1.0  0.30458  0.89309  0.04898  1.0000
  S   S121      1.0  0.30291  0.89953  0.42898  1.0000
  H   H465      1.0  0.30030  0.97768  0.33678  1.0000
  H   H466      1.0  0.23578  0.86464  0.14394  1.0000
  N   N29       1.0  0.29547  0.95055  0.36466  1.0000
  C   C301      1.0  0.28809  0.96495  0.34834  1.0000
  C   C302      1.0  0.29699  0.87603  0.27093  1.0000
  C   C303      1.0  0.30167  0.87339  0.23388  1.0000
  H   H467      1.0  0.30166  0.86888  0.29309  1.0000
  H   H468      1.0  0.30983  0.86407  0.22793  1.0000
  C   C304      1.0  0.30517  0.94299  0.33592  1.0000
  H   H469      1.0  0.26777  0.92601  0.35753  1.0000
  H   H470      1.0  0.32257  0.97295  0.38495  1.0000
  H   H471      1.0  0.30289  0.96586  0.41741  1.0000
  H   H472      1.0  0.29476  0.93550  0.31266  1.0000
  C   C305      1.0  0.31962  0.96520  0.03158  1.0000
  H   H473      1.0  0.31064  0.93183  0.34729  1.0000
  H   H474      1.0  0.27111  0.93902  0.40158  1.0000
  H   H475      1.0  0.23795  0.81493  0.16236  1.0000
  H   H476      1.0  0.25899  0.83608  0.14975  1.0000
  C   C306      1.0  0.30479  0.95797  0.00421  1.0000
  H   H477      1.0  0.32005  0.95587  0.05427  1.0000
  H   H478      1.0  0.23569  0.83068  0.12641  1.0000
  H   H479      1.0  0.24492  0.85227  0.23856  1.0000
  H   H480      1.0  0.28391  0.92295  0.39222  1.0000
  N   N30       1.0  0.23763  0.84284  0.18157  1.0000
  H   H481      1.0  0.26375  0.84736  0.21417  1.0000
  C   C307      1.0  0.30980  0.96024  0.39492  1.0000
  C   C308      1.0  0.27879  0.93398  0.37960  1.0000
  H   H482      1.0  0.24249  0.87356  0.19052  1.0000
  C   C309      1.0  0.24753  0.84237  0.21730  1.0000
  H   H483      1.0  0.25994  0.86893  0.16109  1.0000
  H   H484      1.0  0.31567  0.94972  0.40761  1.0000
  H   H485      1.0  0.24241  0.82722  0.22844  1.0000
  C   C310      1.0  0.24423  0.86338  0.16887  1.0000
  H   H486      1.0  0.28070  0.97091  0.36944  1.0000
  S   S122      1.0  0.26067  0.87788  0.00686  1.0000
  C   C311      1.0  0.24276  0.83055  0.15385  1.0000
  S   S123      1.0  0.28593  0.93377  0.00537  1.0000
  H   H487      1.0  0.27717  0.95803  0.32551  1.0000
  H   H488      1.0  0.32173  0.94032  0.47372  1.0000
  C   C312      1.0  0.31992  0.95323  0.48538  1.0000
  S   S124      1.0  0.27937  0.93126  0.48253  1.0000
  C   C313      1.0  0.33358  0.98478  0.03030  1.0000
  H   H489      1.0  0.35117  0.97071  0.48781  1.0000
  Fe  Fe62      1.0  0.35678  0.81073  0.74398  1.0000
  S   S125      1.0  0.35660  0.84140  0.73775  1.0000
  S   S126      1.0  0.38344  0.80123  0.74738  1.0000
  Fe  Fe63      1.0  0.31219  0.79276  0.76030  1.0000
  S   S127      1.0  0.30998  0.82246  0.75657  1.0000
  S   S128      1.0  0.28299  0.76992  0.77884  1.0000
  Fe  Fe64      1.0  0.32798  0.82643  0.70515  1.0000
  S   S129      1.0  0.31139  0.83605  0.65970  1.0000
  Fe  Fe65      1.0  0.33821  0.83455  0.78916  1.0000
  S   S130      1.0  0.34561  0.85641  0.83809  1.0000
  S   S131      1.0  0.32922  0.79601  0.70787  1.0000
  S   S132      1.0  0.33946  0.80470  0.79663  1.0000
  H   H490      1.0  0.31965  0.90171  0.61691  1.0000
  H   H491      1.0  0.24374  0.74561  0.79706  1.0000
  H   H492      1.0  0.26447  0.70962  0.69950  1.0000
  H   H493      1.0  0.32800  0.87377  0.96113  1.0000
  H   H494      1.0  0.31917  0.93479  0.60166  1.0000
  C   C314      1.0  0.30827  0.90286  0.95120  1.0000
  H   H495      1.0  0.32440  0.90642  0.94959  1.0000
  H   H496      1.0  0.44529  0.80051  0.67996  1.0000
  H   H497      1.0  0.25829  0.78228  0.61444  1.0000
  H   H498      1.0  0.27143  0.90232  0.89239  1.0000
  C   C315      1.0  0.23537  0.65369  0.78836  1.0000
  H   H499      1.0  0.29781  0.87835  0.89150  1.0000
  C   C316      1.0  0.30438  0.84877  0.93701  1.0000
  C   C317      1.0  0.32302  0.86398  0.93722  1.0000
  C   C318      1.0  0.33547  0.86619  0.90674  1.0000
  C   C319      1.0  0.32955  0.85309  0.87598  1.0000
  C   C320      1.0  0.31107  0.83773  0.87605  1.0000
  C   C321      1.0  0.29861  0.83559  0.90639  1.0000
  S   S133      1.0  0.27112  0.87348  0.49089  1.0000
  H   H500      1.0  0.34984  0.87797  0.90718  1.0000
  H   H501      1.0  0.30634  0.82745  0.85272  1.0000
  H   H502      1.0  0.28435  0.82361  0.90609  1.0000
  C   C322      1.0  0.31437  0.84336  0.61270  1.0000
  C   C323      1.0  0.29853  0.84606  0.59430  1.0000
  C   C324      1.0  0.29995  0.85206  0.55725  1.0000
  C   C325      1.0  0.31741  0.85582  0.53809  1.0000
  C   C326      1.0  0.33330  0.85312  0.55645  1.0000
  C   C327      1.0  0.33179  0.84684  0.59351  1.0000
  H   H503      1.0  0.28500  0.84348  0.60879  1.0000
  H   H504      1.0  0.28752  0.85383  0.54362  1.0000
  H   H505      1.0  0.34689  0.85596  0.54197  1.0000
  H   H506      1.0  0.34413  0.84485  0.60722  1.0000
  C   C328      1.0  0.40958  0.81316  0.74398  1.0000
  C   C329      1.0  0.41862  0.83236  0.73114  1.0000
  C   C330      1.0  0.43936  0.84101  0.72869  1.0000
  C   C331      1.0  0.45141  0.83067  0.73909  1.0000
  C   C332      1.0  0.44238  0.81161  0.75266  1.0000
  C   C333      1.0  0.42163  0.80288  0.75473  1.0000
  H   H507      1.0  0.40966  0.84048  0.72254  1.0000
  H   H508      1.0  0.44615  0.85578  0.71825  1.0000
  H   H509      1.0  0.45141  0.80367  0.76170  1.0000
  H   H510      1.0  0.41486  0.78808  0.76503  1.0000
  C   C334      1.0  0.26732  0.74639  0.76130  1.0000
  C   C335      1.0  0.27303  0.73621  0.73352  1.0000
  C   C336      1.0  0.25986  0.71753  0.72061  1.0000
  H   H511      1.0  0.23175  0.76800  0.68126  1.0000
  H   H512      1.0  0.28768  0.74253  0.72247  1.0000
  C   C337      1.0  0.30855  0.92737  0.90719  1.0000
  C   C338      1.0  0.43843  0.76392  0.65570  1.0000
  H   H513      1.0  0.42712  0.85106  0.84912  1.0000
  H   H514      1.0  0.42725  0.76478  0.67553  1.0000
  H   H515      1.0  0.34524  0.94417  0.59356  1.0000
  C   C339      1.0  0.30439  0.89445  0.88596  1.0000
  C   C340      1.0  0.27828  0.89990  0.91856  1.0000
  H   H516      1.0  0.27130  0.88394  0.92500  1.0000
  H   H517      1.0  0.46799  0.77943  0.60825  1.0000
  H   H518      1.0  0.43308  0.76540  0.62733  1.0000
  N   N31       1.0  0.29988  0.90615  0.91567  1.0000
  H   H519      1.0  0.43893  0.74892  0.65755  1.0000
  C   C341      1.0  0.24829  0.73784  0.77558  1.0000
  S   S134      1.0  0.28782  0.84523  0.97418  1.0000
  H   H520      1.0  0.45279  0.80193  0.63275  1.0000
  C   C342      1.0  0.34393  0.91904  0.53757  1.0000
  H   H521      1.0  0.29851  0.89673  0.85861  1.0000
  H   H522      1.0  0.24599  0.79604  0.63846  1.0000
  C   C343      1.0  0.25956  0.79261  0.63817  1.0000
  C   C344      1.0  0.24587  0.76562  0.68017  1.0000
  H   H523      1.0  0.32837  0.94567  0.55837  1.0000
  H   H524      1.0  0.24207  0.65384  0.81623  1.0000
  H   H525      1.0  0.34282  0.90450  0.52551  1.0000
  N   N32       1.0  0.26268  0.78422  0.67357  1.0000
  C   C345      1.0  0.26443  0.79848  0.70417  1.0000
  H   H526      1.0  0.30528  0.93649  0.92923  1.0000
  H   H527      1.0  0.33035  0.88968  0.58529  1.0000
  C   C346      1.0  0.45667  0.79906  0.66137  1.0000
  C   C347      1.0  0.37918  0.83611  0.87401  1.0000
  H   H528      1.0  0.30117  0.88727  0.95971  1.0000
  H   H529      1.0  0.37870  0.85097  0.87957  1.0000
  C   C348      1.0  0.30898  0.90671  0.54788  1.0000
  H   H530      1.0  0.39161  0.86026  0.81766  1.0000
  H   H531      1.0  0.39754  0.81037  0.86904  1.0000
  H   H532      1.0  0.32056  0.89842  0.88344  1.0000
  H   H533      1.0  0.27434  0.90829  0.94103  1.0000
  C   C349      1.0  0.28098  0.78021  0.67183  1.0000
  C   C350      1.0  0.23506  0.71932  0.76238  1.0000
  H   H534      1.0  0.38049  0.82965  0.90110  1.0000
  H   H535      1.0  0.30608  0.91222  0.97385  1.0000
  C   C351      1.0  0.24083  0.70900  0.73502  1.0000
  H   H536      1.0  0.40538  0.84750  0.79503  1.0000
  H   H537      1.0  0.29384  0.79384  0.66569  1.0000
  H   H538      1.0  0.26719  0.79278  0.73126  1.0000
  C   C352      1.0  0.41448  0.85000  0.86697  1.0000
  N   N33       1.0  0.45798  0.77941  0.66403  1.0000
  H   H539      1.0  0.29307  0.96524  0.95387  1.0000
  C   C353      1.0  0.39291  0.84565  0.81376  1.0000
  H   H540      1.0  0.45377  0.77760  0.72287  1.0000
  H   H541      1.0  0.36462  0.82687  0.86130  1.0000
  H   H542      1.0  0.38147  0.80724  0.82937  1.0000
  C   C354      1.0  0.39555  0.81723  0.84282  1.0000
  H   H543      1.0  0.37931  0.83581  0.79897  1.0000
  H   H544      1.0  0.27689  0.81275  0.69991  1.0000
  N   N34       1.0  0.39553  0.83724  0.84943  1.0000
  H   H545      1.0  0.40759  0.81755  0.82403  1.0000
  H   H546      1.0  0.28426  0.77463  0.69856  1.0000
  H   H547      1.0  0.34584  0.91149  0.61013  1.0000
  H   H548      1.0  0.41499  0.86526  0.87195  1.0000
  C   C355      1.0  0.30098  0.95273  0.49232  1.0000
  H   H549      1.0  0.41692  0.84417  0.89409  1.0000
  H   H550      1.0  0.25082  0.80173  0.70667  1.0000
  H   H551      1.0  0.34244  0.92816  0.51423  1.0000
  H   H552      1.0  0.47086  0.81114  0.66951  1.0000
  H   H553      1.0  0.30260  0.93051  0.88057  1.0000
  H   H554      1.0  0.32487  0.93263  0.90526  1.0000
  N   N35       1.0  0.32867  0.91660  0.56546  1.0000
  H   H555      1.0  0.35902  0.92631  0.54981  1.0000
  C   C356      1.0  0.46443  0.77686  0.70189  1.0000
  H   H556      1.0  0.30730  0.89206  0.53590  1.0000
  H   H557      1.0  0.30640  0.91551  0.52496  1.0000
  C   C357      1.0  0.33046  0.93615  0.58047  1.0000
  C   C358      1.0  0.33125  0.90438  0.59583  1.0000
  H   H558      1.0  0.29699  0.90433  0.56801  1.0000
  H   H559      1.0  0.27215  0.80662  0.63253  1.0000
  C   C359      1.0  0.47235  0.77771  0.63719  1.0000
  C   C360      1.0  0.33662  0.97055  0.49328  1.0000
  S   S135      1.0  0.32033  0.86504  0.49227  1.0000
  H   H560      1.0  0.28451  0.96976  0.51240  1.0000
  C   C361      1.0  0.29905  0.96988  0.50695  1.0000
  H   H561      1.0  0.24776  0.75919  0.70701  1.0000
  H   H562      1.0  0.46624  0.76246  0.70461  1.0000
  H   H563      1.0  0.24438  0.75428  0.65818  1.0000
  H   H564      1.0  0.28003  0.76902  0.64991  1.0000
  H   H565      1.0  0.47397  0.76318  0.63894  1.0000
  C   C362      1.0  0.30454  0.97050  0.97507  1.0000
  H   H566      1.0  0.24709  0.66336  0.77020  1.0000
  S   S136      1.0  0.47749  0.84224  0.73422  1.0000
  H   H567      1.0  0.66700  0.04046  0.39260  1.0000
  S   S137      1.0  0.50998  0.14071  0.19850  1.0000
  H   H568      1.0  0.53613  0.05817  0.17380  1.0000
  C   C363      1.0  0.52396  0.09851  0.16644  1.0000
  S   S138      1.0  0.50121  0.14827  0.28620  1.0000
  H   H569      1.0  0.53501  0.18553  0.18074  1.0000
  C   C364      1.0  0.68630  0.01701  0.40984  1.0000
  H   H570      1.0  0.50852  0.19890  0.28134  1.0000
  Fe  Fe66      1.0  0.51647  0.13131  0.25424  1.0000
  S   S139      1.0  0.54659  0.13160  0.27361  1.0000
  Fe  Fe67      1.0  0.48261  0.30597  0.20729  1.0000
  Fe  Fe68      1.0  0.66048  0.14433  0.21983  1.0000
  S   S140      1.0  0.66919  0.11795  0.20927  1.0000
  S   S141      1.0  0.63012  0.14442  0.20150  1.0000
  Fe  Fe69      1.0  0.70257  0.17117  0.24397  1.0000
  S   S142      1.0  0.71342  0.14680  0.23453  1.0000
  Fe  Fe70      1.0  0.69568  0.13943  0.18143  1.0000
  H   H571      1.0  0.49376  0.25719  0.35273  1.0000
  Fe  Fe71      1.0  0.68659  0.12717  0.26324  1.0000
  S   S143      1.0  0.69506  0.10651  0.30070  1.0000
  S   S144      1.0  0.68652  0.16547  0.18889  1.0000
  S   S145      1.0  0.67619  0.15197  0.27581  1.0000
  Fe  Fe72      1.0  0.50783  0.29257  0.26044  1.0000
  C   C365      1.0  0.53261  0.08511  0.22164  1.0000
  S   S146      1.0  0.51735  0.26891  0.28460  1.0000
  H   H572      1.0  0.50276  0.05192  0.19824  1.0000
  H   H573      1.0  0.54909  0.19136  0.28048  1.0000
  C   C366      1.0  0.55655  0.21654  0.22418  1.0000
  Fe  Fe73      1.0  0.48186  0.11391  0.19808  1.0000
  H   H574      1.0  0.53911  0.10989  0.16499  1.0000
  H   H575      1.0  0.67281  0.11465  0.36116  1.0000
  H   H576      1.0  0.55134  0.08251  0.15969  1.0000
  N   N36       1.0  0.55739  0.19663  0.22356  1.0000
  H   H577      1.0  0.56104  0.22400  0.25178  1.0000
  N   N37       1.0  0.52395  0.08034  0.18379  1.0000
  H   H578      1.0  0.51743  0.09550  0.13787  1.0000
  H   H579      1.0  0.54132  0.21581  0.21798  1.0000
  C   C367      1.0  0.71210  0.06897  0.05883  1.0000
  C   C368      1.0  0.71072  0.12495  0.08990  1.0000
  H   H580      1.0  0.67624  0.03928  0.45938  1.0000
  H   H581      1.0  0.52897  0.18309  0.24750  1.0000
  C   C369      1.0  0.70575  0.10928  0.01648  1.0000
  H   H582      1.0  0.68809  0.06285  0.38915  1.0000
  C   C370      1.0  0.69193  0.11722  0.07320  1.0000
  H   H583      1.0  0.58800  0.20691  0.20942  1.0000
  H   H584      1.0  0.67492  0.10352  0.02385  1.0000
  C   C371      1.0  0.69772  0.10681  0.34955  1.0000
  C   C372      1.0  0.71277  0.10162  0.36531  1.0000
  C   C373      1.0  0.71493  0.10090  0.40403  1.0000
  C   C374      1.0  0.70172  0.10486  0.42735  1.0000
  C   C375      1.0  0.68667  0.11002  0.41160  1.0000
  C   C376      1.0  0.68470  0.11106  0.37291  1.0000
  H   H585      1.0  0.53273  0.07175  0.23579  1.0000
  H   H586      1.0  0.68899  0.02323  0.01991  1.0000
  H   H587      1.0  0.72447  0.16340  0.42355  1.0000
  H   H588      1.0  0.67638  0.11311  0.42946  1.0000
  C   C377      1.0  0.56975  0.13555  0.25290  1.0000
  C   C378      1.0  0.58507  0.13383  0.27484  1.0000
  C   C379      1.0  0.60360  0.13654  0.25978  1.0000
  C   C380      1.0  0.60710  0.14100  0.22241  1.0000
  C   C381      1.0  0.59175  0.14275  0.20046  1.0000
  C   C382      1.0  0.57322  0.14007  0.21553  1.0000
  H   H589      1.0  0.58260  0.13033  0.30377  1.0000
  H   H590      1.0  0.61516  0.13512  0.27709  1.0000
  H   H591      1.0  0.59428  0.14621  0.17152  1.0000
  H   H592      1.0  0.56169  0.14151  0.19823  1.0000
  C   C383      1.0  0.51007  0.24530  0.26314  1.0000
  C   C384      1.0  0.51213  0.22968  0.28275  1.0000
  C   C385      1.0  0.50699  0.21084  0.26597  1.0000
  C   C386      1.0  0.50017  0.20766  0.22915  1.0000
  C   C387      1.0  0.68304  0.04650  0.38686  1.0000
  C   C388      1.0  0.50286  0.24197  0.22664  1.0000
  H   H593      1.0  0.51770  0.23217  0.31102  1.0000
  H   H594      1.0  0.67454  0.06491  0.05083  1.0000
  S   S147      1.0  0.71506  0.13483  0.13583  1.0000
  H   H595      1.0  0.50129  0.25391  0.21127  1.0000
  H   H596      1.0  0.56634  0.22617  0.20323  1.0000
  S   S148      1.0  0.70366  0.10408  0.47614  1.0000
  S   S149      1.0  0.48943  0.10319  0.25228  1.0000
  H   H597      1.0  0.67076  0.01041  0.41890  1.0000
  C   C389      1.0  0.68844  0.04015  0.08644  1.0000
  H   H598      1.0  0.70810  0.07907  0.07758  1.0000
  C   C390      1.0  0.70131  0.03753  0.02628  1.0000
  H   H599      1.0  0.71754  0.04209  0.37509  1.0000
  Fe  Fe74      1.0  0.49296  0.15578  0.22971  1.0000
  H   H600      1.0  0.48663  0.29654  0.41207  1.0000
  H   H601      1.0  0.72386  0.21909  0.20502  1.0000
  H   H602      1.0  0.53677  0.29730  0.39503  1.0000
  C   C391      1.0  0.49815  0.22328  0.20963  1.0000
  C   C392      1.0  0.50391  0.27081  0.42358  1.0000
  H   H603      1.0  0.50674  0.25714  0.41738  1.0000
  S   S150      1.0  0.49547  0.18501  0.20529  1.0000
  N   N38       1.0  0.69410  0.03881  0.41280  1.0000
  H   H604      1.0  0.51493  0.10498  0.18241  1.0000
  H   H605      1.0  0.54808  0.09598  0.22141  1.0000
  H   H606      1.0  0.49414  0.07187  0.20213  1.0000
  H   H607      1.0  0.55105  0.17210  0.18531  1.0000
  H   H608      1.0  0.54481  0.16951  0.25282  1.0000
  H   H609      1.0  0.55976  0.19588  0.16433  1.0000
  H   H610      1.0  0.67932  0.11726  0.08839  1.0000
  H   H611      1.0  0.58350  0.20534  0.25828  1.0000
  C   C393      1.0  0.68949  0.10946  0.03660  1.0000
  H   H612      1.0  0.49636  0.06232  0.15743  1.0000
  H   H613      1.0  0.52971  0.06821  0.13272  1.0000
  C   C394      1.0  0.53579  0.07192  0.16149  1.0000
  C   C395      1.0  0.57784  0.19814  0.23084  1.0000
  C   C396      1.0  0.50346  0.06592  0.18550  1.0000
  C   C397      1.0  0.55053  0.18712  0.18685  1.0000
  C   C398      1.0  0.54451  0.18463  0.25236  1.0000
  H   H614      1.0  0.57885  0.18328  0.23099  1.0000
  H   H615      1.0  0.72682  0.09736  0.41587  1.0000
  H   H616      1.0  0.51250  0.31023  0.41915  1.0000
  N   N39       1.0  0.50526  0.28242  0.38989  1.0000
  C   C399      1.0  0.71357  0.98818  0.47295  1.0000
  H   H617      1.0  0.70654  0.04478  0.99946  1.0000
  N   N40       1.0  0.69519  0.05030  0.05127  1.0000
  C   C400      1.0  0.49060  0.27030  0.36196  1.0000
  H   H618      1.0  0.70678  0.17461  0.33356  1.0000
  C   C401      1.0  0.67899  0.05462  0.03343  1.0000
  C   C402      1.0  0.50128  0.30033  0.39926  1.0000
  H   H619      1.0  0.52421  0.09173  0.23921  1.0000
  H   H620      1.0  0.52672  0.29698  0.34933  1.0000
  C   C403      1.0  0.69191  0.04509  0.45101  1.0000
  H   H621      1.0  0.72478  0.06637  0.07174  1.0000
  H   H622      1.0  0.49060  0.27887  0.33675  1.0000
  H   H623      1.0  0.69857  0.15043  0.35245  1.0000
  H   H624      1.0  0.72161  0.06302  0.40548  1.0000
  H   H625      1.0  0.52863  0.27505  0.36672  1.0000
  C   C404      1.0  0.71522  0.04663  0.40360  1.0000
  H   H626      1.0  0.71734  0.07698  0.03282  1.0000
  H   H627      1.0  0.48898  0.26626  0.43569  1.0000
  H   H628      1.0  0.48502  0.29354  0.10422  1.0000
  S   S151      1.0  0.51384  0.30728  0.20522  1.0000
  H   H629      1.0  0.68349  0.06179  0.00630  1.0000
  H   H630      1.0  0.70199  0.17149  0.38205  1.0000
  H   H631      1.0  0.49296  0.22094  0.18110  1.0000
  H   H632      1.0  0.67574  0.02593  0.08175  1.0000
  H   H633      1.0  0.72394  0.04120  0.42307  1.0000
  H   H634      1.0  0.68683  0.01176  0.38095  1.0000
  H   H635      1.0  0.69752  0.06149  0.45411  1.0000
  H   H636      1.0  0.50133  0.30903  0.37417  1.0000
  H   H637      1.0  0.68488  0.04266  0.35759  1.0000
  C   C405      1.0  0.52525  0.28821  0.37477  1.0000
  H   H638      1.0  0.51479  0.27949  0.44526  1.0000
  H   H639      1.0  0.68371  0.04944  0.10588  1.0000
  H   H640      1.0  0.66577  0.04095  0.02812  1.0000
  H   H641      1.0  0.70031  0.03978  0.47121  1.0000
  H   H642      1.0  0.71367  0.03409  0.03861  1.0000
  C   C406      1.0  0.70814  0.16615  0.35810  1.0000
  H   H643      1.0  0.69505  0.01077  0.42735  1.0000
  H   H644      1.0  0.70039  0.03676  0.10058  1.0000
  C   C407      1.0  0.72451  0.11717  0.03318  1.0000
  H   H645      1.0  0.72134  0.14192  0.39590  1.0000
  C   C408      1.0  0.71743  0.99057  0.00042  1.0000
  H   H646      1.0  0.47927  0.28517  0.03683  1.0000
  H   H647      1.0  0.72286  0.09823  0.34741  1.0000
  S   S152      1.0  0.72643  0.19792  0.27177  1.0000
  H   H648      1.0  0.72601  0.17470  0.15077  1.0000
  C   C409      1.0  0.72695  0.12488  0.06966  1.0000
  Fe  Fe75      1.0  0.48677  0.31813  0.29030  1.0000
  H   H649      1.0  0.72664  0.14422  0.32842  1.0000
  H   H650      1.0  0.71754  0.01194  0.87894  1.0000
  H   H651      1.0  0.72215  0.02337  0.83429  1.0000
  S   S153      1.0  0.70931  0.06496  0.54330  1.0000
  S   S154      1.0  0.71795  0.06169  0.91155  1.0000
  C   C410      1.0  0.69938  0.00147  0.95514  1.0000
  H   H652      1.0  0.68915  0.01286  0.51828  1.0000
  S   S155      1.0  0.72049  0.08576  0.64995  1.0000
  H   H653      1.0  0.48315  0.10468  0.60840  1.0000
  H   H654      1.0  0.69830  0.01265  0.93697  1.0000
  S   S156      1.0  0.70203  0.09845  0.97124  1.0000
  C   C411      1.0  0.69168  0.00109  0.50344  1.0000
  C   C412      1.0  0.71652  0.00533  0.97669  1.0000
  H   H655      1.0  0.48130  0.08253  0.63175  1.0000
  C   C413      1.0  0.72128  0.08846  0.72624  1.0000
  H   H656      1.0  0.71284  0.09771  0.72229  1.0000
  H   H657      1.0  0.72215  0.09162  0.78609  1.0000
  Fe  Fe76      1.0  0.72333  0.09235  0.51000  1.0000
  C   C414      1.0  0.71071  0.00387  0.49191  1.0000
  Fe  Fe77      1.0  0.72596  0.09071  0.94308  1.0000
  C   C415      1.0  0.72659  0.08509  0.76253  1.0000
  C   C416      1.0  0.72685  0.08010  0.69508  1.0000
  Fe  Fe78      1.0  0.69153  0.48058  0.24481  1.0000
  S   S157      1.0  0.69678  0.51242  0.23495  1.0000
  S   S158      1.0  0.71613  0.46989  0.25827  1.0000
  Fe  Fe79      1.0  0.64641  0.46716  0.24758  1.0000
  S   S159      1.0  0.64874  0.49836  0.23757  1.0000
  S   S160      1.0  0.61750  0.44352  0.26871  1.0000
  Fe  Fe80      1.0  0.67132  0.50017  0.19432  1.0000
  S   S161      1.0  0.66858  0.51709  0.14275  1.0000
  Fe  Fe81      1.0  0.67418  0.50881  0.27863  1.0000
  S   S162      1.0  0.67591  0.53446  0.31782  1.0000
  S   S163      1.0  0.66727  0.46804  0.20134  1.0000
  S   S164      1.0  0.67069  0.47780  0.29139  1.0000
  Fe  Fe82      1.0  0.52226  0.33625  0.23775  1.0000
  H   H658      1.0  0.70321  0.52163  0.43661  1.0000
  S   S165      1.0  0.54757  0.36271  0.21339  1.0000
  H   H659      1.0  0.66533  0.54123  0.08296  1.0000
  H   H660      1.0  0.62083  0.49859  0.32744  1.0000
  H   H661      1.0  0.69339  0.57587  0.43181  1.0000
  H   H662      1.0  0.50803  0.33015  0.11582  1.0000
  H   H663      1.0  0.53121  0.38155  0.15292  1.0000
  C   C417      1.0  0.62117  0.48350  0.32752  1.0000
  H   H664      1.0  0.52763  0.37194  0.08599  1.0000
  H   H665      1.0  0.63211  0.48312  0.30689  1.0000
  H   H666      1.0  0.59642  0.46770  0.38266  1.0000
  C   C418      1.0  0.62712  0.45842  0.36273  1.0000
  N   N41       1.0  0.62633  0.47834  0.36455  1.0000
  C   C419      1.0  0.59856  0.42079  0.25271  1.0000
  C   C420      1.0  0.58428  0.40962  0.27780  1.0000
  C   C421      1.0  0.56882  0.39177  0.26661  1.0000
  C   C422      1.0  0.56722  0.38481  0.22988  1.0000
  C   C423      1.0  0.58145  0.39601  0.20477  1.0000
  C   C424      1.0  0.59703  0.41375  0.21605  1.0000
  H   H667      1.0  0.58517  0.41479  0.30620  1.0000
  H   H668      1.0  0.55807  0.38349  0.28636  1.0000
  H   H669      1.0  0.58051  0.39091  0.17630  1.0000
  H   H670      1.0  0.60777  0.42205  0.19627  1.0000
  C   C425      1.0  0.68586  0.54018  0.36393  1.0000
  C   C426      1.0  0.69235  0.52742  0.38389  1.0000
  C   C427      1.0  0.69864  0.53184  0.42125  1.0000
  C   C428      1.0  0.69915  0.54935  0.43895  1.0000
  C   C429      1.0  0.69324  0.56242  0.41862  1.0000
  C   C430      1.0  0.68646  0.55775  0.38152  1.0000
  H   H671      1.0  0.69234  0.51401  0.37076  1.0000
  H   H672      1.0  0.69714  0.56256  0.15345  1.0000
  H   H673      1.0  0.67313  0.53763  0.21622  1.0000
  H   H674      1.0  0.68340  0.59121  0.22584  1.0000
  C   C431      1.0  0.68523  0.52892  0.10698  1.0000
  C   C432      1.0  0.70383  0.52782  0.10416  1.0000
  C   C433      1.0  0.71646  0.53754  0.07538  1.0000
  C   C434      1.0  0.71084  0.54870  0.04929  1.0000
  C   C435      1.0  0.69237  0.55011  0.05258  1.0000
  C   C436      1.0  0.67966  0.54022  0.08111  1.0000
  H   H675      1.0  0.70840  0.51923  0.12373  1.0000
  C   C437      1.0  0.64577  0.49292  0.37670  1.0000
  H   H676      1.0  0.68776  0.55855  0.03278  1.0000
  N   N42       1.0  0.50625  0.35843  0.12732  1.0000
  H   H677      1.0  0.63837  0.45774  0.34292  1.0000
  H   H678      1.0  0.70877  0.64869  0.01149  1.0000
  H   H679      1.0  0.66478  0.55136  0.18438  1.0000
  C   C438      1.0  0.51429  0.34311  0.13513  1.0000
  H   H680      1.0  0.60660  0.47281  0.31724  1.0000
  H   H681      1.0  0.61029  0.49339  0.39299  1.0000
  H   H682      1.0  0.61280  0.44710  0.35279  1.0000
  H   H683      1.0  0.70671  0.59889  0.20313  1.0000
  H   H684      1.0  0.65668  0.63392  0.46560  1.0000
  H   H685      1.0  0.68148  0.56776  0.36650  1.0000
  H   H686      1.0  0.64580  0.50818  0.37808  1.0000
  H   H687      1.0  0.70393  0.55383  0.25313  1.0000
  H   H688      1.0  0.53065  0.34894  0.13330  1.0000
  H   H689      1.0  0.70458  0.54783  0.18469  1.0000
  S   S166      1.0  0.70594  0.55340  0.48695  1.0000
  C   C439      1.0  0.51136  0.36553  0.08936  1.0000
  N   N43       1.0  0.69288  0.56764  0.21090  1.0000
  C   C440      1.0  0.70408  0.56275  0.18117  1.0000
  C   C441      1.0  0.67275  0.55244  0.21135  1.0000
  C   C442      1.0  0.69176  0.58707  0.20392  1.0000
  C   C443      1.0  0.70283  0.56827  0.24707  1.0000
  H   H690      1.0  0.71804  0.57963  0.24798  1.0000
  H   H691      1.0  0.65033  0.48959  0.40449  1.0000
  H   H692      1.0  0.51131  0.37012  0.18320  1.0000
  H   H693      1.0  0.61476  0.47479  0.41939  1.0000
  C   C444      1.0  0.66945  0.64626  0.47576  1.0000
  H   H694      1.0  0.68421  0.58698  0.17687  1.0000
  H   H695      1.0  0.65743  0.49322  0.35707  1.0000
  H   H696      1.0  0.48021  0.34430  0.15894  1.0000
  H   H697      1.0  0.69455  0.57153  0.27024  1.0000
  H   H698      1.0  0.50513  0.35328  0.06848  1.0000
  H   H699      1.0  0.50921  0.38701  0.14929  1.0000
  H   H700      1.0  0.63088  0.45391  0.39015  1.0000
  C   C445      1.0  0.61126  0.47856  0.39111  1.0000
  H   H701      1.0  0.66385  0.55542  0.23366  1.0000
  H   H702      1.0  0.50554  0.37715  0.08249  1.0000
  C   C446      1.0  0.51482  0.37505  0.15423  1.0000
  S   S167      1.0  0.49110  0.33533  0.23754  1.0000
  H   H703      1.0  0.51077  0.33769  0.16362  1.0000
  H   H704      1.0  0.65044  0.64758  0.32739  1.0000
  H   H705      1.0  0.71952  0.57356  0.18045  1.0000
  S   S168      1.0  0.51863  0.32141  0.29286  1.0000
  C   C447      1.0  0.48458  0.34994  0.13065  1.0000
  H   H706      1.0  0.68612  0.62807  0.48864  1.0000
  S   S169      1.0  0.72731  0.56018  0.01302  1.0000
  H   H707      1.0  0.47790  0.36102  0.12498  1.0000
  C   C448      1.0  0.68613  0.64289  0.48889  1.0000
  S   S170      1.0  0.52155  0.62231  0.74172  1.0000
  C   C449      1.0  0.50341  0.62415  0.60432  1.0000
  Fe  Fe83      1.0  0.49027  0.62119  0.74365  1.0000
  S   S171      1.0  0.69150  0.62966  0.93981  1.0000
  H   H708      1.0  0.67951  0.56986  0.86101  1.0000
  C   C450      1.0  0.66332  0.64330  0.58775  1.0000
  C   C451      1.0  0.67457  0.63793  0.64847  1.0000
  S   S172      1.0  0.70347  0.58243  0.92872  1.0000
  C   C452      1.0  0.66428  0.61153  0.60250  1.0000
  C   C453      1.0  0.71445  0.57872  0.71170  1.0000
  C   C454      1.0  0.71431  0.60959  0.73603  1.0000
  H   H709      1.0  0.64894  0.60600  0.61266  1.0000
  C   C455      1.0  0.71782  0.58552  0.77898  1.0000
  H   H710      1.0  0.68720  0.60918  0.82152  1.0000
  H   H711      1.0  0.70339  0.63277  0.61110  1.0000
  H   H712      1.0  0.69470  0.63538  0.56573  1.0000
  S   S173      1.0  0.49668  0.64715  0.70549  1.0000
  S   S174      1.0  0.70679  0.60344  0.66041  1.0000
  S   S175      1.0  0.71874  0.57659  0.82466  1.0000
  Fe  Fe84      1.0  0.52886  0.64377  0.79053  1.0000
  S   S176      1.0  0.70023  0.59824  0.54974  1.0000
  H   H713      1.0  0.50131  0.61170  0.67436  1.0000
  Fe  Fe85      1.0  0.72553  0.62543  0.53299  1.0000
  C   C456      1.0  0.71712  0.60411  0.77248  1.0000
  H   H714      1.0  0.71706  0.55856  0.75270  1.0000
  H   H715      1.0  0.67233  0.60342  0.61724  1.0000
  H   H716      1.0  0.50596  0.58974  0.58352  1.0000
  H   H717      1.0  0.65504  0.55750  0.84240  1.0000
  H   H718      1.0  0.67855  0.62023  0.85888  1.0000
  H   H719      1.0  0.67449  0.57272  0.81353  1.0000
  C   C457      1.0  0.71298  0.59697  0.70528  1.0000
  C   C458      1.0  0.69453  0.63961  0.59528  1.0000
  C   C459      1.0  0.50116  0.60093  0.65236  1.0000
  H   H720      1.0  0.71318  0.56866  0.68865  1.0000
  H   H721      1.0  0.65360  0.59160  0.79664  1.0000
  Fe  Fe86      1.0  0.71438  0.61518  0.94132  1.0000
  H   H722      1.0  0.66157  0.64618  0.93712  1.0000
  Fe  Fe87      1.0  0.71757  0.58175  0.52301  1.0000
  H   H723      1.0  0.49667  0.62749  0.57881  1.0000
  H   H724      1.0  0.51871  0.62558  0.59778  1.0000
  C   C460      1.0  0.68598  0.64594  0.97103  1.0000
  H   H725      1.0  0.64227  0.57328  0.89244  1.0000
  H   H726      1.0  0.66683  0.58602  0.91047  1.0000
  H   H727      1.0  0.49301  0.58601  0.66350  1.0000
  H   H728      1.0  0.63451  0.57682  0.82644  1.0000
  N   N44       1.0  0.49175  0.60432  0.61812  1.0000
  C   C461      1.0  0.64832  0.59018  0.82560  1.0000
  H   H729      1.0  0.51675  0.60264  0.64805  1.0000
  C   C462      1.0  0.66823  0.57145  0.84174  1.0000
  H   H730      1.0  0.71844  0.61413  0.79556  1.0000
  C   C463      1.0  0.68138  0.60688  0.85001  1.0000
  S   S177      1.0  0.49713  0.64057  0.79564  1.0000
  H   H731      1.0  0.48218  0.57408  0.59946  1.0000
  H   H732      1.0  0.69327  0.60602  0.86854  1.0000
  H   H733      1.0  0.64449  0.60323  0.83227  1.0000
  S   S178      1.0  0.55183  0.64438  0.83497  1.0000
  H   H734      1.0  0.65212  0.59976  0.89833  1.0000
  N   N45       1.0  0.67414  0.63310  0.60852  1.0000
  N   N46       1.0  0.66342  0.58881  0.85182  1.0000
  C   C464      1.0  0.65576  0.58681  0.88982  1.0000
  H   H735      1.0  0.50475  0.63588  0.62543  1.0000
  H   H736      1.0  0.66288  0.63999  0.55746  1.0000
  C   C465      1.0  0.71658  0.57297  0.74823  1.0000
  H   H737      1.0  0.66359  0.60736  0.57258  1.0000
  Fe  Fe88      1.0  0.71799  0.59948  0.60249  1.0000
  H   H738      1.0  0.48403  0.59140  0.56350  1.0000
  C   C466      1.0  0.49092  0.58920  0.58985  1.0000
  Fe  Fe89      1.0  0.52800  0.64874  0.70543  1.0000
  H   H739      1.0  0.65942  0.63331  0.65948  1.0000
  H   H740      1.0  0.68260  0.63030  0.66468  1.0000
  H   H741      1.0  0.71315  0.62371  0.73163  1.0000
  S   S179      1.0  0.54783  0.64934  0.65649  1.0000
  Fe  Fe90      1.0  0.72596  0.59046  0.88347  1.0000
  H   H742      1.0  0.64781  0.63875  0.59685  1.0000
  C   C467      1.0  0.67039  0.65204  0.96195  1.0000
  Fe  Fe91      1.0  0.72758  0.58220  0.96798  1.0000
  Fe  Fe92      1.0  0.64919  0.87373  0.03397  1.0000
  S   S180      1.0  0.62153  0.86766  0.06600  1.0000
  S   S181      1.0  0.66344  0.85110  0.02558  1.0000
  Fe  Fe93      1.0  0.65370  0.91697  0.01603  1.0000
  S   S182      1.0  0.62648  0.91305  0.04836  1.0000
  H   H743      1.0  0.57128  0.75695  0.05897  1.0000
  Fe  Fe94      1.0  0.63796  0.89789  0.09191  1.0000
  S   S183      1.0  0.64460  0.90761  0.15337  1.0000
  Fe  Fe95      1.0  0.61296  0.88329  0.01918  1.0000
  S   S184      1.0  0.66608  0.90349  0.06092  1.0000
  Fe  Fe96      1.0  0.60565  0.69747  0.02979  1.0000
  Fe  Fe97      1.0  0.61671  0.69439  0.11333  1.0000
  S   S185      1.0  0.64721  0.71669  0.10647  1.0000
  S   S186      1.0  0.60593  0.67997  0.16924  1.0000
  Fe  Fe98      1.0  0.63322  0.73425  0.07389  1.0000
  S   S187      1.0  0.63438  0.76487  0.09194  1.0000
  Fe  Fe99      1.0  0.64703  0.70035  0.05250  1.0000
  C   C468      1.0  0.65970  0.66161  0.34191  1.0000
  S   S188      1.0  0.60262  0.71241  0.08317  1.0000
  S   S189      1.0  0.61691  0.67695  0.06086  1.0000
  Fe  Fe100     1.0  0.61379  0.87616  0.45859  1.0000
  S   S190      1.0  0.67480  0.69342  0.04296  1.0000
  Fe  Fe101     1.0  0.62895  0.88482  0.37691  1.0000
  S   S191      1.0  0.66044  0.89808  0.39752  1.0000
  S   S192      1.0  0.61852  0.87502  0.31653  1.0000
  Fe  Fe102     1.0  0.65184  0.87176  0.43506  1.0000
  H   H744      1.0  0.64635  0.69339  0.29051  1.0000
  Fe  Fe103     1.0  0.64996  0.91328  0.44331  1.0000
  H   H745      1.0  0.59680  0.76203  0.06870  1.0000
  S   S193      1.0  0.62080  0.85844  0.41367  1.0000
  S   S194      1.0  0.61868  0.90139  0.42000  1.0000
  Fe  Fe104     1.0  0.59719  0.69909  0.46845  1.0000
  H   H746      1.0  0.58005  0.73708  0.06143  1.0000
  Fe  Fe105     1.0  0.61927  0.71172  0.39353  1.0000
  S   S195      1.0  0.64879  0.72196  0.42340  1.0000
  S   S196      1.0  0.62233  0.72005  0.33214  1.0000
  Fe  Fe106     1.0  0.63623  0.69365  0.45473  1.0000
  H   H747      1.0  0.66373  0.78416  0.03597  1.0000
  Fe  Fe107     1.0  0.63499  0.73525  0.46615  1.0000
  H   H748      1.0  0.67983  0.70081  0.34616  1.0000
  S   S197      1.0  0.60691  0.68300  0.42364  1.0000
  S   S198      1.0  0.60640  0.72673  0.43481  1.0000
  C   C469      1.0  0.60206  0.68005  0.24526  1.0000
  C   C470      1.0  0.67868  0.96735  0.47652  1.0000
  S   S199      1.0  0.63586  0.72027  0.01906  1.0000
  C   C471      1.0  0.66045  0.82677  0.44826  1.0000
  C   C472      1.0  0.66864  0.81359  0.43405  1.0000
  H   H749      1.0  0.65885  0.70761  0.35151  1.0000
  H   H750      1.0  0.55720  0.74537  0.99618  1.0000
  C   C473      1.0  0.66440  0.69550  0.35580  1.0000
  H   H751      1.0  0.70027  0.95822  0.45078  1.0000
  H   H752      1.0  0.66473  0.69312  0.38617  1.0000
  C   C474      1.0  0.63159  0.67073  0.34989  1.0000
  S   S200      1.0  0.64454  0.88802  0.48278  1.0000
  C   C475      1.0  0.66260  0.79411  0.44668  1.0000
  N   N47       1.0  0.65182  0.67723  0.33576  1.0000
  H   H753      1.0  0.58097  0.78009  0.00663  1.0000
  C   C476      1.0  0.57001  0.74106  0.99104  1.0000
  H   H754      1.0  0.63120  0.66679  0.37959  1.0000
  H   H755      1.0  0.67491  0.81812  0.01125  1.0000
  C   C477      1.0  0.61044  0.69143  0.21428  1.0000
  H   H756      1.0  0.63957  0.83018  0.48634  1.0000
  C   C478      1.0  0.69774  0.97004  0.46542  1.0000
  C   C479      1.0  0.61701  0.70849  0.28717  1.0000
  C   C480      1.0  0.62537  0.71984  0.25620  1.0000
  C   C481      1.0  0.62215  0.71140  0.22007  1.0000
  H   H757      1.0  0.63448  0.73530  0.26012  1.0000
  H   H758      1.0  0.62869  0.72038  0.19663  1.0000
  H   H759      1.0  0.66950  0.78435  0.43629  1.0000
  C   C482      1.0  0.60524  0.68850  0.28142  1.0000
  C   C483      1.0  0.62646  0.88419  0.27145  1.0000
  C   C484      1.0  0.64192  0.90226  0.26605  1.0000
  C   C485      1.0  0.64720  0.90907  0.22982  1.0000
  C   C486      1.0  0.63726  0.89793  0.19836  1.0000
  C   C487      1.0  0.62209  0.87964  0.20372  1.0000
  C   C488      1.0  0.61672  0.87289  0.23996  1.0000
  H   H760      1.0  0.64959  0.91118  0.28979  1.0000
  H   H761      1.0  0.65897  0.92323  0.22618  1.0000
  H   H762      1.0  0.61416  0.87089  0.18001  1.0000
  H   H763      1.0  0.60467  0.85894  0.24366  1.0000
  C   C489      1.0  0.65378  0.82641  0.04102  1.0000
  C   C490      1.0  0.63808  0.81993  0.06538  1.0000
  C   C491      1.0  0.63228  0.80098  0.08038  1.0000
  C   C492      1.0  0.64144  0.78793  0.06989  1.0000
  C   C493      1.0  0.65644  0.79399  0.04404  1.0000
  H   H764      1.0  0.70260  0.96098  0.02073  1.0000
  H   H765      1.0  0.63061  0.82959  0.07321  1.0000
  H   H766      1.0  0.62064  0.79641  0.10034  1.0000
  H   H767      1.0  0.62559  0.68259  0.34766  1.0000
  H   H768      1.0  0.66010  0.65846  0.37199  1.0000
  C   C494      1.0  0.69330  0.66789  0.02535  1.0000
  C   C495      1.0  0.64041  0.80089  0.48864  1.0000
  S   S201      1.0  0.66888  0.85127  0.43181  1.0000
  S   S202      1.0  0.64795  0.66858  0.45666  1.0000
  H   H769      1.0  0.59832  0.67959  0.30464  1.0000
  N   N48       1.0  0.67151  0.86390  0.14991  1.0000
  C   C496      1.0  0.68500  0.88366  0.13878  1.0000
  C   C497      1.0  0.65213  0.85921  0.13146  1.0000
  C   C498      1.0  0.66916  0.86380  0.19047  1.0000
  C   C499      1.0  0.67959  0.84895  0.13858  1.0000
  H   H770      1.0  0.69967  0.88798  0.15286  1.0000
  H   H771      1.0  0.67895  0.89519  0.14574  1.0000
  H   H772      1.0  0.68738  0.88409  0.10837  1.0000
  H   H773      1.0  0.64164  0.84420  0.13832  1.0000
  H   H774      1.0  0.64531  0.86987  0.13979  1.0000
  H   H775      1.0  0.65360  0.85980  0.10090  1.0000
  H   H776      1.0  0.65877  0.84922  0.19971  1.0000
  H   H777      1.0  0.66318  0.87509  0.19958  1.0000
  H   H778      1.0  0.68348  0.86718  0.20541  1.0000
  H   H779      1.0  0.66968  0.83381  0.14624  1.0000
  H   H780      1.0  0.69431  0.85200  0.15167  1.0000
  H   H781      1.0  0.68127  0.84864  0.10794  1.0000
  N   N49       1.0  0.62776  0.81321  0.34625  1.0000
  C   C500      1.0  0.61551  0.79597  0.32322  1.0000
  C   C501      1.0  0.62635  0.83139  0.33136  1.0000
  C   C502      1.0  0.64852  0.81491  0.34596  1.0000
  C   C503      1.0  0.62071  0.81062  0.38464  1.0000
  H   H782      1.0  0.59977  0.79434  0.32279  1.0000
  H   H783      1.0  0.61623  0.78201  0.33390  1.0000
  H   H784      1.0  0.62046  0.79734  0.29407  1.0000
  H   H785      1.0  0.63605  0.84478  0.34729  1.0000
  H   H786      1.0  0.63085  0.83358  0.30200  1.0000
  H   H787      1.0  0.61108  0.83118  0.33270  1.0000
  H   H788      1.0  0.65817  0.82797  0.36277  1.0000
  H   H789      1.0  0.65431  0.81665  0.31742  1.0000
  H   H790      1.0  0.65025  0.80166  0.35783  1.0000
  H   H791      1.0  0.62206  0.79735  0.39726  1.0000
  H   H792      1.0  0.60505  0.80913  0.38606  1.0000
  H   H793      1.0  0.62945  0.82352  0.40251  1.0000
  H   H794      1.0  0.68001  0.81859  0.41363  1.0000
  C   C504      1.0  0.64875  0.78777  0.47463  1.0000
  H   H795      1.0  0.68596  0.69607  0.48800  1.0000
  C   C505      1.0  0.58377  0.75246  0.05197  1.0000
  H   H796      1.0  0.70229  0.67408  0.04986  1.0000
  C   C506      1.0  0.66920  0.66542  0.47526  1.0000
  S   S203      1.0  0.65780  0.94511  0.46676  1.0000
  C   C507      1.0  0.66277  0.81327  0.03014  1.0000
  H   H797      1.0  0.64144  0.66798  0.27980  1.0000
  H   H798      1.0  0.62135  0.65759  0.33420  1.0000
  H   H799      1.0  0.67499  0.66598  0.33171  1.0000
  C   C508      1.0  0.67780  0.67411  0.01612  1.0000
  H   H800      1.0  0.59283  0.66463  0.24112  1.0000
  C   C509      1.0  0.70155  0.97217  0.00251  1.0000
  C   C510      1.0  0.65153  0.68113  0.29575  1.0000
  C   C511      1.0  0.64594  0.82017  0.47505  1.0000
  H   H801      1.0  0.60100  0.73233  0.01284  1.0000
  C   C512      1.0  0.60430  0.74770  0.00399  1.0000
  H   H802      1.0  0.66645  0.68548  0.28385  1.0000
  C   C513      1.0  0.59301  0.77471  0.00077  1.0000
  N   N50       1.0  0.58777  0.75401  0.01193  1.0000
  C   C514      1.0  0.68588  0.68124  0.48830  1.0000
  H   H803      1.0  0.60649  0.78474  0.01599  1.0000
  H   H804      1.0  0.59478  0.91069  0.48230  1.0000
  H   H805      1.0  0.61808  0.75723  0.01881  1.0000
  C   C515      1.0  0.69714  0.65363  0.00339  1.0000
  H   H806      1.0  0.61569  0.93338  0.47897  1.0000
  H   H807      1.0  0.56576  0.72536  0.99919  1.0000
  S   S204      1.0  0.57950  0.69254  0.98912  1.0000
  S   S205      1.0  0.58294  0.87484  0.98956  1.0000
  Fe  Fe108     1.0  0.50575  0.66630  0.75714  1.0000
  S   S206      1.0  0.53753  0.67002  0.75397  1.0000
  H   H808      1.0  0.53712  0.68684  0.55074  1.0000
  S   S207      1.0  0.53513  0.85413  0.75179  1.0000
  Fe  Fe109     1.0  0.51841  0.79972  0.71788  1.0000
  S   S208      1.0  0.54992  0.81829  0.73099  1.0000
  S   S209      1.0  0.50935  0.76964  0.68937  1.0000
  Fe  Fe110     1.0  0.53878  0.82883  0.78175  1.0000
  S   S210      1.0  0.55887  0.83001  0.83200  1.0000
  Fe  Fe111     1.0  0.54470  0.84239  0.70036  1.0000
  S   S211      1.0  0.57002  0.86172  0.66461  1.0000
  S   S212      1.0  0.50714  0.80794  0.77074  1.0000
  S   S213      1.0  0.51374  0.82316  0.68373  1.0000
  C   C516      1.0  0.50187  0.73049  0.77181  1.0000
  H   H809      1.0  0.53964  0.73050  0.79565  1.0000
  H   H810      1.0  0.59611  0.77643  0.97071  1.0000
  H   H811      1.0  0.72107  0.67770  0.94432  1.0000
  H   H812      1.0  0.61485  0.75950  0.60452  1.0000
  S   S214      1.0  0.58515  0.86352  0.49084  1.0000
  S   S215      1.0  0.56833  0.69130  0.49987  1.0000
  H   H813      1.0  0.62453  0.91042  0.56536  1.0000
  H   H814      1.0  0.59035  0.71832  0.57378  1.0000
  C   C517      1.0  0.55920  0.65783  0.87785  1.0000
  N   N51       1.0  0.60777  0.92404  0.53460  1.0000
  C   C518      1.0  0.61417  0.75663  0.57413  1.0000
  H   H815      1.0  0.63560  0.92172  0.52335  1.0000
  H   H816      1.0  0.58165  0.90112  0.91575  1.0000
  H   H817      1.0  0.58814  0.67139  0.54621  1.0000
  C   C519      1.0  0.56551  0.84342  0.87492  1.0000
  C   C520      1.0  0.55377  0.85239  0.89169  1.0000
  C   C521      1.0  0.55913  0.86166  0.92699  1.0000
  C   C522      1.0  0.57650  0.86252  0.94554  1.0000
  C   C523      1.0  0.58840  0.85386  0.92845  1.0000
  C   C524      1.0  0.58282  0.84422  0.89361  1.0000
  H   H818      1.0  0.54031  0.85172  0.87790  1.0000
  H   H819      1.0  0.54973  0.86819  0.93999  1.0000
  H   H820      1.0  0.60175  0.85428  0.94233  1.0000
  H   H821      1.0  0.59196  0.83726  0.88102  1.0000
  C   C525      1.0  0.57381  0.85937  0.61649  1.0000
  C   C526      1.0  0.59321  0.86601  0.60353  1.0000
  C   C527      1.0  0.59696  0.86620  0.56532  1.0000
  C   C528      1.0  0.58133  0.86055  0.53938  1.0000
  C   C529      1.0  0.56193  0.85356  0.55235  1.0000
  C   C530      1.0  0.55816  0.85279  0.59063  1.0000
  H   H822      1.0  0.60542  0.87103  0.62328  1.0000
  H   H823      1.0  0.61196  0.87097  0.55604  1.0000
  H   H824      1.0  0.54970  0.84909  0.53263  1.0000
  H   H825      1.0  0.54317  0.84782  0.60010  1.0000
  C   C531      1.0  0.50241  0.71374  0.75297  1.0000
  C   C532      1.0  0.50586  0.71456  0.71499  1.0000
  C   C533      1.0  0.50818  0.73188  0.69583  1.0000
  C   C534      1.0  0.50763  0.74863  0.71469  1.0000
  C   C535      1.0  0.50474  0.74797  0.75285  1.0000
  H   H826      1.0  0.67043  0.65962  0.59141  1.0000
  H   H827      1.0  0.50624  0.70171  0.70025  1.0000
  H   H828      1.0  0.51035  0.73230  0.66626  1.0000
  Fe  Fe112     1.0  0.50409  0.83258  0.73732  1.0000
  C   C536      1.0  0.55386  0.66239  0.61430  1.0000
  H   H829      1.0  0.62184  0.90396  0.88882  1.0000
  H   H830      1.0  0.60161  0.93926  0.96046  1.0000
  N   N52       1.0  0.59362  0.74786  0.55989  1.0000
  C   C537      1.0  0.59356  0.74387  0.51968  1.0000
  C   C538      1.0  0.57531  0.67152  0.56052  1.0000
  C   C539      1.0  0.56324  0.68022  0.54407  1.0000
  H   H831      1.0  0.61211  0.89524  0.93311  1.0000
  H   H832      1.0  0.60115  0.73356  0.51368  1.0000
  H   H833      1.0  0.59212  0.90984  0.87191  1.0000
  N   N53       1.0  0.55259  0.71665  0.83461  1.0000
  C   C540      1.0  0.56671  0.70652  0.83478  1.0000
  C   C541      1.0  0.56034  0.73457  0.85863  1.0000
  C   C542      1.0  0.53348  0.70324  0.84866  1.0000
  C   C543      1.0  0.54979  0.72234  0.79649  1.0000
  H   H834      1.0  0.56089  0.69235  0.81855  1.0000
  H   H835      1.0  0.56981  0.70281  0.86336  1.0000
  H   H836      1.0  0.58102  0.71578  0.82277  1.0000
  H   H837      1.0  0.56270  0.73084  0.88759  1.0000
  H   H838      1.0  0.57468  0.74508  0.84860  1.0000
  H   H839      1.0  0.52212  0.70997  0.84710  1.0000
  H   H840      1.0  0.53480  0.69934  0.87791  1.0000
  H   H841      1.0  0.52758  0.68917  0.83207  1.0000
  H   H842      1.0  0.54312  0.70919  0.77786  1.0000
  H   H843      1.0  0.56395  0.73195  0.78441  1.0000
  N   N54       1.0  0.61090  0.92319  0.91921  1.0000
  C   C544      1.0  0.62310  0.94118  0.89986  1.0000
  H   H844      1.0  0.52922  0.67169  0.61261  1.0000
  C   C545      1.0  0.60878  0.92832  0.95824  1.0000
  H   H845      1.0  0.62995  0.79633  0.51067  1.0000
  H   H846      1.0  0.63805  0.94797  0.91318  1.0000
  C   C546      1.0  0.70296  0.65873  0.50120  1.0000
  C   C547      1.0  0.70270  0.67790  0.50096  1.0000
  H   H847      1.0  0.59233  0.93374  0.49294  1.0000
  H   H848      1.0  0.57967  0.65533  0.60707  1.0000
  H   H849      1.0  0.58163  0.89829  0.54237  1.0000
  H   H850      1.0  0.54994  0.74247  0.85922  1.0000
  C   C548      1.0  0.54658  0.68016  0.56319  1.0000
  H   H851      1.0  0.62244  0.77091  0.56073  1.0000
  C   C549      1.0  0.57207  0.67882  0.94650  1.0000
  C   C550      1.0  0.58316  0.72913  0.57874  1.0000
  H   H852      1.0  0.66121  0.98122  0.50436  1.0000
  H   H853      1.0  0.57944  0.92110  0.55556  1.0000
  C   C551      1.0  0.61771  0.94400  0.55119  1.0000
  H   H854      1.0  0.58280  0.73142  0.60918  1.0000
  S   S216      1.0  0.49838  0.69209  0.77801  1.0000
  H   H855      1.0  0.61490  0.89891  0.52126  1.0000
  H   H856      1.0  0.71563  0.69028  0.51039  1.0000
  H   H857      1.0  0.59968  0.91509  0.97373  1.0000
  C   C552      1.0  0.58358  0.76173  0.56682  1.0000
  C   C553      1.0  0.68363  0.98296  0.95679  1.0000
  C   C554      1.0  0.57717  0.65943  0.89494  1.0000
  H   H858      1.0  0.60799  0.95260  0.55037  1.0000
  H   H859      1.0  0.58353  0.92505  0.90106  1.0000
  H   H860      1.0  0.59325  0.91076  0.58442  1.0000
  C   C555      1.0  0.62058  0.90873  0.91774  1.0000
  C   C556      1.0  0.54205  0.67156  0.59832  1.0000
  H   H861      1.0  0.67060  0.98009  0.93959  1.0000
  S   S217      1.0  0.72461  0.65522  0.51671  1.0000
  H   H862      1.0  0.65429  0.67056  0.97690  1.0000
  H   H863      1.0  0.56804  0.75555  0.55631  1.0000
  H   H864      1.0  0.59113  0.77600  0.55281  1.0000
  C   C557      1.0  0.60239  0.92558  0.49550  1.0000
  C   C558      1.0  0.58360  0.66987  0.92897  1.0000
  C   C559      1.0  0.57048  0.66245  0.59512  1.0000
  C   C560      1.0  0.67582  0.98304  0.49554  1.0000
  H   H865      1.0  0.50421  0.76076  0.76758  1.0000
  H   H866      1.0  0.61629  0.95247  0.90040  1.0000
  H   H867      1.0  0.63137  0.95246  0.53605  1.0000
  H   H868      1.0  0.62332  0.93466  0.97297  1.0000
  H   H869      1.0  0.60746  0.74816  0.97395  1.0000
  H   H870      1.0  0.63569  0.91498  0.93030  1.0000
  H   H871      1.0  0.54486  0.68378  0.94295  1.0000
  H   H872      1.0  0.62234  0.74678  0.56826  1.0000
  H   H873      1.0  0.56766  0.72204  0.56830  1.0000
  C   C561      1.0  0.62130  0.91332  0.53634  1.0000
  C   C562      1.0  0.58975  0.91315  0.55520  1.0000
  H   H874      1.0  0.62209  0.94327  0.58060  1.0000
  C   C563      1.0  0.59120  0.91449  0.90110  1.0000
  H   H875      1.0  0.49914  0.72992  0.80118  1.0000
  H   H876      1.0  0.62509  0.93780  0.87040  1.0000
  H   H877      1.0  0.59743  0.67089  0.94168  1.0000
  H   H878      1.0  0.58334  0.76509  0.59692  1.0000
  C   C564      1.0  0.55407  0.67720  0.92942  1.0000
  S   S218      1.0  0.62550  0.70795  0.50098  1.0000
  H   H879      1.0  0.57256  0.74155  0.96077  1.0000
  H   H880      1.0  0.48728  0.78915  0.64268  1.0000
  S   S219      1.0  0.63968  0.88751  0.98589  1.0000
  S   S220      1.0  0.64402  0.76493  0.49663  1.0000
  C   C565      1.0  0.66618  0.66586  0.98451  1.0000
  H   H881      1.0  0.57832  0.73689  0.50791  1.0000
  C   C566      1.0  0.54761  0.66669  0.89547  1.0000
  S   S221      1.0  0.66440  0.94479  0.97997  1.0000
  H   H882      1.0  0.60136  0.75761  0.50433  1.0000
  H   H883      1.0  0.70227  0.65591  0.59769  1.0000
  H   H884      1.0  0.53349  0.66504  0.88331  1.0000
  C   C567      1.0  0.68456  0.96813  0.98043  1.0000
  H   H885      1.0  0.47894  0.78852  0.70932  1.0000
  H   H886      1.0  0.72637  0.98446  0.85475  1.0000
  H   H887      1.0  0.68215  0.65407  0.65405  1.0000
  H   H888      1.0  0.58619  0.65249  0.88183  1.0000
  H   H889      1.0  0.75021  0.15904  0.17138  1.0000
  Fe  Fe113     1.0  0.86039  0.30796  0.18068  1.0000
  H   H890      1.0  0.94645  0.27076  0.37028  1.0000
  H   H891      1.0  0.85568  0.25332  0.46809  1.0000
  Fe  Fe114     1.0  0.85531  0.29574  0.26305  1.0000
  H   H892      1.0  0.76970  0.22078  0.15021  1.0000
  S   S222      1.0  0.86764  0.27904  0.30334  1.0000
  Fe  Fe115     1.0  0.81948  0.29148  0.21468  1.0000
  S   S223      1.0  0.78805  0.27326  0.19498  1.0000
  H   H893      1.0  0.90040  0.24629  0.09016  1.0000
  S   S224      1.0  0.84350  0.27953  0.20866  1.0000
  H   H894      1.0  0.92730  0.24183  0.03149  1.0000
  C   C568      1.0  0.74116  0.18966  0.37014  1.0000
  C   C569      1.0  0.82749  0.20789  0.43318  1.0000
  C   C570      1.0  0.94213  0.27244  0.39915  1.0000
  S   S225      1.0  0.86386  0.19660  0.48481  1.0000
  H   H895      1.0  0.81343  0.22711  0.48231  1.0000
  H   H896      1.0  0.76593  0.22341  0.29208  1.0000
  C   C571      1.0  0.87445  0.28294  0.35106  1.0000
  C   C572      1.0  0.88215  0.27007  0.36789  1.0000
  C   C573      1.0  0.88700  0.27180  0.40596  1.0000
  C   C574      1.0  0.88461  0.28670  0.42776  1.0000
  C   C575      1.0  0.87721  0.29980  0.41086  1.0000
  C   C576      1.0  0.87205  0.29789  0.37274  1.0000
  H   H897      1.0  0.88405  0.25845  0.35138  1.0000
  H   H898      1.0  0.89245  0.26149  0.41833  1.0000
  H   H899      1.0  0.81444  0.20148  0.41427  1.0000
  C   C577      1.0  0.76100  0.17413  0.17848  1.0000
  C   C578      1.0  0.87751  0.29934  0.09051  1.0000
  C   C579      1.0  0.93382  0.24974  0.05797  1.0000
  C   C580      1.0  0.88947  0.29368  0.02993  1.0000
  C   C581      1.0  0.87257  0.27665  0.02391  1.0000
  C   C582      1.0  0.85812  0.27115  0.05123  1.0000
  C   C583      1.0  0.86061  0.28233  0.08442  1.0000
  H   H900      1.0  0.84935  0.27791  0.10515  1.0000
  H   H901      1.0  0.82513  0.23381  0.38235  1.0000
  C   C584      1.0  0.77209  0.20892  0.16620  1.0000
  H   H902      1.0  0.92806  0.28949  0.45286  1.0000
  C   C585      1.0  0.94434  0.29470  0.45050  1.0000
  C   C586      1.0  0.75949  0.18492  0.11607  1.0000
  C   C587      1.0  0.75225  0.24293  0.20113  1.0000
  C   C588      1.0  0.77108  0.25262  0.21732  1.0000
  C   C589      1.0  0.77595  0.24545  0.25016  1.0000
  C   C590      1.0  0.76207  0.22874  0.26657  1.0000
  H   H903      1.0  0.75669  0.19586  0.09809  1.0000
  H   H904      1.0  0.74830  0.24852  0.17596  1.0000
  H   H905      1.0  0.79038  0.25286  0.26294  1.0000
  N   N55       1.0  0.92699  0.26602  0.06574  1.0000
  H   H906      1.0  0.73525  0.16784  0.30741  1.0000
  H   H907      1.0  0.83109  0.15832  0.99115  1.0000
  H   H908      1.0  0.89780  0.25134  0.04222  1.0000
  H   H909      1.0  0.95012  0.25532  0.05511  1.0000
  H   H910      1.0  0.73459  0.18951  0.19176  1.0000
  H   H911      1.0  0.86617  0.30793  0.36019  1.0000
  H   H912      1.0  0.83968  0.20407  0.42160  1.0000
  H   H913      1.0  0.84488  0.25815  0.04673  1.0000
  C   C591      1.0  0.74333  0.21890  0.25008  1.0000
  H   H914      1.0  0.95060  0.31015  0.46160  1.0000
  H   H915      1.0  0.92577  0.26607  0.39982  1.0000
  H   H916      1.0  0.86365  0.23436  0.45096  1.0000
  S   S226      1.0  0.83021  0.30623  0.27057  1.0000
  H   H917      1.0  0.89978  0.26959  0.07744  1.0000
  H   H918      1.0  0.95256  0.28260  0.09912  1.0000
  H   H919      1.0  0.93130  0.28865  0.10745  1.0000
  H   H920      1.0  0.94890  0.28608  0.03115  1.0000
  H   H921      1.0  0.78744  0.21002  0.16142  1.0000
  H   H922      1.0  0.87529  0.31141  0.42736  1.0000
  H   H923      1.0  0.80365  0.22838  0.43684  1.0000
  C   C592      1.0  0.85096  0.23715  0.46283  1.0000
  C   C593      1.0  0.73588  0.16012  0.33339  1.0000
  C   C594      1.0  0.82921  0.16366  0.48247  1.0000
  H   H924      1.0  0.94950  0.28550  0.46896  1.0000
  S   S227      1.0  0.90805  0.24572  0.47541  1.0000
  H   H925      1.0  0.75944  0.17682  0.20848  1.0000
  N   N56       1.0  0.75751  0.18916  0.15561  1.0000
  H   H926      1.0  0.74872  0.17001  0.10741  1.0000
  H   H927      1.0  0.92567  0.27310  0.00844  1.0000
  S   S228      1.0  0.88128  0.31409  0.13169  1.0000
  H   H928      1.0  0.73485  0.20099  0.14797  1.0000
  H   H929      1.0  0.92825  0.29296  0.04057  1.0000
  H   H930      1.0  0.93224  0.26604  0.12442  1.0000
  H   H931      1.0  0.77448  0.18523  0.11023  1.0000
  H   H932      1.0  0.92558  0.29947  0.38945  1.0000
  C   C595      1.0  0.93268  0.28018  0.03523  1.0000
  H   H933      1.0  0.74042  0.19808  0.34510  1.0000
  H   H934      1.0  0.73719  0.11733  0.01800  1.0000
  H   H935      1.0  0.92981  0.23871  0.08027  1.0000
  C   C596      1.0  0.97180  0.30125  0.40962  1.0000
  H   H936      1.0  0.82911  0.16623  0.45311  1.0000
  H   H937      1.0  0.74558  0.15949  0.40556  1.0000
  H   H938      1.0  0.77599  0.17404  0.17445  1.0000
  C   C597      1.0  0.73741  0.18863  0.16179  1.0000
  N   N57       1.0  0.95006  0.29334  0.41182  1.0000
  H   H939      1.0  0.75134  0.16130  0.33785  1.0000
  H   H940      1.0  0.82134  0.25018  0.45883  1.0000
  S   S229      1.0  0.89062  0.28928  0.47600  1.0000
  C   C598      1.0  0.73842  0.22617  0.21742  1.0000
  C   C599      1.0  0.93619  0.27627  0.10077  1.0000
  C   C600      1.0  0.73016  0.15794  0.39907  1.0000
  H   H941      1.0  0.77111  0.21239  0.19602  1.0000
  C   C601      1.0  0.89192  0.30493  0.06306  1.0000
  C   C602      1.0  0.90531  0.25793  0.06901  1.0000
  H   H942      1.0  0.73616  0.19639  0.39382  1.0000
  H   H943      1.0  0.94765  0.26324  0.41713  1.0000
  H   H944      1.0  0.90043  0.29839  0.00871  1.0000
  H   H945      1.0  0.82384  0.20033  0.46017  1.0000
  H   H946      1.0  0.74154  0.13080  0.08226  1.0000
  H   H947      1.0  0.94569  0.30403  0.35854  1.0000
  N   N58       1.0  0.83341  0.22949  0.43803  1.0000
  C   C603      1.0  0.81719  0.23396  0.45471  1.0000
  C   C604      1.0  0.83809  0.23898  0.40172  1.0000
  H   H948      1.0  0.85014  0.23570  0.38825  1.0000
  H   H949      1.0  0.80234  0.13748  0.47940  1.0000
  H   H950      1.0  0.75690  0.19200  0.37520  1.0000
  H   H951      1.0  0.97665  0.30129  0.38057  1.0000
  H   H952      1.0  0.84302  0.25534  0.40454  1.0000
  H   H953      1.0  0.73057  0.99333  0.01728  1.0000
  C   C605      1.0  0.94195  0.30491  0.38808  1.0000
  N   N59       1.0  0.72884  0.16847  0.36518  1.0000
  H   H954      1.0  0.90496  0.31817  0.06729  1.0000
  S   S230      1.0  0.74799  0.08419  0.48855  1.0000
  H   H955      1.0  0.72817  0.99008  0.46382  1.0000
  Fe  Fe116     1.0  0.91126  0.26108  0.86751  1.0000
  S   S231      1.0  0.92340  0.23794  0.88217  1.0000
  S   S232      1.0  0.91726  0.27716  0.81208  1.0000
  Fe  Fe117     1.0  0.89124  0.25795  0.94389  1.0000
  H   H956      1.0  0.77392  0.14713  0.65212  1.0000
  Fe  Fe118     1.0  0.93123  0.25386  0.93789  1.0000
  H   H957      1.0  0.79920  0.18870  0.95357  1.0000
  Fe  Fe119     1.0  0.89313  0.22114  0.90493  1.0000
  S   S233      1.0  0.87398  0.18944  0.88697  1.0000
  S   S234      1.0  0.92059  0.27796  0.92252  1.0000
  S   S235      1.0  0.88089  0.24367  0.88765  1.0000
  S   S236      1.0  0.95838  0.25963  0.97616  1.0000
  H   H958      1.0  0.77588  0.13257  0.61301  1.0000
  C   C606      1.0  0.74288  0.06464  0.73703  1.0000
  S   S237      1.0  0.76589  0.07273  0.90767  1.0000
  H   H959      1.0  0.83354  0.19779  0.97326  1.0000
  Fe  Fe120     1.0  0.74135  0.05737  0.94667  1.0000
  Fe  Fe121     1.0  0.77016  0.10149  0.93707  1.0000
  H   H960      1.0  0.86080  0.18327  0.96360  1.0000
  S   S238      1.0  0.74806  0.10791  0.90091  1.0000
  Fe  Fe122     1.0  0.93281  0.25217  0.51733  1.0000
  S   S239      1.0  0.92544  0.27500  0.54933  1.0000
  H   H961      1.0  0.76259  0.09364  0.65014  1.0000
  Fe  Fe123     1.0  0.88825  0.22294  0.51355  1.0000
  S   S240      1.0  0.87910  0.24455  0.54536  1.0000
  C   C607      1.0  0.76048  0.02906  0.83240  1.0000
  H   H962      1.0  0.78367  0.11490  0.72244  1.0000
  Fe  Fe124     1.0  0.90557  0.24945  0.58280  1.0000
  S   S241      1.0  0.90290  0.24246  0.64491  1.0000
  S   S242      1.0  0.91403  0.22673  0.55192  1.0000
  Fe  Fe125     1.0  0.76517  0.09981  0.54010  1.0000
  H   H963      1.0  0.75114  0.05524  0.74096  1.0000
  S   S243      1.0  0.79654  0.12182  0.55500  1.0000
  S   S244      1.0  0.74419  0.06775  0.81320  1.0000
  H   H964      1.0  0.82192  0.18609  0.90710  1.0000
  C   C608      1.0  0.82765  0.23397  0.92250  1.0000
  H   H965      1.0  0.84305  0.24120  0.91311  1.0000
  S   S245      1.0  0.75414  0.07190  0.57344  1.0000
  H   H966      1.0  0.96664  0.27652  0.61799  1.0000
  H   H967      1.0  0.85666  0.18213  0.56074  1.0000
  H   H968      1.0  0.80046  0.21251  0.97008  1.0000
  C   C609      1.0  0.81433  0.14316  0.53494  1.0000
  H   H969      1.0  0.83055  0.15289  0.58654  1.0000
  C   C610      1.0  0.82987  0.15595  0.55754  1.0000
  S   S246      1.0  0.96421  0.25612  0.50001  1.0000
  C   C611      1.0  0.80384  0.13472  0.66368  1.0000
  C   C612      1.0  0.72913  0.02202  0.86118  1.0000
  H   H970      1.0  0.76037  0.02859  0.90680  1.0000
  C   C613      1.0  0.84481  0.17259  0.54292  1.0000
  N   N60       1.0  0.74546  0.01507  0.85587  1.0000
  H   H971      1.0  0.75410  0.03063  0.80500  1.0000
  C   C614      1.0  0.94687  0.22665  0.62648  1.0000
  H   H972      1.0  0.76679  0.00868  0.88951  1.0000
  H   H973      1.0  0.73454  0.03687  0.87473  1.0000
  C   C615      1.0  0.82593  0.20194  0.90056  1.0000
  C   C616      1.0  0.77615  0.12222  0.70432  1.0000
  H   H974      1.0  0.82608  0.24304  0.94641  1.0000
  C   C617      1.0  0.80288  0.20434  0.94557  1.0000
  C   C618      1.0  0.91302  0.26721  0.76577  1.0000
  C   C619      1.0  0.90500  0.24687  0.75802  1.0000
  C   C620      1.0  0.90188  0.23969  0.72097  1.0000
  C   C621      1.0  0.90667  0.25265  0.69103  1.0000
  C   C622      1.0  0.91485  0.27299  0.69870  1.0000
  C   C623      1.0  0.91796  0.28017  0.73579  1.0000
  H   H975      1.0  0.90112  0.23667  0.78061  1.0000
  H   H976      1.0  0.89561  0.22393  0.71554  1.0000
  H   H977      1.0  0.91865  0.28320  0.67615  1.0000
  H   H978      1.0  0.92415  0.29592  0.74136  1.0000
  C   C624      1.0  0.85292  0.17199  0.90794  1.0000
  C   C625      1.0  0.84993  0.17231  0.94603  1.0000
  S   S247      1.0  0.86851  0.26213  0.98245  1.0000
  C   C626      1.0  0.81894  0.14346  0.93932  1.0000
  C   C627      1.0  0.82189  0.14318  0.90117  1.0000
  C   C628      1.0  0.83887  0.15724  0.88569  1.0000
  H   H979      1.0  0.94117  0.26064  0.61668  1.0000
  H   H980      1.0  0.79216  0.20432  0.92339  1.0000
  H   H981      1.0  0.94968  0.21556  0.64398  1.0000
  H   H982      1.0  0.94801  0.22264  0.59698  1.0000
  H   H983      1.0  0.80900  0.13527  0.63472  1.0000
  H   H984      1.0  0.76660  0.04412  0.84542  1.0000
  H   H985      1.0  0.78430  0.10263  0.62324  1.0000
  H   H986      1.0  0.76003  0.11382  0.70636  1.0000
  H   H987      1.0  0.78572  0.09483  0.66965  1.0000
  H   H988      1.0  0.81263  0.12834  0.68084  1.0000
  Fe  Fe126     1.0  0.73456  0.05714  0.52376  1.0000
  H   H989      1.0  0.75527  0.12312  0.64294  1.0000
  S   S248      1.0  0.74114  0.10959  0.55898  1.0000
  H   H990      1.0  0.93132  0.22506  0.63088  1.0000
  H   H991      1.0  0.80736  0.15020  0.67349  1.0000
  C   C629      1.0  0.77864  0.10260  0.65165  1.0000
  H   H992      1.0  0.77928  0.13729  0.71600  1.0000
  H   H993      1.0  0.74343  0.00370  0.91093  1.0000
  N   N61       1.0  0.78252  0.12286  0.66557  1.0000
  C   C630      1.0  0.77143  0.13185  0.64244  1.0000
  H   H994      1.0  0.97663  0.29905  0.51544  1.0000
  C   C631      1.0  0.73739  0.07308  0.76818  1.0000
  S   S249      1.0  0.73107  0.02693  0.49798  1.0000
  H   H995      1.0  0.81125  0.13195  0.88369  1.0000
  S   S250      1.0  0.74813  0.08546  0.98002  1.0000
  Fe  Fe127     1.0  0.72965  0.08146  0.59077  1.0000
  H   H996      1.0  0.96191  0.24125  0.69395  1.0000
  Fe  Fe128     1.0  0.89970  0.26734  0.50840  1.0000
  C   C632      1.0  0.83705  0.21299  0.96319  1.0000
  S   S251      1.0  0.73726  0.02812  0.97471  1.0000
  H   H997      1.0  0.81654  0.20259  0.87656  1.0000
  H   H998      1.0  0.84113  0.15671  0.85623  1.0000
  N   N62       1.0  0.82338  0.21332  0.93293  1.0000
  S   S252      1.0  0.79811  0.12591  0.96083  1.0000
  C   C633      1.0  0.73769  0.06812  0.70076  1.0000
  C   C634      1.0  0.83309  0.15811  0.96157  1.0000
  Fe  Fe129     1.0  0.74249  0.07821  0.87303  1.0000
  H   H999      1.0  0.81770  0.23489  0.89966  1.0000
  S   S253      1.0  0.90207  0.23450  0.96187  1.0000
  H   H1000     1.0  0.74968  0.98961  0.83318  1.0000
  C   C635      1.0  0.84473  0.17643  0.50515  1.0000
  H   H1001     1.0  0.84150  0.20757  0.89136  1.0000
  H   H1002     1.0  0.85261  0.21864  0.95396  1.0000
  H   H1003     1.0  0.74190  0.06135  0.67724  1.0000
  H   H1004     1.0  0.77302  0.02430  0.82748  1.0000
  N   N63       1.0  0.96074  0.24692  0.63582  1.0000
  C   C636      1.0  0.95632  0.26109  0.61210  1.0000
  H   H1005     1.0  0.95741  0.25781  0.58218  1.0000
  H   H1006     1.0  0.94327  0.25033  0.68075  1.0000
  C   C637      1.0  0.75442  0.01392  0.89227  1.0000
  C   C638      1.0  0.95860  0.25156  0.67512  1.0000
  H   H1007     1.0  0.96852  0.26687  0.68311  1.0000
  C   C639      1.0  0.73775  0.99532  0.83767  1.0000
  C   C640      1.0  0.81397  0.14729  0.49729  1.0000
  H   H1008     1.0  0.73083  0.99571  0.81018  1.0000
  H   H1009     1.0  0.83638  0.22240  0.98726  1.0000
  H   H1010     1.0  0.84801  0.22981  0.49005  1.0000
  S   S254      1.0  0.85762  0.36585  0.25565  1.0000
  Fe  Fe130     1.0  0.85904  0.51317  0.26800  1.0000
  S   S255      1.0  0.83036  0.48698  0.25798  1.0000
  S   S256      1.0  0.86926  0.53587  0.31631  1.0000
  Fe  Fe131     1.0  0.86944  0.51547  0.18482  1.0000
  S   S257      1.0  0.84206  0.48958  0.16942  1.0000
  S   S258      1.0  0.89204  0.53686  0.14713  1.0000
  Fe  Fe132     1.0  0.82633  0.50282  0.20772  1.0000
  S   S259      1.0  0.79957  0.50741  0.18432  1.0000
  Fe  Fe133     1.0  0.84796  0.47482  0.22036  1.0000
  S   S260      1.0  0.83818  0.44126  0.20864  1.0000
  S   S261      1.0  0.85327  0.52956  0.21985  1.0000
  S   S262      1.0  0.87705  0.50020  0.23333  1.0000
  C   C641      1.0  0.95658  0.56775  0.39852  1.0000
  C   C642      1.0  0.95692  0.60091  0.40258  1.0000
  H   H1011     1.0  0.77913  0.42773  0.26583  1.0000
  H   H1012     1.0  0.72895  0.49366  0.19291  1.0000
  H   H1013     1.0  0.78515  0.44850  0.15496  1.0000
  C   C643      1.0  0.77680  0.49828  0.20681  1.0000
  C   C644      1.0  0.76028  0.50035  0.19008  1.0000
  C   C645      1.0  0.74169  0.49230  0.20631  1.0000
  H   H1014     1.0  0.86650  0.34808  0.14021  1.0000
  C   C646      1.0  0.75610  0.48010  0.25618  1.0000
  C   C647      1.0  0.77475  0.48847  0.24029  1.0000
  H   H1015     1.0  0.76177  0.50797  0.16420  1.0000
  H   H1016     1.0  0.89664  0.35166  0.17641  1.0000
  H   H1017     1.0  0.75448  0.47223  0.28179  1.0000
  H   H1018     1.0  0.78749  0.48726  0.25382  1.0000
  C   C648      1.0  0.88886  0.54348  0.10103  1.0000
  C   C649      1.0  0.87365  0.53135  0.07752  1.0000
  C   C650      1.0  0.87181  0.53714  0.04100  1.0000
  C   C651      1.0  0.88503  0.55515  0.02762  1.0000
  C   C652      1.0  0.90015  0.56733  0.05122  1.0000
  C   C653      1.0  0.90212  0.56144  0.08759  1.0000
  H   H1019     1.0  0.86354  0.51736  0.08728  1.0000
  H   H1020     1.0  0.86014  0.52752  0.02293  1.0000
  H   H1021     1.0  0.91050  0.58118  0.04134  1.0000
  H   H1022     1.0  0.91401  0.57088  0.10547  1.0000
  C   C654      1.0  0.87367  0.53967  0.36489  1.0000
  C   C655      1.0  0.87314  0.52462  0.38885  1.0000
  C   C656      1.0  0.87763  0.52887  0.42699  1.0000
  C   C657      1.0  0.88281  0.54818  0.44156  1.0000
  C   C658      1.0  0.88316  0.56314  0.41758  1.0000
  C   C659      1.0  0.87851  0.55887  0.37966  1.0000
  H   H1023     1.0  0.86942  0.50976  0.37797  1.0000
  H   H1024     1.0  0.87723  0.51712  0.44521  1.0000
  H   H1025     1.0  0.88704  0.57806  0.42801  1.0000
  H   H1026     1.0  0.87889  0.57061  0.36141  1.0000
  C   C660      1.0  0.85171  0.38650  0.24228  1.0000
  C   C661      1.0  0.86183  0.40501  0.25979  1.0000
  C   C662      1.0  0.85807  0.42193  0.24981  1.0000
  C   C663      1.0  0.84406  0.42060  0.22209  1.0000
  C   C664      1.0  0.83403  0.40211  0.20437  1.0000
  C   C665      1.0  0.83783  0.38520  0.21428  1.0000
  H   H1027     1.0  0.87263  0.40626  0.28144  1.0000
  H   H1028     1.0  0.86591  0.43595  0.26379  1.0000
  H   H1029     1.0  0.82319  0.40082  0.18282  1.0000
  H   H1030     1.0  0.82988  0.37114  0.20051  1.0000
  N   N64       1.0  0.88946  0.37566  0.15593  1.0000
  C   C666      1.0  0.93564  0.57565  0.44167  1.0000
  C   C667      1.0  0.90000  0.37667  0.12099  1.0000
  C   C668      1.0  0.89136  0.39570  0.16823  1.0000
  H   H1031     1.0  0.91597  0.38583  0.12448  1.0000
  H   H1032     1.0  0.79630  0.41729  0.19616  1.0000
  H   H1033     1.0  0.91386  0.37578  0.19003  1.0000
  H   H1034     1.0  0.75200  0.42960  0.17892  1.0000
  H   H1035     1.0  0.82930  0.56420  0.42129  1.0000
  S   S263      1.0  0.87410  0.32325  0.23447  1.0000
  H   H1036     1.0  0.94839  0.61040  0.40872  1.0000
  H   H1037     1.0  0.90705  0.40557  0.17270  1.0000
  H   H1038     1.0  0.89389  0.38314  0.09860  1.0000
  H   H1039     1.0  0.89871  0.36165  0.11124  1.0000
  C   C669      1.0  0.75856  0.43324  0.20735  1.0000
  H   H1040     1.0  0.77216  0.40386  0.21315  1.0000
  N   N65       1.0  0.77939  0.43508  0.20836  1.0000
  N   N66       1.0  0.94444  0.57971  0.40468  1.0000
  H   H1041     1.0  0.92580  0.58385  0.44667  1.0000
  H   H1042     1.0  0.94774  0.32077  0.39685  1.0000
  H   H1043     1.0  0.81511  0.58121  0.46671  1.0000
  H   H1044     1.0  0.91953  0.58370  0.37913  1.0000
  H   H1045     1.0  0.84183  0.54891  0.43784  1.0000
  H   H1046     1.0  0.91848  0.55876  0.37751  1.0000
  S   S264      1.0  0.96696  0.62984  0.48561  1.0000
  H   H1047     1.0  0.92654  0.55969  0.44479  1.0000
  C   C670      1.0  0.92861  0.57452  0.37598  1.0000
  H   H1048     1.0  0.75709  0.44726  0.21628  1.0000
  H   H1049     1.0  0.88463  0.40264  0.14769  1.0000
  H   H1050     1.0  0.86136  0.36953  0.12874  1.0000
  C   C671      1.0  0.73950  0.48188  0.23912  1.0000
  S   S265      1.0  0.90849  0.60960  0.48025  1.0000
  C   C672      1.0  0.78737  0.43963  0.24668  1.0000
  H   H1051     1.0  0.78651  0.45362  0.25745  1.0000
  C   C673      1.0  0.79097  0.45115  0.18397  1.0000
  S   S266      1.0  0.83563  0.31907  0.18282  1.0000
  H   H1052     1.0  0.80666  0.45269  0.18349  1.0000
  Fe  Fe134     1.0  0.84835  0.33306  0.23798  1.0000
  N   N67       1.0  0.83377  0.55434  0.12141  1.0000
  C   C674      1.0  0.85535  0.56493  0.12486  1.0000
  C   C675      1.0  0.82931  0.53331  0.11212  1.0000
  C   C676      1.0  0.82580  0.56314  0.09176  1.0000
  C   C677      1.0  0.82459  0.55592  0.15687  1.0000
  H   H1053     1.0  0.85930  0.58068  0.13313  1.0000
  H   H1054     1.0  0.86265  0.56462  0.09818  1.0000
  H   H1055     1.0  0.86199  0.55815  0.14596  1.0000
  H   H1056     1.0  0.81313  0.52470  0.11071  1.0000
  H   H1057     1.0  0.83543  0.53150  0.08495  1.0000
  H   H1058     1.0  0.83564  0.52636  0.13338  1.0000
  H   H1059     1.0  0.82888  0.57901  0.09784  1.0000
  H   H1060     1.0  0.80954  0.55542  0.08837  1.0000
  H   H1061     1.0  0.83246  0.56220  0.06461  1.0000
  H   H1062     1.0  0.80830  0.54792  0.15535  1.0000
  H   H1063     1.0  0.82762  0.57155  0.16491  1.0000
  H   H1064     1.0  0.83017  0.54926  0.17975  1.0000
  H   H1065     1.0  0.80314  0.44130  0.24828  1.0000
  C   C678      1.0  0.78074  0.41634  0.19543  1.0000
  H   H1066     1.0  0.93463  0.57680  0.34758  1.0000
  H   H1067     1.0  0.96853  0.57115  0.41996  1.0000
  H   H1068     1.0  0.77508  0.41254  0.16645  1.0000
  H   H1069     1.0  0.79073  0.46560  0.19344  1.0000
  H   H1070     1.0  0.96360  0.57059  0.37098  1.0000
  H   H1071     1.0  0.74941  0.42152  0.22600  1.0000
  C   C679      1.0  0.86842  0.36326  0.14987  1.0000
  C   C680      1.0  0.89798  0.36687  0.18468  1.0000
  H   H1072     1.0  0.94712  0.58018  0.46417  1.0000
  H   H1073     1.0  0.86006  0.36192  0.17583  1.0000
  H   H1074     1.0  0.88378  0.39530  0.19491  1.0000
  H   H1075     1.0  0.96940  0.60523  0.42310  1.0000
  H   H1076     1.0  0.89033  0.36584  0.21144  1.0000
  H   H1077     1.0  0.94750  0.55167  0.39955  1.0000
  C   C681      1.0  0.82970  0.55416  0.44389  1.0000
  H   H1078     1.0  0.85133  0.59232  0.45943  1.0000
  H   H1079     1.0  0.96329  0.60474  0.37467  1.0000
  N   N68       1.0  0.83265  0.56424  0.48056  1.0000
  H   H1080     1.0  0.83284  0.62745  0.47063  1.0000
  C   C682      1.0  0.85128  0.58164  0.48112  1.0000
  H   H1081     1.0  0.81564  0.54105  0.44228  1.0000
  H   H1082     1.0  0.86414  0.57736  0.47669  1.0000
  H   H1083     1.0  0.73065  0.53627  0.07312  1.0000
  C   C683      1.0  0.81612  0.57069  0.48787  1.0000
  H   H1084     1.0  0.80175  0.55798  0.48771  1.0000
  Fe  Fe135     1.0  0.90698  0.60621  0.87168  1.0000
  S   S267      1.0  0.92094  0.63770  0.89224  1.0000
  S   S268      1.0  0.89634  0.59518  0.81207  1.0000
  Fe  Fe136     1.0  0.89901  0.59069  0.95279  1.0000
  H   H1085     1.0  0.84507  0.61968  0.78078  1.0000
  Fe  Fe137     1.0  0.89539  0.62957  0.93149  1.0000
  H   H1086     1.0  0.96935  0.65129  0.55786  1.0000
  Fe  Fe138     1.0  0.93637  0.62669  0.93657  1.0000
  H   H1087     1.0  0.87832  0.62773  0.86307  1.0000
  S   S269      1.0  0.88113  0.59877  0.90955  1.0000
  S   S270      1.0  0.92372  0.59529  0.91315  1.0000
  Fe  Fe139     1.0  0.75776  0.61934  0.93507  1.0000
  H   H1088     1.0  0.77432  0.64329  0.52966  1.0000
  Fe  Fe140     1.0  0.89436  0.62166  0.52430  1.0000
  S   S271      1.0  0.88614  0.59521  0.56060  1.0000
  C   C684      1.0  0.88382  0.64017  0.79312  1.0000
  Fe  Fe141     1.0  0.93700  0.62302  0.51285  1.0000
  S   S272      1.0  0.93035  0.59622  0.54780  1.0000
  H   H1089     1.0  0.81982  0.53720  0.51004  1.0000
  Fe  Fe142     1.0  0.90124  0.58375  0.51692  1.0000
  Fe  Fe143     1.0  0.91625  0.61076  0.58776  1.0000
  S   S273      1.0  0.92887  0.61741  0.64761  1.0000
  S   S274      1.0  0.92370  0.63813  0.55331  1.0000
  Fe  Fe144     1.0  0.75651  0.60860  0.55871  1.0000
  S   S275      1.0  0.78845  0.61565  0.57697  1.0000
  C   C685      1.0  0.84749  0.62557  0.52181  1.0000
  H   H1090     1.0  0.97522  0.62064  0.56279  1.0000
  H   H1091     1.0  0.85814  0.53303  0.91504  1.0000
  C   C686      1.0  0.81040  0.61786  0.55407  1.0000
  C   C687      1.0  0.82670  0.61834  0.57566  1.0000
  C   C688      1.0  0.84507  0.62185  0.55957  1.0000
  H   H1092     1.0  0.82520  0.61627  0.60521  1.0000
  H   H1093     1.0  0.85755  0.62250  0.57672  1.0000
  C   C689      1.0  0.86634  0.54218  0.89187  1.0000
  H   H1094     1.0  0.85556  0.54163  0.86943  1.0000
  C   C690      1.0  0.90558  0.60213  0.76666  1.0000
  C   C691      1.0  0.89344  0.59318  0.73562  1.0000
  C   C692      1.0  0.90010  0.59787  0.69912  1.0000
  C   C693      1.0  0.91914  0.61150  0.69302  1.0000
  C   C694      1.0  0.93123  0.62056  0.72409  1.0000
  C   C695      1.0  0.92449  0.61603  0.76060  1.0000
  H   H1095     1.0  0.87878  0.58242  0.73977  1.0000
  H   H1096     1.0  0.89058  0.59071  0.67571  1.0000
  H   H1097     1.0  0.94598  0.63112  0.71993  1.0000
  H   H1098     1.0  0.93407  0.62307  0.78400  1.0000
  S   S276      1.0  0.78830  0.64390  0.93651  1.0000
  H   H1099     1.0  0.86230  0.51386  0.84068  1.0000
  S   S277      1.0  0.73570  0.62293  0.89448  1.0000
  H   H1100     1.0  0.95816  0.64834  0.60243  1.0000
  C   C696      1.0  0.81680  0.62621  0.93481  1.0000
  C   C697      1.0  0.83670  0.62747  0.93457  1.0000
  H   H1101     1.0  0.86452  0.50492  0.88593  1.0000
  S   S278      1.0  0.74937  0.58717  0.92149  1.0000
  H   H1102     1.0  0.80482  0.61196  0.93469  1.0000
  H   H1103     1.0  0.83989  0.61417  0.93431  1.0000
  H   H1104     1.0  0.85243  0.62237  0.86380  1.0000
  S   S279      1.0  0.96926  0.63615  0.95390  1.0000
  N   N69       1.0  0.88191  0.53560  0.87848  1.0000
  H   H1105     1.0  0.89985  0.56420  0.85878  1.0000
  C   C698      1.0  0.89572  0.53655  0.90940  1.0000
  C   C699      1.0  0.89273  0.54862  0.84867  1.0000
  S   S280      1.0  0.73723  0.61453  0.98323  1.0000
  H   H1106     1.0  0.87273  0.55763  0.90272  1.0000
  H   H1107     1.0  0.80001  0.61979  0.49880  1.0000
  H   H1108     1.0  0.88415  0.50961  0.85370  1.0000
  H   H1109     1.0  0.90752  0.53138  0.90063  1.0000
  C   C700      1.0  0.81251  0.62048  0.51587  1.0000
  S   S281      1.0  0.88223  0.56146  0.98109  1.0000
  H   H1110     1.0  0.90456  0.54412  0.83763  1.0000
  H   H1111     1.0  0.83607  0.55776  0.53749  1.0000
  H   H1112     1.0  0.88275  0.54866  0.82511  1.0000
  C   C701      1.0  0.81255  0.64350  0.93564  1.0000
  S   S282      1.0  0.74225  0.62737  0.58636  1.0000
  S   S283      1.0  0.74203  0.60903  0.50347  1.0000
  C   C702      1.0  0.87282  0.51507  0.86404  1.0000
  S   S284      1.0  0.73304  0.58053  0.57739  1.0000
  H   H1113     1.0  0.90306  0.55190  0.92060  1.0000
  C   C703      1.0  0.86488  0.62388  0.84521  1.0000
  H   H1114     1.0  0.88796  0.52745  0.93301  1.0000
  S   S285      1.0  0.91191  0.62138  0.97775  1.0000
  C   C704      1.0  0.83364  0.55054  0.50950  1.0000
  S   S286      1.0  0.87091  0.63217  0.50146  1.0000
  N   N70       1.0  0.86747  0.63923  0.81755  1.0000
  H   H1115     1.0  0.86211  0.60920  0.83192  1.0000
  H   H1116     1.0  0.88068  0.62586  0.77803  1.0000
  H   H1117     1.0  0.89780  0.64336  0.80929  1.0000
  C   C705      1.0  0.85234  0.64602  0.93510  1.0000
  C   C706      1.0  0.83110  0.62470  0.49995  1.0000
  H   H1118     1.0  0.96306  0.61643  0.60644  1.0000
  H   H1119     1.0  0.84605  0.54547  0.50479  1.0000
  C   C707      1.0  0.84907  0.63426  0.79533  1.0000
  S   S287      1.0  0.87784  0.64960  0.93411  1.0000
  H   H1120     1.0  0.85050  0.64549  0.77400  1.0000
  H   H1121     1.0  0.83648  0.63342  0.81313  1.0000
  H   H1122     1.0  0.97449  0.64156  0.65665  1.0000
  H   H1123     1.0  0.88652  0.65181  0.77214  1.0000
  C   C708      1.0  0.97760  0.62361  0.59318  1.0000
  H   H1124     1.0  0.81798  0.57843  0.51534  1.0000
  H   H1125     1.0  0.85373  0.58970  0.50819  1.0000
  H   H1126     1.0  0.73321  0.65184  0.96404  1.0000
  S   S288      1.0  0.88874  0.55299  0.48966  1.0000
  H   H1127     1.0  0.79832  0.65175  0.51054  1.0000
  H   H1128     1.0  0.76939  0.70090  0.99442  1.0000
  H   H1129     1.0  0.74550  0.66684  0.00351  1.0000
  C   C709      1.0  0.75338  0.67645  0.91222  1.0000
  H   H1130     1.0  0.78642  0.65495  0.59225  1.0000
  H   H1131     1.0  0.81073  0.66148  0.57510  1.0000
  H   H1132     1.0  0.75721  0.68961  0.89449  1.0000
  H   H1133     1.0  0.86019  0.65811  0.85599  1.0000
  C   C710      1.0  0.84785  0.66303  0.93562  1.0000
  H   H1134     1.0  0.77976  0.65982  0.49162  1.0000
  H   H1135     1.0  0.73932  0.66521  0.90108  1.0000
  H   H1136     1.0  0.85967  0.67740  0.93610  1.0000
  H   H1137     1.0  0.87418  0.67054  0.81703  1.0000
  H   H1138     1.0  0.77414  0.71052  0.94856  1.0000
  H   H1139     1.0  0.81412  0.70273  0.54798  1.0000
  H   H1140     1.0  0.78269  0.69154  0.96274  1.0000
  H   H1141     1.0  0.78001  0.69241  0.57096  1.0000
  H   H1142     1.0  0.82533  0.67523  0.93662  1.0000
  C   C711      1.0  0.77576  0.67967  0.55105  1.0000
  C   C712      1.0  0.79872  0.66715  0.57948  1.0000
  C   C713      1.0  0.73536  0.68891  0.95472  1.0000
  H   H1143     1.0  0.73823  0.70251  0.93862  1.0000
  H   H1144     1.0  0.75912  0.65780  0.97202  1.0000
  N   N71       1.0  0.75154  0.68153  0.95138  1.0000
  H   H1145     1.0  0.76503  0.67016  0.90898  1.0000
  N   N72       1.0  0.79233  0.67322  0.54429  1.0000
  H   H1146     1.0  0.80412  0.67957  0.60008  1.0000
  C   C714      1.0  0.82828  0.66179  0.93591  1.0000
  C   C715      1.0  0.77027  0.69684  0.96486  1.0000
  H   H1147     1.0  0.80467  0.69438  0.50197  1.0000
  C   C716      1.0  0.74716  0.66374  0.97377  1.0000
  C   C717      1.0  0.87213  0.65849  0.83686  1.0000
  C   C718      1.0  0.80896  0.68965  0.52879  1.0000
  H   H1148     1.0  0.82175  0.68526  0.52363  1.0000
  H   H1149     1.0  0.77034  0.68407  0.52498  1.0000
  H   H1150     1.0  0.88586  0.66256  0.85421  1.0000
  C   C719      1.0  0.97250  0.65422  0.58806  1.0000
  H   H1151     1.0  0.76294  0.66760  0.56261  1.0000
  C   C720      1.0  0.78591  0.65633  0.51773  1.0000
  H   H1152     1.0  0.73317  0.69238  0.98407  1.0000
