data_image0
_chemical_formula_structural       H3FeS2FeS2FeSFeS3FeSHFeS2FeSFeS3CFeSNHCSFeS2FeS2FeS2FeHFeS3FeS2FeS2FeSFeS3HC2H2C6H5C2SH3C7H4C4H3CFeC6H4C6H4C6H4CH6C2HCH2NC2HNH6CH2C3HC4NC4H12NC4H12NC3H8CH2NCHCH2SCHCHNH4CH3CH2CHCH3CH4C3H2CHNH2CH5CH2CHCHC2H10SCNHCHC2H3C2HCH2CH3CH4CHSH2CH4FeHCHC4HCH2FeS2FeSFeSHS2FeSFeSH2FeSFeS2FeS2Fe2S3FeHSFeHSN2FeCS2FeSH2C6H3SC6H2SC4HCH3C7H4C2H4CHCH2C3HCH5C2HC3H3CH2NHC3SHSFeCHCH2SH5CH3NC4H8SH2CSCH6CH2CH2NC4H12CNC3S2HC5HCSCH2SH8FeH2NH5FeH4CHC2H5CNH4CHCHCSC4HCSFeSFeSCFeSFeHSFeS2FeS2FeSFeS3FeS2FeS2FeSFeS3FeSHFeS2FeSFeS3HC6HCH3CH2C4H2C7H4C6H4CH2CHC2H3CHC3H4C6H4CH8C2HCHCH3CHCH2CH2CH5CH2CHC2NH10CHCH4CHCH2SH2CN2H3SC2H3CH2CNC4H12NC2HCH2SNCSH3NCHSCH2CH5CH6CNHCH2SFe2HCS3HCHCHNSH2C2SHC2H6SCN2H3FeH4CHCH2C2HC3HCHCH2FeH13S2H2FeSC3NC2SH5CHCH2C3H3CFeCH2NH6CH3FeNHCH3C2H2SC2SH3C2SCSH3CH2CH3FeSH2SFeSFeSHSFeS2FeS2FeHFeHS2FeS2FeSHFeSFeS3FeS2FeS2FeSFeS3CHSH2CH2CH2CH2NH3CH2C2HC2H3C6H4C6H5CHC5H6NC7H4C7H6C6H2SH3CHCSH2NC4H12CH2CHSHSNH2NC4H12C3HCHNH3FeHSNH2CHCH3C3HC2H6C3H4CHSFeS2CFeS2HFeS2FeSHFeSFeS3FeS2FeS2FeSFeS3FeS2FeS2FeHFeS3H6CHCH3C6H3C2HC6H4SHCHCHNHC3HC2H2CH2FeHC6H5C6H4CHC2H3C2H3C2HCHC3NH2CHC2H3SH2C2H9NHCH7CHCNC4H12NC4H9CH5CHSC2H2C2H3NHCH2CH7NHCH2CHSCHSFeSHSFeH2SFeS2FeS2FeSFeS3FeS2FeS2FeSFeS3CSHFeS2FeSFeSHSFeS2FeS2FeSFeS3HCHC4HNH2CHC7H3FeH2CH2CHC6H4SC2HCH2C6H4C3HC7H4C5H7CHCH2C3H5CHCFeNHCH2C2HCH2CHCNC4H10CH2CFeH3C2HCNCSHCHSH4C2H3C2H4NC5H5C2HFeH2NC2HCHCH4CHCH3CH2C2HNH5NH5C2H4CHCHNH2NC4H19SHCH11FeS2FeSNFeSFeS3FeNHFeS2FeHFeHS2CH4C2H3CSHCNHCH2CSHC2HSH2CH3C6H6NCHCNHSH5C2H3C3H5CSC2H2SCH5C3H4CH2CH2CH3CH2C2HSH3CHC3H3CH2CH3C3NSH3SH2SC2HFeSHSFeS2FeSHCFeS3FeS2FeS2FeSFeS3FeS2FeS2FeSFeS3C6H4C6H4CSHC2HNFeH2C6H4C4H2NHNC2H6CHC2H3CFeH2C3NH5CHCHFeCH3C2H4C2NC4H13C3H2N2C4H12CH3CHCHCH5SH2CHCH3CH3CH4CH4C2H2CH4CH4C6H5CH2NHCHCHSNH4CH7CH5CFeNFeS2FeCS2FeS2FeSHFeSHSCHCHFeH2CFeSFeS2FeS2HSHSFe2SFeSHS3HCSHFeSH2SCFeS2FeS2FeSFeHS3CHC4H2CH7SH2CH2C3H2C6H4C6H4SHC3FeHSHCH4C6H3C7H4CHC4H7CHCHCN2H2CH2CHSHNHCH3C3HCH3C2HCHSH2SH5CHSH3CH2NC4H9NHFeHCH2CHFeH2SH3SCSC3NHCH5SCHCHCH3CHFeC3H4SCHNFeHFeHSHCH3C2HCHC3HCH3C2H4CH3CH2CSNCHSCHSH4C2H6FeS2FeS2FeHFeS3FeS2FeSH2FeS2FeS2FeS2FeHFeS3FeSCFeS2FeSFeSFeS2FeSCFeSFeSHSFeS2FeS2FeSFeSHC7H4C2HC3HCH6C6H4C6H3C6H5C6H4C6H4CHCSC4H3CHC2H4CHCH2CNHCH6C2HC2H3C2HSHCNSHNH6CNC3H13CH4FeHCSH2C2HSH3SH2C2NHCHSC2HCH6CH4CHNCHCH3NC4H13SC2HCHCHCH2CH4CNHSCHCH2C2H2C2H2CH2CH3SH2C2H8CSH4CNH5CH8CNH2CNCHCSC2H4C2H3C2H4CHNC2H2SHC2FeS2FeSHFeSFeS3FeHCFeS2FeHFeS3FeS2FeS2FeSFeS3FeSCFeHSFeCFeHS2H3C8HCH2C6H6C6H2CHC6H2SHCH2C2H3C3H2CSH7CH7NCHNHCH3NC2H6CHCH12CHC2HCNCH2C2H2CSH3CH5C2NH7C2H2NHCNC2H2CH2CH2CHSH7CH2CH3CH2CH2S2HCHCFeSFeS2FeSFeH2FeHCS2CHFeCH2FeH2CH2CHC5H2C4H3CH2C2SH2SC2FeH3CSHSH6CH2CHNH3CH5NSH6CNS2H2NH2C2HCSCHCH3CH3CHCSHCHCH2CH3FeS2H3SFeS2FeS2Fe2S3FeS2FeSHFeSFeS3FeSHFeS2FeSFeS3FeSCFeS2FeSFeS3CHCHSC6H6C6H4C6H4C6H3CNHC4H2C6H6CHCH4C3HCH3NH2CHNCH3CH3NHNC4H12NC4H13CSCNC2H5CH5C3H4CH2C2SCH2SH3NHCHCH3C6FeH2CHCH3CFeCSHCHNHSH2CHCH2CHCH3CH5C3H2C2H3FeHCH4NH2CHCH2C2SH4CH6CHCH4SHSC2FeS3FeSCS2HSHFeSFeCSHNSFeS2FeS2FeSFeS3FeS2FeS2FeSFeS3C3H2CH4C2HFeHCH2SHC3HCH4C6H4C6H2CHC6H4C2SH2CHCHSH5C6H6CSCH2CH4CHSHCHSHCNH2CHCH2C2HFeHCHCH3CH2CNC2HC3H2C2SH5CHC3H4CH2CNH3C2FeHC2HC4H3CH3NHNHNFeHNC4H12CHCNCH2CH2CH2CHCHNC4H14CHC2H2SH6CH2CHCH4CHFeSHSH2FeS2FeSFe2S3H2C2FeS2FeS2FeSFeS3FeS2FeS2FeSFeS4FeS2FeS2FeSFeS3CHC2H3C6H4CHC6H4C6H5CHCHNHCHC3H2CHC2HCHCH3C3H3CHC2HC6H4CHCH3SCH2CNC3SH9NC4H12CHCHCNH2CH2CHNCHC3H2NHCH7NH8CH11CH3C2H3C2FeH2CH2CHCH2C3H2C2H3CHSHFeSCFeSFeSNSHC2H2CHCH4FeC2SH4SH5CH4CH5C5H3CH3CH2NSCN2HC2H3C2H2CH5CH5C8HSH2C2H3CH2SH4CFeH2FeS2FeSHSCH2CH3C2HC2SH2CHC2H3CHCH6NCHSCH3C2H2CSH4SC4NHC2H3FeH3NH3C4HC2H6C4FeS2H3FeHSCHS2FeS2FeS2FeSFeS3FeS2FeS2FeHFeHS2HC2SNHSCH3C2HC4H3C6H2CHC6H4C6H5C2HCH3C2H2FeHCH2CFeH2NH7FeHCS2C2HCH5CSHN2H2C2H4SH2CHCH3CH4C3HS2C4H4CHC2SFeCH14SH4SNHCFeS2FeSFeSFeS3FeS2FeSHFeSFeS3HFeHSFeHCSC2SFeS2FeSFeSFeS3FeC2HCHC5H2SH6FeHSH3CHC2HC6H9C6H4NH3C6H4C2HC2H4CH3CSC2NHSHNC4H12CHCHC2H12CHCH3C2H2C2HSH2C2H3C2NH4CH3CH2CHSHNH3CNH2CH3C5HC2H3CH4NCHC2SCHCH2CH2C2HNHCHCH3CH2CSH6FeSHFeS2FeSFeSHFeS2FeSHFeSFeS3FeS2FeS2FeSFeS3HCH2FeS2FeS2FeSFeS3FeS2FeS2FeSFeS3C6H4C6H3CHC5H3C6H5CHC6H4C6H10CH4C6H4CHSC2H6C2HCH2C2H4C2NC4H12NC4H12NC4H10CNSCHCH2C2H3CH4C2HC4H4CNFeH3NH3NHNCH3C2H3CHC2NCHSH4C2H3CH5C3HC3HSC2H3NH3CHCHC2HC3HCH2SHC2H
_chemical_formula_sum              "H2560 Fe320 S640 C1600 N160"
_cell_length_a       56.8388
_cell_length_b       56.8177
_cell_length_c       102.016
_cell_angle_alpha    78.8069
_cell_angle_beta     78.6381
_cell_angle_gamma    78.6012

_space_group_name_H-M_alt    "P 1"
_space_group_IT_number       1

loop_
  _space_group_symop_operation_xyz
  'x, y, z'

loop_
  _atom_site_type_symbol
  _atom_site_label
  _atom_site_symmetry_multiplicity
  _atom_site_fract_x
  _atom_site_fract_y
  _atom_site_fract_z
  _atom_site_occupancy
  H   H1        1.0  0.23002  0.45855  0.03129  1.0000
  H   H2        1.0  0.25358  0.10518  0.14399  1.0000
  H   H3        1.0  0.13176  0.02137  0.98769  1.0000
  Fe  Fe1       1.0  0.20459  0.19251  0.11355  1.0000
  S   S1        1.0  0.24150  0.19012  0.10055  1.0000
  S   S2        1.0  0.17103  0.20807  0.10384  1.0000
  Fe  Fe2       1.0  0.22580  0.17680  0.13985  1.0000
  S   S3        1.0  0.26413  0.17418  0.12874  1.0000
  S   S4        1.0  0.22253  0.16859  0.16267  1.0000
  Fe  Fe3       1.0  0.25101  0.20905  0.11575  1.0000
  S   S5        1.0  0.27378  0.23888  0.10775  1.0000
  Fe  Fe4       1.0  0.25100  0.15561  0.11482  1.0000
  S   S6        1.0  0.27352  0.11958  0.11093  1.0000
  S   S7        1.0  0.21361  0.21357  0.12797  1.0000
  S   S8        1.0  0.21318  0.15610  0.12667  1.0000
  Fe  Fe5       1.0  0.28883  0.39639  0.10203  1.0000
  S   S9        1.0  0.26638  0.43218  0.10591  1.0000
  H   H4        1.0  0.00748  0.35544  0.01178  1.0000
  Fe  Fe6       1.0  0.25984  0.36713  0.12580  1.0000
  S   S10       1.0  0.23511  0.40090  0.13171  1.0000
  S   S11       1.0  0.25209  0.33073  0.13778  1.0000
  Fe  Fe7       1.0  0.23473  0.41201  0.10927  1.0000
  S   S12       1.0  0.19973  0.42717  0.10081  1.0000
  Fe  Fe8       1.0  0.26905  0.41774  0.12787  1.0000
  S   S13       1.0  0.28475  0.43710  0.14092  1.0000
  S   S14       1.0  0.25719  0.37719  0.10380  1.0000
  S   S15       1.0  0.29384  0.38292  0.12360  1.0000
  C   C1        1.0  0.23465  0.45121  0.20550  1.0000
  Fe  Fe9       1.0  0.29089  0.01827  0.22202  1.0000
  S   S16       1.0  0.25585  0.00861  0.21937  1.0000
  N   N1        1.0  0.16631  0.03681  0.22202  1.0000
  H   H5        1.0  0.17521  0.43015  0.03558  1.0000
  C   C2        1.0  0.24391  0.46656  0.15248  1.0000
  S   S17       1.0  0.18306  0.05543  0.98613  1.0000
  Fe  Fe10      1.0  0.24651  0.04866  0.21154  1.0000
  S   S18       1.0  0.22655  0.05978  0.19356  1.0000
  S   S19       1.0  0.28255  0.05788  0.21286  1.0000
  Fe  Fe11      1.0  0.12643  0.17362  0.04345  1.0000
  S   S20       1.0  0.13591  0.20023  0.02464  1.0000
  S   S21       1.0  0.15149  0.15567  0.05849  1.0000
  Fe  Fe12      1.0  0.07774  0.16983  0.03612  1.0000
  S   S22       1.0  0.08345  0.19580  0.01667  1.0000
  S   S23       1.0  0.04537  0.15072  0.04473  1.0000
  Fe  Fe13      1.0  0.12202  0.17564  0.01408  1.0000
  H   H6        1.0  0.29472  0.19284  0.09671  1.0000
  Fe  Fe14      1.0  0.09664  0.21785  0.02894  1.0000
  S   S24       1.0  0.07959  0.25715  0.02955  1.0000
  S   S25       1.0  0.11517  0.14794  0.03258  1.0000
  S   S26       1.0  0.08840  0.19304  0.04866  1.0000
  Fe  Fe15      1.0  0.13443  0.42081  0.02537  1.0000
  S   S27       1.0  0.11671  0.41557  0.04730  1.0000
  S   S28       1.0  0.14368  0.45841  0.01680  1.0000
  Fe  Fe16      1.0  0.13500  0.36825  0.02293  1.0000
  S   S29       1.0  0.11780  0.35908  0.04452  1.0000
  S   S30       1.0  0.14728  0.33752  0.01091  1.0000
  Fe  Fe17      1.0  0.09284  0.39459  0.04044  1.0000
  S   S31       1.0  0.05306  0.39456  0.04932  1.0000
  Fe  Fe18      1.0  0.14316  0.38067  0.04919  1.0000
  S   S32       1.0  0.16683  0.36389  0.06508  1.0000
  S   S33       1.0  0.10839  0.40253  0.01835  1.0000
  S   S34       1.0  0.16253  0.38719  0.02779  1.0000
  H   H7        1.0  0.26422  0.06637  0.16891  1.0000
  C   C3        1.0  0.03146  0.39621  0.03877  1.0000
  C   C4        1.0  0.03514  0.40642  0.02504  1.0000
  H   H8        1.0  0.15387  0.34446  0.11702  1.0000
  H   H9        1.0  0.05214  0.41264  0.02046  1.0000
  C   C5        1.0  0.09845  0.27934  0.02386  1.0000
  C   C6        1.0  0.08978  0.30291  0.02681  1.0000
  C   C7        1.0  0.10459  0.32093  0.02269  1.0000
  C   C8        1.0  0.12807  0.31550  0.01548  1.0000
  C   C9        1.0  0.13660  0.29204  0.01232  1.0000
  C   C10       1.0  0.12187  0.27390  0.01659  1.0000
  H   H10       1.0  0.07169  0.30719  0.03244  1.0000
  H   H11       1.0  0.09774  0.33909  0.02498  1.0000
  H   H12       1.0  0.15469  0.28784  0.00665  1.0000
  H   H13       1.0  0.12856  0.25582  0.01415  1.0000
  H   H14       1.0  0.28820  0.41270  0.19971  1.0000
  C   C11       1.0  0.02071  0.15660  0.03568  1.0000
  C   C12       1.0  0.02132  0.17218  0.02324  1.0000
  S   S35       1.0  0.31957  0.39228  0.08461  1.0000
  H   H15       1.0  0.08571  0.11693  0.00994  1.0000
  H   H16       1.0  0.03626  0.18207  0.01945  1.0000
  H   H17       1.0  0.19450  0.44395  0.06575  1.0000
  C   C13       1.0  0.27010  0.48175  0.16902  1.0000
  C   C14       1.0  0.19099  0.41069  0.09008  1.0000
  C   C15       1.0  0.16687  0.41536  0.08771  1.0000
  C   C16       1.0  0.15939  0.40173  0.07959  1.0000
  C   C17       1.0  0.17600  0.38326  0.07392  1.0000
  C   C18       1.0  0.20018  0.37900  0.07603  1.0000
  C   C19       1.0  0.20771  0.39289  0.08391  1.0000
  H   H18       1.0  0.15384  0.42924  0.09236  1.0000
  H   H19       1.0  0.14061  0.40501  0.07809  1.0000
  H   H20       1.0  0.21316  0.36487  0.07157  1.0000
  H   H21       1.0  0.22652  0.38986  0.08511  1.0000
  C   C20       1.0  0.26876  0.45751  0.15194  1.0000
  C   C21       1.0  0.28176  0.46519  0.16025  1.0000
  C   C22       1.0  0.18307  0.42780  0.04500  1.0000
  C   C23       1.0  0.21805  0.46712  0.99103  1.0000
  H   H22       1.0  0.29000  0.14421  0.02759  1.0000
  H   H23       1.0  0.23736  0.45663  0.21494  1.0000
  H   H24       1.0  0.14085  0.01284  0.22306  1.0000
  C   C24       1.0  0.31011  0.01243  0.99984  1.0000
  Fe  Fe19      1.0  0.26568  0.06384  0.23422  1.0000
  C   C25       1.0  0.16635  0.19395  0.09085  1.0000
  C   C26       1.0  0.14802  0.20501  0.08312  1.0000
  C   C27       1.0  0.14377  0.19389  0.07282  1.0000
  C   C28       1.0  0.15753  0.17138  0.07042  1.0000
  C   C29       1.0  0.17579  0.16035  0.07817  1.0000
  C   C30       1.0  0.18037  0.17169  0.08826  1.0000
  H   H25       1.0  0.13703  0.22214  0.08518  1.0000
  H   H26       1.0  0.12962  0.20249  0.06691  1.0000
  H   H27       1.0  0.18643  0.14290  0.07638  1.0000
  H   H28       1.0  0.19447  0.16302  0.09420  1.0000
  C   C31       1.0  0.22352  0.13828  0.17111  1.0000
  C   C32       1.0  0.21487  0.12106  0.16601  1.0000
  C   C33       1.0  0.21541  0.09717  0.17313  1.0000
  C   C34       1.0  0.22506  0.09021  0.18523  1.0000
  C   C35       1.0  0.23387  0.10735  0.19028  1.0000
  C   C36       1.0  0.23281  0.13137  0.18331  1.0000
  H   H29       1.0  0.20734  0.12631  0.15672  1.0000
  H   H30       1.0  0.20840  0.08404  0.16921  1.0000
  H   H31       1.0  0.24130  0.10221  0.19960  1.0000
  H   H32       1.0  0.23937  0.14466  0.18736  1.0000
  C   C37       1.0  0.26840  0.26393  0.11644  1.0000
  C   C38       1.0  0.25404  0.26347  0.12927  1.0000
  C   C39       1.0  0.25003  0.28370  0.13596  1.0000
  C   C40       1.0  0.25993  0.30469  0.12977  1.0000
  C   C41       1.0  0.27454  0.30504  0.11699  1.0000
  C   C42       1.0  0.27882  0.28467  0.11038  1.0000
  H   H33       1.0  0.24616  0.24746  0.13410  1.0000
  H   H34       1.0  0.23888  0.28320  0.14588  1.0000
  H   H35       1.0  0.28236  0.32108  0.11215  1.0000
  H   H36       1.0  0.29005  0.28512  0.10048  1.0000
  C   C43       1.0  0.00060  0.14464  0.04074  1.0000
  H   H37       1.0  0.22499  0.40671  0.21659  1.0000
  H   H38       1.0  0.23373  0.46085  0.14608  1.0000
  H   H39       1.0  0.09854  0.11209  0.98620  1.0000
  H   H40       1.0  0.30958  0.08112  0.10154  1.0000
  H   H41       1.0  0.22009  0.42392  0.05841  1.0000
  H   H42       1.0  0.27572  0.04188  0.15949  1.0000
  C   C44       1.0  0.18710  0.44167  0.00117  1.0000
  C   C45       1.0  0.17255  0.46103  0.00704  1.0000
  H   H43       1.0  0.16854  0.47289  0.05143  1.0000
  C   C46       1.0  0.21522  0.33201  0.10771  1.0000
  H   H44       1.0  0.21629  0.34558  0.09828  1.0000
  H   H45       1.0  0.29956  0.04724  0.98791  1.0000
  N   N2        1.0  0.00428  0.32089  0.02458  1.0000
  C   C47       1.0  0.29486  0.11897  0.09596  1.0000
  C   C48       1.0  0.29651  0.13976  0.08614  1.0000
  H   H46       1.0  0.30912  0.09436  0.05472  1.0000
  N   N3        1.0  0.07454  0.14323  0.99312  1.0000
  H   H47       1.0  0.18541  0.00081  0.21965  1.0000
  H   H48       1.0  0.28379  0.15632  0.08742  1.0000
  H   H49       1.0  0.28097  0.44416  0.19252  1.0000
  H   H50       1.0  0.09833  0.14441  0.00678  1.0000
  H   H51       1.0  0.28021  0.43554  0.21048  1.0000
  H   H52       1.0  0.26778  0.12450  0.03013  1.0000
  C   C49       1.0  0.14847  0.11526  0.00239  1.0000
  H   H53       1.0  0.31905  0.08586  0.14680  1.0000
  H   H54       1.0  0.13615  0.11873  0.01155  1.0000
  C   C50       1.0  0.01638  0.40949  0.01735  1.0000
  C   C51       1.0  0.20896  0.44237  0.05670  1.0000
  C   C52       1.0  0.17386  0.08607  0.98861  1.0000
  H   H55       1.0  0.26737  0.10922  0.15763  1.0000
  C   C53       1.0  0.20981  0.44475  0.99315  1.0000
  C   C54       1.0  0.18719  0.02022  0.21588  1.0000
  C   C55       1.0  0.29911  0.08242  0.03236  1.0000
  C   C56       1.0  0.00933  0.38831  0.04458  1.0000
  N   N4        1.0  0.15680  0.28584  0.05315  1.0000
  C   C57       1.0  0.16910  0.29835  0.04030  1.0000
  C   C58       1.0  0.17027  0.26092  0.05634  1.0000
  C   C59       1.0  0.13169  0.28456  0.05177  1.0000
  C   C60       1.0  0.15612  0.29956  0.06418  1.0000
  H   H56       1.0  0.18817  0.29951  0.04087  1.0000
  H   H57       1.0  0.15954  0.31730  0.03768  1.0000
  H   H58       1.0  0.16955  0.28885  0.03165  1.0000
  H   H59       1.0  0.16155  0.25099  0.06603  1.0000
  H   H60       1.0  0.17096  0.25001  0.04825  1.0000
  H   H61       1.0  0.18934  0.26113  0.05740  1.0000
  H   H62       1.0  0.12109  0.30302  0.04914  1.0000
  H   H63       1.0  0.12172  0.27546  0.06130  1.0000
  H   H64       1.0  0.13157  0.27415  0.04360  1.0000
  H   H65       1.0  0.14719  0.29056  0.07408  1.0000
  H   H66       1.0  0.14592  0.31841  0.06216  1.0000
  H   H67       1.0  0.17475  0.30128  0.06535  1.0000
  N   N5        1.0  0.08656  0.13549  0.08202  1.0000
  C   C61       1.0  0.09808  0.15473  0.08486  1.0000
  C   C62       1.0  0.10146  0.12513  0.07025  1.0000
  C   C63       1.0  0.06188  0.14595  0.07897  1.0000
  C   C64       1.0  0.08493  0.11609  0.09397  1.0000
  H   H68       1.0  0.08743  0.16308  0.09367  1.0000
  H   H69       1.0  0.09980  0.16957  0.07601  1.0000
  H   H70       1.0  0.11686  0.14749  0.08704  1.0000
  H   H71       1.0  0.09329  0.11076  0.06762  1.0000
  H   H72       1.0  0.10321  0.13940  0.06117  1.0000
  H   H73       1.0  0.12031  0.11719  0.07210  1.0000
  H   H74       1.0  0.05283  0.13202  0.07651  1.0000
  H   H75       1.0  0.06244  0.16064  0.06999  1.0000
  H   H76       1.0  0.05000  0.15390  0.08761  1.0000
  H   H77       1.0  0.10331  0.10784  0.09648  1.0000
  H   H78       1.0  0.07639  0.10125  0.09214  1.0000
  H   H79       1.0  0.07385  0.12330  0.10306  1.0000
  N   N6        1.0  0.28334  0.07691  0.14890  1.0000
  C   C65       1.0  0.24528  0.42101  0.19071  1.0000
  C   C66       1.0  0.27123  0.10262  0.14770  1.0000
  C   C67       1.0  0.30659  0.07446  0.15386  1.0000
  H   H80       1.0  0.27095  0.07141  0.13128  1.0000
  H   H81       1.0  0.29675  0.04964  0.13600  1.0000
  H   H82       1.0  0.18631  0.06652  0.21847  1.0000
  H   H83       1.0  0.24939  0.06348  0.15546  1.0000
  H   H84       1.0  0.16753  0.42900  0.05352  1.0000
  H   H85       1.0  0.15385  0.07543  0.22073  1.0000
  H   H86       1.0  0.21712  0.31374  0.10481  1.0000
  H   H87       1.0  0.06718  0.14448  0.01453  1.0000
  C   C68       1.0  0.32377  0.00005  0.00995  1.0000
  H   H88       1.0  0.31227  0.21538  0.08748  1.0000
  H   H89       1.0  0.99989  0.13266  0.05039  1.0000
  N   N7        1.0  0.19840  0.44640  0.04416  1.0000
  C   C69       1.0  0.18103  0.48321  0.00513  1.0000
  H   H90       1.0  0.01913  0.41794  0.00682  1.0000
  C   C70       1.0  0.32451  0.04946  0.00094  1.0000
  H   H91       1.0  0.32501  0.06856  0.99725  1.0000
  H   H92       1.0  0.22591  0.41895  0.19166  1.0000
  S   S36       1.0  0.29530  0.99559  0.99195  1.0000
  C   C71       1.0  0.31477  0.13907  0.07464  1.0000
  H   H93       1.0  0.05433  0.11374  0.99646  1.0000
  C   C72       1.0  0.21820  0.44460  0.03240  1.0000
  H   H94       1.0  0.28257  0.11479  0.14038  1.0000
  N   N8        1.0  0.30324  0.10644  0.03412  1.0000
  H   H95       1.0  0.12170  0.99241  0.99316  1.0000
  H   H96       1.0  0.22086  0.42986  0.98842  1.0000
  H   H97       1.0  0.30357  0.08024  0.16398  1.0000
  H   H98       1.0  0.27819  0.10701  0.05294  1.0000
  C   C73       1.0  0.32381  0.46730  0.11282  1.0000
  H   H99       1.0  0.31346  0.15609  0.11003  1.0000
  H   H100      1.0  0.31294  0.44371  0.08658  1.0000
  H   H101      1.0  0.03367  0.29060  0.02291  1.0000
  C   C74       1.0  0.00273  0.17466  0.01554  1.0000
  H   H102      1.0  0.25681  0.40354  0.18846  1.0000
  H   H103      1.0  0.30036  0.08010  0.12799  1.0000
  C   C75       1.0  0.31098  0.09735  0.09407  1.0000
  H   H104      1.0  0.30905  0.19652  0.11763  1.0000
  C   C76       1.0  0.02545  0.30739  0.01661  1.0000
  H   H105      1.0  0.29125  0.12465  0.01548  1.0000
  H   H106      1.0  0.31114  0.06730  0.03773  1.0000
  H   H107      1.0  0.24812  0.41347  0.22433  1.0000
  C   C77       1.0  0.07051  0.16996  0.98906  1.0000
  H   H108      1.0  0.19432  0.48544  0.04140  1.0000
  H   H109      1.0  0.18904  0.02334  0.20463  1.0000
  H   H110      1.0  0.30095  0.45821  0.15995  1.0000
  H   H111      1.0  0.17190  0.35535  0.10133  1.0000
  C   C78       1.0  0.14355  0.03196  0.21893  1.0000
  C   C79       1.0  0.15759  0.09113  0.00038  1.0000
  C   C80       1.0  0.29747  0.10868  0.04865  1.0000
  H   H112      1.0  0.15209  0.07628  0.00802  1.0000
  H   H113      1.0  0.24913  0.43515  0.18169  1.0000
  C   C81       1.0  0.28809  0.06909  0.13549  1.0000
  H   H114      1.0  0.20767  0.35952  0.12738  1.0000
  N   N9        1.0  0.25010  0.42777  0.20310  1.0000
  H   H115      1.0  0.25573  0.39082  0.21343  1.0000
  H   H116      1.0  0.31644  0.18642  0.08195  1.0000
  C   C82       1.0  0.16923  0.06229  0.21638  1.0000
  H   H117      1.0  0.30066  0.12650  0.05034  1.0000
  H   H118      1.0  0.22992  0.42637  0.03333  1.0000
  H   H119      1.0  0.00373  0.18612  0.00572  1.0000
  H   H120      1.0  0.17136  0.32334  0.10626  1.0000
  H   H121      1.0  0.17424  0.47406  0.03349  1.0000
  C   C83       1.0  0.28736  0.12583  0.02649  1.0000
  H   H122      1.0  0.19392  0.37614  0.11327  1.0000
  H   H123      1.0  0.30316  0.08021  0.02150  1.0000
  C   C84       1.0  0.31016  0.03736  0.99555  1.0000
  H   H124      1.0  0.00650  0.38015  0.05515  1.0000
  C   C85       1.0  0.26747  0.06147  0.15858  1.0000
  H   H125      1.0  0.20607  0.31640  0.13470  1.0000
  C   C86       1.0  0.17144  0.34032  0.11016  1.0000
  C   C87       1.0  0.19222  0.36092  0.12188  1.0000
  H   H126      1.0  0.21498  0.45039  0.20648  1.0000
  H   H127      1.0  0.20455  0.02311  0.21827  1.0000
  H   H128      1.0  0.14376  0.03480  0.20780  1.0000
  H   H129      1.0  0.08731  0.17758  0.98876  1.0000
  H   H130      1.0  0.17362  0.32153  0.13617  1.0000
  H   H131      1.0  0.02062  0.31188  0.04261  1.0000
  H   H132      1.0  0.31616  0.05525  0.15493  1.0000
  H   H133      1.0  0.23132  0.33210  0.11231  1.0000
  H   H134      1.0  0.23893  0.46609  0.19706  1.0000
  H   H135      1.0  0.18071  0.42449  0.00255  1.0000
  S   S37       1.0  0.22895  0.05787  0.23193  1.0000
  C   C88       1.0  0.27601  0.43014  0.20136  1.0000
  N   N10       1.0  0.19242  0.33784  0.11718  1.0000
  H   H136      1.0  0.17513  0.36617  0.12888  1.0000
  C   C89       1.0  0.08172  0.13696  0.00669  1.0000
  H   H137      1.0  0.12740  0.04415  0.22342  1.0000
  C   C90       1.0  0.19090  0.31810  0.12897  1.0000
  C   C91       1.0  0.24447  0.40881  0.21486  1.0000
  H   H138      1.0  0.19361  0.40902  0.04651  1.0000
  H   H139      1.0  0.17221  0.00390  0.99473  1.0000
  H   H140      1.0  0.19202  0.30015  0.12582  1.0000
  C   C92       1.0  0.18328  0.47081  0.04255  1.0000
  C   C93       1.0  0.20372  0.48619  0.99723  1.0000
  H   H141      1.0  0.27998  0.07973  0.03631  1.0000
  C   C94       1.0  0.31310  0.19546  0.09103  1.0000
  H   H142      1.0  0.30224  0.99685  0.19460  1.0000
  H   H143      1.0  0.02024  0.30170  0.00789  1.0000
  C   C95       1.0  0.05186  0.13387  0.99353  1.0000
  H   H144      1.0  0.21088  0.44735  0.02278  1.0000
  H   H145      1.0  0.32358  0.47755  0.02335  1.0000
  H   H146      1.0  0.04007  0.31862  0.01253  1.0000
  C   C96       1.0  0.15492  0.13464  0.99243  1.0000
  H   H147      1.0  0.31612  0.15516  0.06705  1.0000
  H   H148      1.0  0.02597  0.34039  0.03232  1.0000
  H   H149      1.0  0.17042  0.06593  0.20515  1.0000
  H   H150      1.0  0.22087  0.45591  0.05637  1.0000
  C   C97       1.0  0.23225  0.48331  0.16124  1.0000
  H   H151      1.0  0.32662  0.21873  0.10803  1.0000
  S   S38       1.0  0.14128  0.16512  0.99383  1.0000
  H   H152      1.0  0.32208  0.44915  0.11084  1.0000
  H   H153      1.0  0.05578  0.17897  0.99626  1.0000
  C   C98       1.0  0.01221  0.32804  0.03600  1.0000
  H   H154      1.0  0.03678  0.14166  0.00105  1.0000
  H   H155      1.0  0.99663  0.33780  0.04241  1.0000
  H   H156      1.0  0.30739  0.47311  0.12017  1.0000
  H   H157      1.0  0.32309  0.48037  0.10321  1.0000
  Fe  Fe20      1.0  0.26532  0.48823  0.22404  1.0000
  H   H158      1.0  0.28042  0.48764  0.17521  1.0000
  C   C99       1.0  0.32709  0.19878  0.11136  1.0000
  H   H159      1.0  0.30503  0.48386  0.03915  1.0000
  C   C100      1.0  0.32197  0.48732  0.03202  1.0000
  C   C101      1.0  0.99393  0.40223  0.02330  1.0000
  C   C102      1.0  0.99399  0.34292  0.01585  1.0000
  C   C103      1.0  0.13159  0.00372  0.98449  1.0000
  H   H160      1.0  0.32434  0.49013  0.05778  1.0000
  C   C104      1.0  0.31999  0.15910  0.27349  1.0000
  H   H161      1.0  0.30763  0.47556  0.45101  1.0000
  H   H162      1.0  0.20479  0.44668  0.39502  1.0000
  Fe  Fe21      1.0  0.24228  0.03512  0.44131  1.0000
  S   S39       1.0  0.22374  0.07047  0.44787  1.0000
  S   S40       1.0  0.24221  0.02689  0.42034  1.0000
  Fe  Fe22      1.0  0.25889  0.07124  0.45448  1.0000
  S   S41       1.0  0.26836  0.10910  0.45085  1.0000
  Fe  Fe23      1.0  0.21410  0.04879  0.46850  1.0000
  S   S42       1.0  0.27858  0.03701  0.44665  1.0000
  H   H163      1.0  0.15910  0.14332  0.48097  1.0000
  S   S43       1.0  0.12900  0.02145  0.34137  1.0000
  S   S44       1.0  0.12981  0.06839  0.35608  1.0000
  Fe  Fe24      1.0  0.10323  0.04392  0.35569  1.0000
  S   S45       1.0  0.06514  0.05965  0.35148  1.0000
  Fe  Fe25      1.0  0.15625  0.04393  0.34312  1.0000
  S   S46       1.0  0.18421  0.05622  0.32544  1.0000
  H   H164      1.0  0.30228  0.06697  0.25666  1.0000
  H   H165      1.0  0.02024  0.99579  0.34210  1.0000
  Fe  Fe26      1.0  0.24118  0.01879  0.23997  1.0000
  S   S47       1.0  0.14666  0.05212  0.39318  1.0000
  Fe  Fe27      1.0  0.28575  0.18940  0.31003  1.0000
  S   S48       1.0  0.31599  0.15782  0.31333  1.0000
  S   S49       1.0  0.29708  0.22486  0.29865  1.0000
  Fe  Fe28      1.0  0.24683  0.15930  0.32433  1.0000
  S   S50       1.0  0.27402  0.12589  0.32924  1.0000
  S   S51       1.0  0.20674  0.15806  0.33036  1.0000
  Fe  Fe29      1.0  0.29510  0.15126  0.33440  1.0000
  Fe  Fe30      1.0  0.29195  0.13551  0.30770  1.0000
  S   S52       1.0  0.30728  0.10578  0.29482  1.0000
  S   S53       1.0  0.26622  0.18405  0.33150  1.0000
  S   S54       1.0  0.26352  0.16772  0.30247  1.0000
  Fe  Fe31      1.0  0.26784  0.39680  0.33681  1.0000
  H   H166      1.0  0.22345  0.15156  0.46797  1.0000
  S   S55       1.0  0.24754  0.42376  0.35046  1.0000
  Fe  Fe32      1.0  0.27461  0.35008  0.32485  1.0000
  H   H167      1.0  0.28607  0.09289  0.38676  1.0000
  S   S56       1.0  0.25519  0.31806  0.32705  1.0000
  N   N11       1.0  0.25258  0.47063  0.30404  1.0000
  N   N12       1.0  0.31804  0.26298  0.34550  1.0000
  Fe  Fe33      1.0  0.29845  0.39245  0.30903  1.0000
  C   C105      1.0  0.26855  0.46061  0.31431  1.0000
  S   S57       1.0  0.27941  0.35757  0.34488  1.0000
  S   S58       1.0  0.25934  0.38932  0.31758  1.0000
  Fe  Fe34      1.0  0.14018  0.99826  0.36024  1.0000
  S   S59       1.0  0.30588  0.40253  0.32792  1.0000
  H   H168      1.0  0.15569  0.05951  0.41854  1.0000
  H   H169      1.0  0.23325  0.10786  0.47604  1.0000
  C   C106      1.0  0.28502  0.25108  0.30622  1.0000
  C   C107      1.0  0.26471  0.25131  0.31648  1.0000
  C   C108      1.0  0.25563  0.27213  0.32260  1.0000
  C   C109      1.0  0.26688  0.29284  0.31860  1.0000
  C   C110      1.0  0.28720  0.29272  0.30831  1.0000
  C   C111      1.0  0.29613  0.27193  0.30206  1.0000
  H   H170      1.0  0.25572  0.23558  0.31960  1.0000
  H   H171      1.0  0.23979  0.27217  0.33048  1.0000
  H   H172      1.0  0.29588  0.30867  0.30508  1.0000
  S   S60       1.0  0.17637  0.05785  0.48065  1.0000
  C   C112      1.0  0.27372  0.09777  0.25881  1.0000
  C   C113      1.0  0.26297  0.11610  0.26663  1.0000
  C   C114      1.0  0.27240  0.11803  0.27807  1.0000
  C   C115      1.0  0.29314  0.10209  0.28154  1.0000
  C   C116      1.0  0.30355  0.08340  0.27391  1.0000
  C   C117      1.0  0.29377  0.08109  0.26265  1.0000
  H   H173      1.0  0.24731  0.12894  0.26379  1.0000
  H   H174      1.0  0.26385  0.13208  0.28407  1.0000
  S   S61       1.0  0.24798  0.05199  0.47553  1.0000
  C   C118      1.0  0.27604  0.44252  0.25188  1.0000
  C   C119      1.0  0.26908  0.42275  0.26150  1.0000
  C   C120      1.0  0.27964  0.41512  0.27334  1.0000
  C   C121      1.0  0.29758  0.42697  0.27547  1.0000
  H   H175      1.0  0.15016  0.04528  0.24186  1.0000
  C   C122      1.0  0.29371  0.45456  0.25413  1.0000
  H   H176      1.0  0.22225  0.11279  0.35010  1.0000
  H   H177      1.0  0.27415  0.39990  0.28069  1.0000
  H   H178      1.0  0.30525  0.25308  0.32922  1.0000
  C   C123      1.0  0.29330  0.26787  0.35336  1.0000
  C   C124      1.0  0.18950  0.08562  0.32541  1.0000
  C   C125      1.0  0.21315  0.09078  0.32136  1.0000
  C   C126      1.0  0.21808  0.11371  0.32190  1.0000
  C   C127      1.0  0.19958  0.13136  0.32698  1.0000
  C   C128      1.0  0.17567  0.12659  0.33055  1.0000
  C   C129      1.0  0.17062  0.10373  0.32975  1.0000
  H   H179      1.0  0.22792  0.07683  0.31824  1.0000
  H   H180      1.0  0.23634  0.11746  0.31861  1.0000
  H   H181      1.0  0.16115  0.14037  0.33421  1.0000
  H   H182      1.0  0.15217  0.10009  0.33256  1.0000
  C   C130      1.0  0.21349  0.46462  0.35152  1.0000
  C   C131      1.0  0.04138  0.04247  0.35757  1.0000
  H   H183      1.0  0.27391  0.16936  0.26845  1.0000
  H   H184      1.0  0.31956  0.07091  0.27657  1.0000
  H   H185      1.0  0.19212  0.46678  0.38142  1.0000
  H   H186      1.0  0.17032  0.39709  0.39485  1.0000
  C   C132      1.0  0.29802  0.11318  0.44281  1.0000
  H   H187      1.0  0.25564  0.48990  0.28354  1.0000
  C   C133      1.0  0.30307  0.13677  0.43765  1.0000
  H   H188      1.0  0.12236  0.99600  0.40155  1.0000
  H   H189      1.0  0.28888  0.15232  0.43895  1.0000
  C   C134      1.0  0.21542  0.03354  0.41302  1.0000
  C   C135      1.0  0.21625  0.02743  0.40020  1.0000
  C   C136      1.0  0.19535  0.03285  0.39399  1.0000
  H   H190      1.0  0.23190  0.45724  0.29234  1.0000
  C   C137      1.0  0.19346  0.04506  0.41960  1.0000
  H   H191      1.0  0.15131  0.42680  0.37692  1.0000
  H   H192      1.0  0.18185  0.13783  0.45779  1.0000
  H   H193      1.0  0.16256  0.01377  0.24149  1.0000
  H   H194      1.0  0.22118  0.47952  0.31892  1.0000
  H   H195      1.0  0.20935  0.09051  0.48316  1.0000
  C   C138      1.0  0.30611  0.09077  0.38620  1.0000
  C   C139      1.0  0.30097  0.11516  0.40379  1.0000
  H   H196      1.0  0.31256  0.10560  0.37825  1.0000
  C   C140      1.0  0.22113  0.44303  0.34608  1.0000
  C   C141      1.0  0.20703  0.43672  0.33793  1.0000
  C   C142      1.0  0.18488  0.45167  0.33563  1.0000
  H   H197      1.0  0.29482  0.21669  0.26132  1.0000
  H   H198      1.0  0.21275  0.41995  0.33379  1.0000
  H   H199      1.0  0.17364  0.44649  0.32960  1.0000
  C   C143      1.0  0.00232  0.01649  0.36759  1.0000
  H   H200      1.0  0.20471  0.06581  0.36554  1.0000
  H   H201      1.0  0.30842  0.48365  0.39762  1.0000
  N   N13       1.0  0.17703  0.43378  0.38807  1.0000
  H   H202      1.0  0.28285  0.47027  0.28770  1.0000
  C   C144      1.0  0.15781  0.44382  0.39853  1.0000
  C   C145      1.0  0.16722  0.43631  0.37539  1.0000
  C   C146      1.0  0.19768  0.44722  0.38554  1.0000
  S   S62       1.0  0.27699  0.02517  0.24351  1.0000
  H   H203      1.0  0.31216  0.05346  0.40672  1.0000
  S   S63       1.0  0.21552  0.00290  0.25784  1.0000
  Fe  Fe35      1.0  0.14156  0.04115  0.37372  1.0000
  C   C147      1.0  0.17673  0.47272  0.34160  1.0000
  H   H204      1.0  0.28754  0.25088  0.35948  1.0000
  C   C148      1.0  0.31845  0.24571  0.33629  1.0000
  H   H205      1.0  0.21280  0.12213  0.45595  1.0000
  H   H206      1.0  0.31288  0.07500  0.44529  1.0000
  S   S64       1.0  0.17003  0.01856  0.36077  1.0000
  H   H207      1.0  0.14147  0.43486  0.40037  1.0000
  H   H208      1.0  0.23321  0.01855  0.39504  1.0000
  H   H209      1.0  0.30632  0.15612  0.28279  1.0000
  H   H210      1.0  0.31773  0.20704  0.27203  1.0000
  H   H211      1.0  0.29193  0.46170  0.39475  1.0000
  C   C149      1.0  0.24316  0.45062  0.30050  1.0000
  H   H212      1.0  0.15180  0.46366  0.39547  1.0000
  H   H213      1.0  0.28369  0.07284  0.41091  1.0000
  H   H214      1.0  0.19995  0.39967  0.38508  1.0000
  N   N14       1.0  0.19878  0.10298  0.36885  1.0000
  C   C150      1.0  0.20025  0.09601  0.38343  1.0000
  C   C151      1.0  0.18047  0.12521  0.36682  1.0000
  C   C152      1.0  0.19154  0.08300  0.36400  1.0000
  C   C153      1.0  0.22277  0.10771  0.36116  1.0000
  H   H215      1.0  0.20574  0.11060  0.38744  1.0000
  H   H216      1.0  0.21371  0.07915  0.38540  1.0000
  H   H217      1.0  0.18234  0.09245  0.38947  1.0000
  H   H218      1.0  0.18513  0.14060  0.37053  1.0000
  H   H219      1.0  0.17929  0.13136  0.35591  1.0000
  H   H220      1.0  0.16199  0.12210  0.37215  1.0000
  H   H221      1.0  0.19058  0.08749  0.35301  1.0000
  H   H222      1.0  0.17329  0.07925  0.36938  1.0000
  S   S65       1.0  0.31322  0.35255  0.31492  1.0000
  H   H223      1.0  0.23708  0.09138  0.36249  1.0000
  H   H224      1.0  0.22864  0.12302  0.36431  1.0000
  C   C154      1.0  0.31648  0.09321  0.44117  1.0000
  S   S66       1.0  0.31054  0.14118  0.35387  1.0000
  C   C155      1.0  0.18548  0.40775  0.39282  1.0000
  H   H225      1.0  0.16107  0.45572  0.37134  1.0000
  H   H226      1.0  0.25885  0.45032  0.32349  1.0000
  H   H227      1.0  0.30831  0.07174  0.41973  1.0000
  H   H228      1.0  0.16440  0.44168  0.40834  1.0000
  H   H229      1.0  0.23178  0.44139  0.30942  1.0000
  H   H230      1.0  0.28078  0.11755  0.40513  1.0000
  C   C156      1.0  0.32630  0.14033  0.43051  1.0000
  H   H231      1.0  0.31178  0.27193  0.29407  1.0000
  H   H232      1.0  0.28790  0.19969  0.27792  1.0000
  C   C157      1.0  0.02556  0.00687  0.37085  1.0000
  H   H233      1.0  0.30578  0.11653  0.41362  1.0000
  H   H234      1.0  0.31353  0.42017  0.39145  1.0000
  N   N15       1.0  0.22515  0.04849  0.28326  1.0000
  C   C158      1.0  0.22994  0.06501  0.29159  1.0000
  C   C159      1.0  0.21463  0.06298  0.27148  1.0000
  C   C160      1.0  0.20782  0.03293  0.29151  1.0000
  C   C161      1.0  0.24823  0.03309  0.27848  1.0000
  H   H235      1.0  0.23794  0.05457  0.30053  1.0000
  H   H236      1.0  0.21288  0.07682  0.29546  1.0000
  H   H237      1.0  0.24292  0.07707  0.28573  1.0000
  H   H238      1.0  0.21089  0.05105  0.26495  1.0000
  H   H239      1.0  0.19722  0.07486  0.27473  1.0000
  H   H240      1.0  0.22725  0.07493  0.26505  1.0000
  H   H241      1.0  0.20376  0.02018  0.28553  1.0000
  H   H242      1.0  0.19027  0.04402  0.29540  1.0000
  H   H243      1.0  0.21513  0.02183  0.30054  1.0000
  H   H244      1.0  0.26151  0.04429  0.27202  1.0000
  H   H245      1.0  0.24525  0.02007  0.27235  1.0000
  H   H246      1.0  0.25689  0.02221  0.28711  1.0000
  C   C162      1.0  0.17259  0.05050  0.41338  1.0000
  N   N16       1.0  0.31254  0.09163  0.39943  1.0000
  C   C163      1.0  0.20536  0.15163  0.47467  1.0000
  C   C164      1.0  0.04506  0.01976  0.36582  1.0000
  C   C165      1.0  0.30463  0.44661  0.26579  1.0000
  S   S67       1.0  0.22938  0.01299  0.46135  1.0000
  S   S68       1.0  0.11244  0.01901  0.37452  1.0000
  H   H247      1.0  0.19239  0.16687  0.47008  1.0000
  C   C166      1.0  0.17340  0.04441  0.40058  1.0000
  C   C167      1.0  0.30993  0.46785  0.39233  1.0000
  C   C168      1.0  0.28859  0.17158  0.25952  1.0000
  C   C169      1.0  0.32435  0.47129  0.44409  1.0000
  C   C170      1.0  0.19487  0.12329  0.46282  1.0000
  H   H248      1.0  0.16330  0.00220  0.38981  1.0000
  C   C171      1.0  0.01819  0.05191  0.35418  1.0000
  S   S69       1.0  0.26239  0.09740  0.24392  1.0000
  C   C172      1.0  0.00463  0.99165  0.33834  1.0000
  H   H249      1.0  0.32236  0.45499  0.41699  1.0000
  H   H250      1.0  0.30680  0.43229  0.41421  1.0000
  S   S70       1.0  0.31112  0.41859  0.29026  1.0000
  H   H251      1.0  0.01775  0.00691  0.31170  1.0000
  H   H252      1.0  0.30692  0.13079  0.39632  1.0000
  H   H253      1.0  0.25550  0.41327  0.25980  1.0000
  H   H254      1.0  0.01523  0.06948  0.34782  1.0000
  H   H255      1.0  0.32570  0.14133  0.26973  1.0000
  H   H256      1.0  0.27962  0.27602  0.34656  1.0000
  H   H257      1.0  0.28070  0.18559  0.25161  1.0000
  H   H258      1.0  0.25828  0.43654  0.29683  1.0000
  Fe  Fe36      1.0  0.31699  0.36268  0.33458  1.0000
  H   H259      1.0  0.29936  0.46966  0.24673  1.0000
  H   H260      1.0  0.06287  0.01227  0.36842  1.0000
  N   N17       1.0  0.30989  0.17850  0.26321  1.0000
  H   H261      1.0  0.19318  0.40512  0.40232  1.0000
  H   H262      1.0  0.18118  0.42866  0.36733  1.0000
  H   H263      1.0  0.19257  0.04983  0.42947  1.0000
  H   H264      1.0  0.18826  0.10574  0.46371  1.0000
  H   H265      1.0  0.29227  0.28093  0.36038  1.0000
  Fe  Fe37      1.0  0.26426  0.01735  0.46726  1.0000
  H   H266      1.0  0.19632  0.02828  0.38406  1.0000
  H   H267      1.0  0.31357  0.22806  0.34199  1.0000
  H   H268      1.0  0.31445  0.07324  0.38259  1.0000
  H   H269      1.0  0.31351  0.47452  0.38123  1.0000
  C   C173      1.0  0.30381  0.07155  0.40962  1.0000
  H   H270      1.0  0.31860  0.45577  0.26734  1.0000
  C   C174      1.0  0.19127  0.47932  0.34939  1.0000
  C   C175      1.0  0.30229  0.20148  0.26880  1.0000
  H   H271      1.0  0.04442  0.99341  0.31914  1.0000
  H   H272      1.0  0.21298  0.43945  0.37814  1.0000
  H   H273      1.0  0.15117  0.00281  0.41463  1.0000
  H   H274      1.0  0.29352  0.15399  0.25555  1.0000
  H   H275      1.0  0.28467  0.44780  0.31031  1.0000
  C   C176      1.0  0.99873  0.03894  0.35912  1.0000
  N   N18       1.0  0.19698  0.12807  0.47624  1.0000
  H   H276      1.0  0.18250  0.03538  0.23961  1.0000
  H   H277      1.0  0.31147  0.29483  0.33053  1.0000
  H   H278      1.0  0.27547  0.47517  0.31756  1.0000
  H   H279      1.0  0.22460  0.46979  0.35762  1.0000
  C   C177      1.0  0.23197  0.48823  0.30956  1.0000
  H   H280      1.0  0.02673  0.48207  0.35242  1.0000
  C   C178      1.0  0.32468  0.28607  0.33750  1.0000
  H   H281      1.0  0.32168  0.19630  0.24305  1.0000
  C   C179      1.0  0.16530  0.03268  0.23688  1.0000
  S   S71       1.0  0.26287  0.45119  0.23698  1.0000
  C   C180      1.0  0.26671  0.48296  0.29178  1.0000
  C   C181      1.0  0.21479  0.10852  0.48232  1.0000
  C   C182      1.0  0.02040  0.48951  0.36173  1.0000
  C   C183      1.0  0.32411  0.43976  0.41125  1.0000
  H   H282      1.0  0.32482  0.29947  0.34414  1.0000
  C   C184      1.0  0.99596  0.49015  0.36794  1.0000
  S   S72       1.0  0.14817  0.49023  0.33958  1.0000
  Fe  Fe38      1.0  0.29970  0.06531  0.70863  1.0000
  S   S73       1.0  0.26169  0.07848  0.71832  1.0000
  Fe  Fe39      1.0  0.28155  0.03858  0.68948  1.0000
  S   S74       1.0  0.24232  0.05011  0.69799  1.0000
  C   C185      1.0  0.99870  0.14711  0.61870  1.0000
  Fe  Fe40      1.0  0.25312  0.08656  0.69710  1.0000
  S   S75       1.0  0.23685  0.12345  0.68677  1.0000
  Fe  Fe41      1.0  0.25510  0.04072  0.71828  1.0000
  H   H283      1.0  0.01055  0.40174  0.65477  1.0000
  S   S76       1.0  0.29192  0.07553  0.68732  1.0000
  Fe  Fe42      1.0  0.11625  0.18923  0.66607  1.0000
  S   S77       1.0  0.14575  0.19982  0.64920  1.0000
  S   S78       1.0  0.12521  0.16433  0.68524  1.0000
  Fe  Fe43      1.0  0.07658  0.21749  0.65029  1.0000
  S   S79       1.0  0.10345  0.22985  0.63217  1.0000
  S   S80       1.0  0.03752  0.23299  0.64875  1.0000
  Fe  Fe44      1.0  0.12289  0.19134  0.63566  1.0000
  S   S81       1.0  0.14149  0.16677  0.62037  1.0000
  Fe  Fe45      1.0  0.12316  0.23718  0.64761  1.0000
  S   S82       1.0  0.14168  0.27017  0.64472  1.0000
  S   S83       1.0  0.09456  0.17834  0.65267  1.0000
  S   S84       1.0  0.09504  0.22716  0.66555  1.0000
  Fe  Fe46      1.0  0.12467  0.43866  0.65280  1.0000
  S   S85       1.0  0.10607  0.46573  0.66639  1.0000
  S   S86       1.0  0.14950  0.45422  0.63451  1.0000
  Fe  Fe47      1.0  0.10445  0.39617  0.67193  1.0000
  S   S87       1.0  0.08476  0.42023  0.68716  1.0000
  S   S88       1.0  0.09648  0.35753  0.67737  1.0000
  Fe  Fe48      1.0  0.07405  0.44653  0.66901  1.0000
  S   S89       1.0  0.03684  0.46678  0.66566  1.0000
  Fe  Fe49      1.0  0.11881  0.43703  0.68311  1.0000
  S   S90       1.0  0.14091  0.44140  0.69858  1.0000
  S   S91       1.0  0.09169  0.42170  0.65403  1.0000
  S   S92       1.0  0.13937  0.41074  0.66929  1.0000
  Fe  Fe50      1.0  0.10214  0.04010  0.58099  1.0000
  S   S93       1.0  0.12424  0.06967  0.57851  1.0000
  H   H284      1.0  0.15354  0.02053  0.57788  1.0000
  Fe  Fe51      1.0  0.06958  0.06904  0.56104  1.0000
  S   S94       1.0  0.08994  0.10061  0.55666  1.0000
  S   S95       1.0  0.03724  0.07519  0.55023  1.0000
  Fe  Fe52      1.0  0.12364  0.07215  0.55623  1.0000
  S   S96       1.0  0.16009  0.07186  0.54229  1.0000
  Fe  Fe53      1.0  0.08847  0.09510  0.57921  1.0000
  S   S97       1.0  0.07282  0.12619  0.59107  1.0000
  S   S98       1.0  0.10345  0.04097  0.55877  1.0000
  S   S99       1.0  0.06615  0.06514  0.58356  1.0000
  H   H285      1.0  0.07664  0.37502  0.65163  1.0000
  C   C186      1.0  0.16405  0.06755  0.52527  1.0000
  C   C187      1.0  0.18775  0.06153  0.51832  1.0000
  C   C188      1.0  0.19172  0.05753  0.50483  1.0000
  C   C189      1.0  0.17203  0.06029  0.49802  1.0000
  C   C190      1.0  0.14830  0.06621  0.50500  1.0000
  C   C191      1.0  0.14428  0.06964  0.51862  1.0000
  H   H286      1.0  0.20313  0.05982  0.52343  1.0000
  C   C192      1.0  0.01573  0.21391  0.65476  1.0000
  H   H287      1.0  0.13294  0.06832  0.49981  1.0000
  H   H288      1.0  0.12593  0.07424  0.52389  1.0000
  H   H289      1.0  0.21005  0.05256  0.49970  1.0000
  C   C193      1.0  0.15435  0.00758  0.53343  1.0000
  H   H290      1.0  0.03079  0.03121  0.56986  1.0000
  H   H291      1.0  0.00564  0.16068  0.67530  1.0000
  C   C194      1.0  0.32194  0.99239  0.50598  1.0000
  C   C195      1.0  0.01391  0.44853  0.67009  1.0000
  C   C196      1.0  0.01588  0.42785  0.68004  1.0000
  C   C197      1.0  0.11649  0.47713  0.59560  1.0000
  H   H292      1.0  0.30145  0.11679  0.71639  1.0000
  H   H293      1.0  0.03142  0.42316  0.68524  1.0000
  C   C198      1.0  0.17173  0.48942  0.71171  1.0000
  C   C199      1.0  0.09242  0.13755  0.59885  1.0000
  C   C200      1.0  0.08301  0.15723  0.60586  1.0000
  C   C201      1.0  0.09780  0.16608  0.61266  1.0000
  C   C202      1.0  0.12235  0.15573  0.61216  1.0000
  C   C203      1.0  0.13192  0.13634  0.60495  1.0000
  C   C204      1.0  0.11695  0.12713  0.59840  1.0000
  H   H294      1.0  0.06429  0.16584  0.60588  1.0000
  H   H295      1.0  0.09038  0.18127  0.61803  1.0000
  H   H296      1.0  0.15095  0.12843  0.60441  1.0000
  H   H297      1.0  0.12444  0.11212  0.59292  1.0000
  C   C205      1.0  0.12819  0.29495  0.65330  1.0000
  C   C206      1.0  0.10797  0.29340  0.66357  1.0000
  C   C207      1.0  0.09873  0.31265  0.67093  1.0000
  C   C208      1.0  0.10915  0.33390  0.66786  1.0000
  C   C209      1.0  0.12900  0.33578  0.65739  1.0000
  C   C210      1.0  0.13866  0.31621  0.65025  1.0000
  H   H298      1.0  0.09956  0.27731  0.66594  1.0000
  H   H299      1.0  0.08333  0.31111  0.67901  1.0000
  H   H300      1.0  0.13713  0.35211  0.65494  1.0000
  H   H301      1.0  0.15431  0.31755  0.64231  1.0000
  C   C211      1.0  0.15898  0.00313  0.58390  1.0000
  H   H302      1.0  0.03802  0.18637  0.66679  1.0000
  H   H303      1.0  0.19947  0.99472  0.55244  1.0000
  C   C212      1.0  0.13684  0.46252  0.61951  1.0000
  H   H304      1.0  0.19234  0.44535  0.64782  1.0000
  C   C213      1.0  0.20713  0.48314  0.65449  1.0000
  C   C214      1.0  0.01588  0.16960  0.63120  1.0000
  H   H305      1.0  0.00040  0.48829  0.57919  1.0000
  H   H306      1.0  0.06705  0.36911  0.63698  1.0000
  H   H307      1.0  0.05403  0.47971  0.59652  1.0000
  C   C215      1.0  0.10685  0.46000  0.60607  1.0000
  H   H308      1.0  0.30436  0.15378  0.72515  1.0000
  C   C216      1.0  0.01178  0.06088  0.55731  1.0000
  C   C217      1.0  0.14724  0.46898  0.70167  1.0000
  C   C218      1.0  0.16600  0.46800  0.70901  1.0000
  H   H309      1.0  0.19045  0.44664  0.68417  1.0000
  H   H310      1.0  0.18930  0.15475  0.65178  1.0000
  H   H311      1.0  0.17609  0.45054  0.71273  1.0000
  H   H312      1.0  0.01803  0.36841  0.67466  1.0000
  C   C219      1.0  0.20564  0.13468  0.68734  1.0000
  C   C220      1.0  0.18764  0.12233  0.69555  1.0000
  C   C221      1.0  0.16289  0.13182  0.69513  1.0000
  C   C222      1.0  0.15615  0.15335  0.68633  1.0000
  C   C223      1.0  0.17422  0.16559  0.67822  1.0000
  C   C224      1.0  0.19881  0.15645  0.67881  1.0000
  H   H313      1.0  0.19279  0.10554  0.70219  1.0000
  H   H314      1.0  0.14898  0.12225  0.70148  1.0000
  H   H315      1.0  0.16931  0.18207  0.67145  1.0000
  H   H316      1.0  0.21270  0.16601  0.67243  1.0000
  C   C225      1.0  0.19029  0.14442  0.64344  1.0000
  H   H317      1.0  0.16508  0.01518  0.52371  1.0000
  H   H318      1.0  0.21632  0.11089  0.49267  1.0000
  H   H319      1.0  0.21217  0.10138  0.65490  1.0000
  H   H320      1.0  0.10929  0.43973  0.62606  1.0000
  H   H321      1.0  0.16721  0.01934  0.61251  1.0000
  H   H322      1.0  0.19557  0.01415  0.60131  1.0000
  H   H323      1.0  0.21760  0.43433  0.65682  1.0000
  H   H324      1.0  0.07206  0.34506  0.65092  1.0000
  C   C226      1.0  0.18635  0.00629  0.54610  1.0000
  C   C227      1.0  0.18717  0.01306  0.63535  1.0000
  H   H325      1.0  0.22844  0.02376  0.61928  1.0000
  C   C228      1.0  0.14669  0.47938  0.60897  1.0000
  H   H326      1.0  0.02536  0.35902  0.63918  1.0000
  C   C229      1.0  0.99746  0.41346  0.68350  1.0000
  H   H327      1.0  0.03061  0.33597  0.65357  1.0000
  H   H328      1.0  0.02482  0.16905  0.64006  1.0000
  H   H329      1.0  0.17129  0.12084  0.62883  1.0000
  C   C230      1.0  0.13633  0.48693  0.59712  1.0000
  H   H330      1.0  0.00577  0.11809  0.55552  1.0000
  C   C231      1.0  0.31632  0.11676  0.72159  1.0000
  H   H331      1.0  0.03270  0.11273  0.57218  1.0000
  H   H332      1.0  0.99915  0.18361  0.63205  1.0000
  C   C232      1.0  0.18092  0.10916  0.63693  1.0000
  H   H333      1.0  0.04562  0.34653  0.67305  1.0000
  H   H334      1.0  0.16230  0.48675  0.60996  1.0000
  C   C233      1.0  0.27754  0.99870  0.66659  1.0000
  H   H335      1.0  0.18605  0.48835  0.71750  1.0000
  H   H336      1.0  0.18079  0.15686  0.63553  1.0000
  H   H337      1.0  0.24317  0.01191  0.67820  1.0000
  H   H338      1.0  0.20018  0.10379  0.63224  1.0000
  H   H339      1.0  0.26368  0.99401  0.69812  1.0000
  C   C234      1.0  0.19243  0.10628  0.65884  1.0000
  H   H340      1.0  0.14462  0.11253  0.65845  1.0000
  H   H341      1.0  0.04699  0.37768  0.67315  1.0000
  C   C235      1.0  0.11679  0.45298  0.61808  1.0000
  H   H342      1.0  0.15593  0.46211  0.67152  1.0000
  C   C236      1.0  0.31801  0.13770  0.72657  1.0000
  C   C237      1.0  0.00211  0.17755  0.66840  1.0000
  N   N19       1.0  0.17927  0.12217  0.64838  1.0000
  H   H343      1.0  0.20980  0.14007  0.63893  1.0000
  H   H344      1.0  0.22021  0.45324  0.67664  1.0000
  H   H345      1.0  0.99895  0.39770  0.69137  1.0000
  H   H346      1.0  0.04039  0.40863  0.65367  1.0000
  H   H347      1.0  0.17247  0.09246  0.64023  1.0000
  H   H348      1.0  0.15139  0.13931  0.66269  1.0000
  H   H349      1.0  0.14331  0.99580  0.56038  1.0000
  H   H350      1.0  0.02901  0.10894  0.62989  1.0000
  H   H351      1.0  0.18765  0.42858  0.66465  1.0000
  H   H352      1.0  0.04572  0.13210  0.62050  1.0000
  C   C238      1.0  0.18348  0.99204  0.58227  1.0000
  H   H353      1.0  0.18963  0.03209  0.63508  1.0000
  C   C239      1.0  0.03731  0.36559  0.66951  1.0000
  H   H354      1.0  0.02548  0.14441  0.57348  1.0000
  H   H355      1.0  0.18489  0.08914  0.66269  1.0000
  H   H356      1.0  0.14130  0.99755  0.53093  1.0000
  H   H357      1.0  0.18906  0.03939  0.61037  1.0000
  C   C240      1.0  0.14158  0.99161  0.59322  1.0000
  H   H358      1.0  0.31813  0.48268  0.71055  1.0000
  C   C241      1.0  0.16692  0.47528  0.66483  1.0000
  H   H359      1.0  0.09170  0.45214  0.60490  1.0000
  H   H360      1.0  0.99923  0.48400  0.59720  1.0000
  S   S100      1.0  0.10339  0.48623  0.58079  1.0000
  H   H361      1.0  0.04225  0.12632  0.63865  1.0000
  H   H362      1.0  0.99800  0.14994  0.55625  1.0000
  C   C242      1.0  0.20043  0.46039  0.67714  1.0000
  N   N20       1.0  0.19315  0.46530  0.66360  1.0000
  N   N21       1.0  0.99433  0.12673  0.57563  1.0000
  H   H363      1.0  0.14355  0.02333  0.53810  1.0000
  H   H364      1.0  0.00476  0.35994  0.65497  1.0000
  H   H365      1.0  0.14278  0.14042  0.64664  1.0000
  S   S101      1.0  0.29362  0.02708  0.70974  1.0000
  C   C243      1.0  0.03275  0.12743  0.62993  1.0000
  C   C244      1.0  0.01181  0.48455  0.58733  1.0000
  H   H366      1.0  0.00087  0.13714  0.65244  1.0000
  H   H367      1.0  0.05661  0.48563  0.57194  1.0000
  H   H368      1.0  0.19103  0.11545  0.66771  1.0000
  C   C245      1.0  0.15341  0.12884  0.65429  1.0000
  H   H369      1.0  0.03149  0.40148  0.63913  1.0000
  H   H370      1.0  0.16619  0.11111  0.48633  1.0000
  C   C246      1.0  0.02043  0.19199  0.66357  1.0000
  N   N22       1.0  0.16360  0.24042  0.68371  1.0000
  C   C247      1.0  0.15943  0.26610  0.68572  1.0000
  C   C248      1.0  0.14064  0.23424  0.68172  1.0000
  C   C249      1.0  0.17191  0.22430  0.69572  1.0000
  C   C250      1.0  0.18232  0.23708  0.67160  1.0000
  H   H371      1.0  0.17632  0.27149  0.68731  1.0000
  H   H372      1.0  0.14515  0.26946  0.69465  1.0000
  H   H373      1.0  0.15325  0.27865  0.67675  1.0000
  H   H374      1.0  0.14269  0.21482  0.68059  1.0000
  H   H375      1.0  0.12579  0.23738  0.69042  1.0000
  H   H376      1.0  0.13442  0.24548  0.67246  1.0000
  H   H377      1.0  0.17512  0.20478  0.69447  1.0000
  H   H378      1.0  0.15812  0.22628  0.70502  1.0000
  H   H379      1.0  0.18923  0.22838  0.69756  1.0000
  H   H380      1.0  0.17657  0.24896  0.66233  1.0000
  H   H381      1.0  0.18586  0.21801  0.66967  1.0000
  H   H382      1.0  0.19990  0.24164  0.67272  1.0000
  N   N23       1.0  0.03912  0.37072  0.65461  1.0000
  C   C251      1.0  0.06481  0.36475  0.64822  1.0000
  C   C252      1.0  0.03001  0.39678  0.65033  1.0000
  H   H383      1.0  0.19692  0.00118  0.57519  1.0000
  C   C253      1.0  0.02431  0.35575  0.65039  1.0000
  H   H384      1.0  0.02150  0.12191  0.58841  1.0000
  H   H385      1.0  0.28605  0.99530  0.73266  1.0000
  S   S102      1.0  0.29545  0.01365  0.67364  1.0000
  N   N24       1.0  0.19832  0.00439  0.62243  1.0000
  C   C254      1.0  0.25239  0.00032  0.67086  1.0000
  S   S103      1.0  0.27024  0.48415  0.73173  1.0000
  H   H386      1.0  0.00066  0.08777  0.57747  1.0000
  H   H387      1.0  0.23368  0.99872  0.61011  1.0000
  H   H388      1.0  0.16074  0.47922  0.65481  1.0000
  N   N25       1.0  0.01012  0.14553  0.63073  1.0000
  C   C255      1.0  0.01346  0.03949  0.56678  1.0000
  H   H389      1.0  0.20198  0.48719  0.64420  1.0000
  S   S104      1.0  0.11069  0.00493  0.59510  1.0000
  C   C256      1.0  0.19797  0.44240  0.65796  1.0000
  H   H390      1.0  0.01123  0.15239  0.60916  1.0000
  H   H391      1.0  0.17564  0.02075  0.55188  1.0000
  C   C257      1.0  0.18702  0.02007  0.61119  1.0000
  H   H392      1.0  0.19704  0.01554  0.53689  1.0000
  H   H393      1.0  0.02288  0.46611  0.58701  1.0000
  H   H394      1.0  0.23394  0.99307  0.62799  1.0000
  H   H395      1.0  0.02840  0.17612  0.62196  1.0000
  H   H396      1.0  0.22704  0.47623  0.65332  1.0000
  C   C258      1.0  0.22473  0.00507  0.61984  1.0000
  H   H397      1.0  0.99428  0.01148  0.57904  1.0000
  H   H398      1.0  0.19558  0.00152  0.64396  1.0000
  H   H399      1.0  0.19635  0.47713  0.68190  1.0000
  H   H400      1.0  0.31103  0.01018  0.50810  1.0000
  H   H401      1.0  0.17400  0.13157  0.49549  1.0000
  H   H402      1.0  0.16731  0.01238  0.63768  1.0000
  C   C259      1.0  0.01953  0.12650  0.57753  1.0000
  N   N26       1.0  0.17031  0.99177  0.54257  1.0000
  H   H403      1.0  0.32538  0.00164  0.53027  1.0000
  C   C260      1.0  0.17301  0.12863  0.48515  1.0000
  H   H404      1.0  0.20732  0.15568  0.48461  1.0000
  H   H405      1.0  0.32693  0.99373  0.49478  1.0000
  S   S105      1.0  0.22190  0.03337  0.95197  1.0000
  Fe  Fe54      1.0  0.26079  0.03919  0.94961  1.0000
  Fe  Fe55      1.0  0.26843  0.01131  0.97733  1.0000
  H   H406      1.0  0.29026  0.07593  0.74212  1.0000
  C   C261      1.0  0.31877  0.06007  0.90980  1.0000
  S   S106      1.0  0.25594  0.05087  0.97009  1.0000
  S   S107      1.0  0.23570  0.01915  0.73695  1.0000
  S   S108      1.0  0.24606  0.47097  0.98053  1.0000
  H   H407      1.0  0.29803  0.04805  0.77758  1.0000
  C   C262      1.0  0.30737  0.45265  0.74227  1.0000
  H   H408      1.0  0.27283  0.01912  0.76399  1.0000
  C   C263      1.0  0.32144  0.00733  0.85670  1.0000
  H   H409      1.0  0.16931  0.02504  0.97144  1.0000
  N   N27       1.0  0.15661  0.99131  0.98031  1.0000
  S   S109      1.0  0.27536  0.00012  0.95674  1.0000
  H   H410      1.0  0.30492  0.03407  0.73723  1.0000
  H   H411      1.0  0.11128  0.13952  0.98236  1.0000
  C   C264      1.0  0.30533  0.04605  0.92045  1.0000
  C   C265      1.0  0.31297  0.03014  0.74669  1.0000
  S   S110      1.0  0.23079  0.00206  0.98175  1.0000
  H   H412      1.0  0.30935  0.01789  0.77372  1.0000
  C   C266      1.0  0.09417  0.13216  0.98321  1.0000
  C   C267      1.0  0.18088  0.10540  0.97879  1.0000
  H   H413      1.0  0.26107  0.04933  0.76752  1.0000
  H   H414      1.0  0.15962  0.01045  0.95982  1.0000
  H   H415      1.0  0.30189  0.00975  0.93060  1.0000
  H   H416      1.0  0.16015  0.99673  0.92918  1.0000
  H   H417      1.0  0.28568  0.08192  0.75920  1.0000
  H   H418      1.0  0.30981  0.02876  0.96767  1.0000
  S   S111      1.0  0.28015  0.06060  0.93082  1.0000
  C   C268      1.0  0.27302  0.03875  0.75991  1.0000
  N   N28       1.0  0.29803  0.04429  0.75702  1.0000
  N   N29       1.0  0.32127  0.99701  0.87118  1.0000
  H   H419      1.0  0.19323  0.10173  0.96962  1.0000
  H   H420      1.0  0.30910  0.48671  0.78481  1.0000
  H   H421      1.0  0.31331  0.07962  0.90790  1.0000
  Fe  Fe56      1.0  0.21844  0.04113  0.97320  1.0000
  H   H422      1.0  0.08916  0.13595  0.97291  1.0000
  H   H423      1.0  0.17617  0.14445  0.97284  1.0000
  H   H424      1.0  0.06527  0.17537  0.97881  1.0000
  H   H425      1.0  0.29762  0.02857  0.87786  1.0000
  C   C269      1.0  0.30877  0.03764  0.76957  1.0000
  H   H426      1.0  0.29775  0.43854  0.74137  1.0000
  C   C270      1.0  0.29740  0.07056  0.75189  1.0000
  H   H427      1.0  0.12094  0.00765  0.97603  1.0000
  H   H428      1.0  0.31212  0.03746  0.94971  1.0000
  C   C271      1.0  0.17116  0.12959  0.98063  1.0000
  C   C272      1.0  0.25304  0.99613  0.74713  1.0000
  H   H429      1.0  0.18806  0.99860  0.96574  1.0000
  C   C273      1.0  0.32191  0.03566  0.95836  1.0000
  C   C274      1.0  0.29738  0.47719  0.73869  1.0000
  C   C275      1.0  0.31243  0.02081  0.92275  1.0000
  H   H430      1.0  0.26448  0.04314  0.75059  1.0000
  C   C276      1.0  0.16889  0.00704  0.96881  1.0000
  H   H431      1.0  0.31514  0.46975  0.80860  1.0000
  C   C277      1.0  0.31542  0.01696  0.87929  1.0000
  H   H432      1.0  0.19456  0.99866  0.94040  1.0000
  H   H433      1.0  0.31447  0.00977  0.89030  1.0000
  Fe  Fe57      1.0  0.23624  0.99485  0.96041  1.0000
  H   H434      1.0  0.31592  0.07547  0.74995  1.0000
  H   H435      1.0  0.31464  0.01023  0.75038  1.0000
  H   H436      1.0  0.30387  0.01912  0.85496  1.0000
  H   H437      1.0  0.32422  0.05426  0.95922  1.0000
  H   H438      1.0  0.22343  0.99249  0.76384  1.0000
  H   H439      1.0  0.04561  0.13860  0.98353  1.0000
  H   H440      1.0  0.32447  0.99272  0.85040  1.0000
  H   H441      1.0  0.28427  0.99099  0.87440  1.0000
  H   H442      1.0  0.17938  0.68619  0.20217  1.0000
  H   H443      1.0  0.31554  0.87850  0.17017  1.0000
  H   H444      1.0  0.30799  0.53956  0.13700  1.0000
  H   H445      1.0  0.14802  0.49427  0.98524  1.0000
  H   H446      1.0  0.16005  0.73930  0.20561  1.0000
  S   S112      1.0  0.31751  0.56199  0.04984  1.0000
  S   S113      1.0  0.31583  0.54800  0.98968  1.0000
  H   H447      1.0  0.28935  0.57517  0.17185  1.0000
  H   H448      1.0  0.16104  0.97554  0.00082  1.0000
  Fe  Fe58      1.0  0.29343  0.52606  0.20505  1.0000
  S   S114      1.0  0.25955  0.55064  0.19964  1.0000
  C   C278      1.0  0.16068  0.69126  0.20772  1.0000
  C   C279      1.0  0.13985  0.51387  0.98489  1.0000
  C   C280      1.0  0.29494  0.55945  0.02883  1.0000
  N   N30       1.0  0.32291  0.88628  0.18868  1.0000
  C   C281      1.0  0.31919  0.98433  0.19314  1.0000
  C   C282      1.0  0.30904  0.53259  0.16396  1.0000
  S   S115      1.0  0.23027  0.51184  0.18052  1.0000
  H   H449      1.0  0.12373  0.72307  0.21887  1.0000
  H   H450      1.0  0.16853  0.67226  0.23301  1.0000
  H   H451      1.0  0.19002  0.72328  0.20778  1.0000
  H   H452      1.0  0.27816  0.56297  0.03583  1.0000
  H   H453      1.0  0.29886  0.91369  0.19904  1.0000
  C   C283      1.0  0.13559  0.71104  0.22578  1.0000
  H   H454      1.0  0.19275  0.57883  0.21779  1.0000
  C   C284      1.0  0.31180  0.86578  0.19711  1.0000
  H   H455      1.0  0.30576  0.86885  0.20780  1.0000
  H   H456      1.0  0.31952  0.50714  0.02795  1.0000
  C   C285      1.0  0.18680  0.59090  0.22523  1.0000
  C   C286      1.0  0.31730  0.55826  0.03306  1.0000
  C   C287      1.0  0.30896  0.55566  0.14145  1.0000
  H   H457      1.0  0.32390  0.98075  0.01331  1.0000
  H   H458      1.0  0.15394  0.60819  0.21730  1.0000
  H   H459      1.0  0.18891  0.97645  0.98903  1.0000
  C   C288      1.0  0.30488  0.90894  0.18868  1.0000
  Fe  Fe59      1.0  0.24489  0.54234  0.22193  1.0000
  C   C289      1.0  0.17585  0.68933  0.22846  1.0000
  H   H460      1.0  0.26103  0.55037  0.16717  1.0000
  H   H461      1.0  0.21005  0.50335  0.99584  1.0000
  N   N31       1.0  0.29660  0.55398  0.15571  1.0000
  H   H462      1.0  0.31265  0.92463  0.18218  1.0000
  H   H463      1.0  0.31657  0.57930  0.15996  1.0000
  H   H464      1.0  0.31368  0.97677  0.17415  1.0000
  H   H465      1.0  0.30066  0.57209  0.13497  1.0000
  H   H466      1.0  0.17087  0.73794  0.22116  1.0000
  H   H467      1.0  0.30125  0.57871  0.20203  1.0000
  C   C290      1.0  0.31852  0.60785  0.18946  1.0000
  H   H468      1.0  0.26100  0.56696  0.15029  1.0000
  H   H469      1.0  0.27681  0.55719  0.01244  1.0000
  H   H470      1.0  0.28849  0.90742  0.18467  1.0000
  Fe  Fe60      1.0  0.24768  0.51595  0.19798  1.0000
  N   N32       1.0  0.16077  0.70474  0.21874  1.0000
  H   H471      1.0  0.19492  0.68396  0.22349  1.0000
  C   C291      1.0  0.31577  0.58337  0.19389  1.0000
  H   H472      1.0  0.11996  0.51535  0.98515  1.0000
  H   H473      1.0  0.30605  0.62197  0.19421  1.0000
  H   H474      1.0  0.15322  0.67405  0.21177  1.0000
  C   C292      1.0  0.17091  0.72730  0.21305  1.0000
  C   C293      1.0  0.29413  0.55615  0.01560  1.0000
  H   H475      1.0  0.14924  0.70219  0.20027  1.0000
  H   H476      1.0  0.29565  0.86321  0.19323  1.0000
  S   S116      1.0  0.28002  0.51998  0.22748  1.0000
  C   C294      1.0  0.16484  0.60749  0.22500  1.0000
  C   C295      1.0  0.31572  0.55193  0.00645  1.0000
  S   S117      1.0  0.22939  0.51015  0.21977  1.0000
  H   H477      1.0  0.12718  0.69450  0.22998  1.0000
  H   H478      1.0  0.17007  0.49814  0.00984  1.0000
  H   H479      1.0  0.29968  0.53033  0.17469  1.0000
  C   C296      1.0  0.29750  0.57627  0.16092  1.0000
  C   C297      1.0  0.32574  0.97296  0.18156  1.0000
  S   S118      1.0  0.24610  0.53447  0.99029  1.0000
  C   C298      1.0  0.17022  0.98660  0.99175  1.0000
  S   S119      1.0  0.28241  0.49185  0.20210  1.0000
  H   H480      1.0  0.30945  0.51551  0.16008  1.0000
  H   H481      1.0  0.26951  0.53442  0.15300  1.0000
  H   H482      1.0  0.28751  0.59273  0.15528  1.0000
  C   C299      1.0  0.27094  0.55135  0.15655  1.0000
  H   H483      1.0  0.32496  0.84839  0.19715  1.0000
  H   H484      1.0  0.14226  0.51934  0.99438  1.0000
  C   C300      1.0  0.24528  0.49089  0.16957  1.0000
  H   H485      1.0  0.21304  0.49038  0.16155  1.0000
  H   H486      1.0  0.13501  0.72067  0.23439  1.0000
  H   H487      1.0  0.14612  0.95585  0.98441  1.0000
  Fe  Fe61      1.0  0.08741  0.52328  0.37759  1.0000
  S   S120      1.0  0.10447  0.54931  0.38541  1.0000
  H   H488      1.0  0.05081  0.86958  0.26778  1.0000
  H   H489      1.0  0.17596  0.54819  0.27443  1.0000
  S   S121      1.0  0.15199  0.53858  0.36176  1.0000
  Fe  Fe62      1.0  0.13918  0.52241  0.38327  1.0000
  S   S122      1.0  0.16813  0.50913  0.39688  1.0000
  Fe  Fe63      1.0  0.11588  0.56325  0.36337  1.0000
  S   S123      1.0  0.11074  0.60366  0.35634  1.0000
  H   H490      1.0  0.15786  0.54111  0.26354  1.0000
  S   S124      1.0  0.09673  0.53913  0.35569  1.0000
  Fe  Fe64      1.0  0.26754  0.57954  0.45915  1.0000
  S   S125      1.0  0.28393  0.54145  0.46714  1.0000
  S   S126      1.0  0.28050  0.61385  0.46163  1.0000
  Fe  Fe65      1.0  0.23224  0.56130  0.44472  1.0000
  S   S127      1.0  0.24684  0.52219  0.45169  1.0000
  S   S128      1.0  0.20041  0.57347  0.43296  1.0000
  Fe  Fe66      1.0  0.24529  0.53430  0.47171  1.0000
  H   H491      1.0  0.15436  0.60217  0.27311  1.0000
  Fe  Fe67      1.0  0.28383  0.53347  0.44638  1.0000
  H   H492      1.0  0.01228  0.84781  0.30013  1.0000
  S   S129      1.0  0.22873  0.57296  0.46502  1.0000
  S   S130      1.0  0.26922  0.57207  0.43809  1.0000
  Fe  Fe68      1.0  0.07698  0.91519  0.29194  1.0000
  S   S131      1.0  0.08919  0.88349  0.30714  1.0000
  S   S132      1.0  0.03750  0.93234  0.29667  1.0000
  Fe  Fe69      1.0  0.12653  0.91216  0.27459  1.0000
  S   S133      1.0  0.14280  0.87972  0.28826  1.0000
  H   H493      1.0  0.14722  0.97494  0.42598  1.0000
  Fe  Fe70      1.0  0.10844  0.86514  0.28954  1.0000
  S   S134      1.0  0.10609  0.82489  0.29501  1.0000
  Fe  Fe71      1.0  0.12269  0.89971  0.30515  1.0000
  S   S135      1.0  0.14095  0.89056  0.32363  1.0000
  S   S136      1.0  0.09354  0.89572  0.27427  1.0000
  S   S137      1.0  0.10893  0.93357  0.29143  1.0000
  Fe  Fe72      1.0  0.07253  0.67573  0.27435  1.0000
  S   S138      1.0  0.09399  0.69349  0.28492  1.0000
  S   S139      1.0  0.03364  0.67143  0.28319  1.0000
  Fe  Fe73      1.0  0.11588  0.66251  0.25271  1.0000
  S   S140      1.0  0.14046  0.67962  0.26122  1.0000
  S   S141      1.0  0.28033  0.98715  0.48270  1.0000
  Fe  Fe74      1.0  0.12346  0.66140  0.28139  1.0000
  S   S142      1.0  0.14934  0.63715  0.29437  1.0000
  Fe  Fe75      1.0  0.10903  0.71018  0.26380  1.0000
  S   S143      1.0  0.11529  0.74887  0.25537  1.0000
  S   S144      1.0  0.10078  0.64236  0.27265  1.0000
  S   S145      1.0  0.08551  0.69453  0.25348  1.0000
  C   C301      1.0  0.19975  0.97185  0.24488  1.0000
  H   H494      1.0  0.11751  0.56622  0.26113  1.0000
  S   S146      1.0  0.14658  0.95746  0.36558  1.0000
  H   H495      1.0  0.11431  0.56685  0.47824  1.0000
  H   H496      1.0  0.12740  0.96893  0.39406  1.0000
  C   C302      1.0  0.12231  0.58012  0.26601  1.0000
  H   H497      1.0  0.03476  0.97824  0.30771  1.0000
  H   H498      1.0  0.23836  0.50369  0.31225  1.0000
  C   C303      1.0  0.16422  0.94511  0.40742  1.0000
  H   H499      1.0  0.20385  0.60488  0.25255  1.0000
  H   H500      1.0  0.16496  0.63350  0.25232  1.0000
  C   C304      1.0  0.02895  0.50752  0.37970  1.0000
  H   H501      1.0  0.07181  0.84995  0.27770  1.0000
  H   H502      1.0  0.31765  0.57476  0.45449  1.0000
  N   N33       1.0  0.13983  0.56907  0.27535  1.0000
  H   H503      1.0  0.14140  0.54313  0.29371  1.0000
  H   H504      1.0  0.21936  0.49584  0.30214  1.0000
  H   H505      1.0  0.14336  0.58949  0.46146  1.0000
  C   C305      1.0  0.12935  0.55106  0.47912  1.0000
  H   H506      1.0  0.02039  0.87417  0.28872  1.0000
  H   H507      1.0  0.18965  0.98040  0.39345  1.0000
  C   C306      1.0  0.01956  0.67402  0.25844  1.0000
  C   C307      1.0  0.12867  0.55173  0.28645  1.0000
  H   H508      1.0  0.03632  0.68064  0.25381  1.0000
  C   C308      1.0  0.16819  0.94752  0.25589  1.0000
  C   C309      1.0  0.16703  0.95635  0.26790  1.0000
  H   H509      1.0  0.01002  0.86033  0.26921  1.0000
  H   H510      1.0  0.15462  0.95038  0.27685  1.0000
  H   H511      1.0  0.21262  0.97748  0.23607  1.0000
  C   C310      1.0  0.14138  0.91048  0.33481  1.0000
  C   C311      1.0  0.13321  0.93563  0.33218  1.0000
  C   C312      1.0  0.13473  0.95050  0.34150  1.0000
  C   C313      1.0  0.14419  0.94013  0.35344  1.0000
  C   C314      1.0  0.15200  0.91502  0.35602  1.0000
  C   C315      1.0  0.15075  0.90033  0.34673  1.0000
  H   H512      1.0  0.12604  0.94360  0.32296  1.0000
  H   H513      1.0  0.18373  0.94108  0.40863  1.0000
  H   H514      1.0  0.15929  0.90688  0.36519  1.0000
  H   H515      1.0  0.15711  0.88096  0.34882  1.0000
  C   C316      1.0  0.10944  0.80416  0.28368  1.0000
  C   C317      1.0  0.11432  0.81114  0.26963  1.0000
  C   C318      1.0  0.11606  0.79402  0.26104  1.0000
  C   C319      1.0  0.11294  0.76990  0.26643  1.0000
  C   C320      1.0  0.10802  0.76301  0.28047  1.0000
  C   C321      1.0  0.10631  0.78008  0.28905  1.0000
  H   H516      1.0  0.11682  0.82965  0.26539  1.0000
  H   H517      1.0  0.11991  0.79946  0.25017  1.0000
  H   H518      1.0  0.10562  0.74450  0.28473  1.0000
  H   H519      1.0  0.10244  0.77456  0.29991  1.0000
  H   H520      1.0  0.04377  0.95629  0.33644  1.0000
  C   C322      1.0  0.15789  0.98282  0.41633  1.0000
  H   H521      1.0  0.12338  0.53693  0.28251  1.0000
  C   C323      1.0  0.01899  0.92526  0.28653  1.0000
  C   C324      1.0  0.02864  0.92065  0.27340  1.0000
  C   C325      1.0  0.01418  0.91356  0.26567  1.0000
  C   C326      1.0  0.30788  0.96661  0.48033  1.0000
  C   C327      1.0  0.14634  0.58836  0.28113  1.0000
  H   H522      1.0  0.04718  0.92283  0.26911  1.0000
  H   H523      1.0  0.02180  0.90993  0.25553  1.0000
  H   H524      1.0  0.06374  0.83968  0.26390  1.0000
  H   H525      1.0  0.17636  0.69890  0.23692  1.0000
  H   H526      1.0  0.01657  0.94291  0.34160  1.0000
  H   H527      1.0  0.12861  0.53935  0.47168  1.0000
  N   N34       1.0  0.03610  0.84038  0.28166  1.0000
  C   C328      1.0  0.05649  0.85032  0.27233  1.0000
  C   C329      1.0  0.13713  0.62738  0.31131  1.0000
  C   C330      1.0  0.11835  0.64226  0.31840  1.0000
  C   C331      1.0  0.11019  0.63480  0.33224  1.0000
  C   C332      1.0  0.12014  0.61210  0.33887  1.0000
  C   C333      1.0  0.13836  0.59687  0.33165  1.0000
  C   C334      1.0  0.14714  0.60471  0.31796  1.0000
  H   H528      1.0  0.11063  0.65982  0.31334  1.0000
  H   H529      1.0  0.09608  0.64662  0.33780  1.0000
  H   H530      1.0  0.14607  0.57931  0.33667  1.0000
  H   H531      1.0  0.16174  0.59321  0.31251  1.0000
  C   C335      1.0  0.17643  0.52704  0.40715  1.0000
  C   C336      1.0  0.19785  0.51872  0.41277  1.0000
  C   C337      1.0  0.20531  0.53260  0.42079  1.0000
  C   C338      1.0  0.19139  0.55499  0.42327  1.0000
  C   C339      1.0  0.16981  0.56320  0.41776  1.0000
  C   C340      1.0  0.16229  0.54924  0.40980  1.0000
  C   C341      1.0  0.00242  0.67308  0.25037  1.0000
  H   H532      1.0  0.22192  0.52603  0.42498  1.0000
  H   H533      1.0  0.15880  0.58038  0.41973  1.0000
  H   H534      1.0  0.14547  0.55552  0.40581  1.0000
  H   H535      1.0  0.00615  0.67890  0.23954  1.0000
  H   H536      1.0  0.18528  0.49565  0.35389  1.0000
  H   H537      1.0  0.11198  0.56101  0.29237  1.0000
  C   C342      1.0  0.19820  0.98096  0.25687  1.0000
  C   C343      1.0  0.19300  0.60558  0.24482  1.0000
  C   C344      1.0  0.30291  0.61600  0.47116  1.0000
  C   C345      1.0  0.18188  0.97312  0.26836  1.0000
  C   C346      1.0  0.00447  0.50825  0.38587  1.0000
  C   C347      1.0  0.03680  0.49836  0.36750  1.0000
  H   H538      1.0  0.05273  0.80357  0.27941  1.0000
  H   H539      1.0  0.02186  0.83001  0.26597  1.0000
  S   S147      1.0  0.12112  0.49484  0.37748  1.0000
  H   H540      1.0  0.05857  0.81367  0.29387  1.0000
  H   H541      1.0  0.13012  0.59820  0.28710  1.0000
  H   H542      1.0  0.17547  0.57974  0.46091  1.0000
  C   C348      1.0  0.99457  0.92336  0.29177  1.0000
  H   H543      1.0  0.02926  0.80638  0.29400  1.0000
  C   C349      1.0  0.16198  0.55612  0.26783  1.0000
  S   S148      1.0  0.31751  0.51981  0.43211  1.0000
  H   H544      1.0  0.18572  0.94834  0.23508  1.0000
  H   H545      1.0  0.99990  0.83515  0.28093  1.0000
  N   N35       1.0  0.17054  0.60159  0.37421  1.0000
  C   C350      1.0  0.17844  0.62298  0.37720  1.0000
  C   C351      1.0  0.14585  0.59954  0.38181  1.0000
  C   C352      1.0  0.18764  0.57934  0.37832  1.0000
  C   C353      1.0  0.17016  0.60457  0.35952  1.0000
  H   H546      1.0  0.16586  0.64005  0.37422  1.0000
  H   H547      1.0  0.19702  0.62509  0.37165  1.0000
  H   H548      1.0  0.17884  0.62134  0.38822  1.0000
  H   H549      1.0  0.14527  0.59770  0.39292  1.0000
  H   H550      1.0  0.13230  0.61572  0.37869  1.0000
  H   H551      1.0  0.13943  0.58344  0.37991  1.0000
  H   H552      1.0  0.18141  0.56265  0.37701  1.0000
  H   H553      1.0  0.18942  0.57729  0.38918  1.0000
  H   H554      1.0  0.20617  0.57964  0.37228  1.0000
  H   H555      1.0  0.16423  0.58876  0.35693  1.0000
  H   H556      1.0  0.18838  0.60638  0.35339  1.0000
  H   H557      1.0  0.15711  0.62098  0.35611  1.0000
  C   C354      1.0  0.17257  0.53761  0.47809  1.0000
  H   H558      1.0  0.17047  0.56857  0.25920  1.0000
  H   H559      1.0  0.27361  0.49855  0.29397  1.0000
  C   C355      1.0  0.01611  0.84142  0.27413  1.0000
  H   H560      1.0  0.20883  0.50149  0.41088  1.0000
  S   S149      1.0  0.14909  0.92709  0.25496  1.0000
  H   H561      1.0  0.31216  0.57758  0.47812  1.0000
  S   S150      1.0  0.04907  0.51788  0.38767  1.0000
  N   N36       1.0  0.01295  0.97639  0.32755  1.0000
  H   H562      1.0  0.19081  0.54301  0.47646  1.0000
  H   H563      1.0  0.16249  0.93634  0.39885  1.0000
  N   N37       1.0  0.16049  0.81904  0.31817  1.0000
  C   C356      1.0  0.16319  0.81037  0.30511  1.0000
  C   C357      1.0  0.16628  0.79817  0.32883  1.0000
  C   C358      1.0  0.13515  0.83113  0.32189  1.0000
  C   C359      1.0  0.17725  0.83654  0.31689  1.0000
  H   H564      1.0  0.15867  0.82569  0.29688  1.0000
  H   H565      1.0  0.15066  0.79726  0.30568  1.0000
  H   H566      1.0  0.18208  0.80124  0.30191  1.0000
  H   H567      1.0  0.18527  0.78860  0.32637  1.0000
  H   H568      1.0  0.16434  0.80420  0.33880  1.0000
  H   H569      1.0  0.15387  0.78470  0.33005  1.0000
  H   H570      1.0  0.13240  0.83824  0.33161  1.0000
  H   H571      1.0  0.12188  0.81864  0.32280  1.0000
  H   H572      1.0  0.13026  0.84696  0.31408  1.0000
  H   H573      1.0  0.17330  0.85258  0.30896  1.0000
  H   H574      1.0  0.19657  0.82814  0.31415  1.0000
  H   H575      1.0  0.17537  0.84382  0.32650  1.0000
  C   C360      1.0  0.30838  0.63904  0.47129  1.0000
  C   C361      1.0  0.20089  0.58990  0.23519  1.0000
  C   C362      1.0  0.01450  0.66723  0.27251  1.0000
  H   H576      1.0  0.15359  0.93623  0.41678  1.0000
  C   C363      1.0  0.18459  0.95533  0.24437  1.0000
  H   H577      1.0  0.12987  0.59392  0.25775  1.0000
  N   N38       1.0  0.15323  0.55912  0.47673  1.0000
  H   H578      1.0  0.05561  0.49768  0.36267  1.0000
  H   H579      1.0  0.12853  0.96988  0.33946  1.0000
  H   H580      1.0  0.10512  0.58952  0.27141  1.0000
  Fe  Fe76      1.0  0.13191  0.51283  0.35610  1.0000
  H   H581      1.0  0.15984  0.58093  0.28807  1.0000
  S   S151      1.0  0.22782  0.56873  0.23653  1.0000
  N   N39       1.0  0.15550  0.97160  0.40483  1.0000
  H   H582      1.0  0.32318  0.98565  0.46115  1.0000
  H   H583      1.0  0.15818  0.56200  0.45503  1.0000
  C   C364      1.0  0.02738  0.85499  0.29272  1.0000
  H   H584      1.0  0.99780  0.54634  0.36279  1.0000
  C   C365      1.0  0.02747  0.95318  0.33289  1.0000
  H   H585      1.0  0.04226  0.85526  0.29833  1.0000
  H   H586      1.0  0.31157  0.59888  0.43262  1.0000
  H   H587      1.0  0.18066  0.98002  0.27768  1.0000
  C   C366      1.0  0.04448  0.81486  0.28747  1.0000
  C   C367      1.0  0.17095  0.62180  0.24472  1.0000
  C   C368      1.0  0.32625  0.97042  0.46917  1.0000
  H   H588      1.0  0.29800  0.65512  0.46625  1.0000
  C   C369      1.0  0.31648  0.59540  0.47777  1.0000
  C   C370      1.0  0.15766  0.57321  0.46295  1.0000
  H   H589      1.0  0.16958  0.97391  0.38354  1.0000
  H   H590      1.0  0.03404  0.94126  0.32498  1.0000
  H   H591      1.0  0.99724  0.95993  0.31477  1.0000
  H   H592      1.0  0.17324  0.52558  0.47058  1.0000
  H   H593      1.0  0.11808  0.96747  0.41207  1.0000
  H   H594      1.0  0.99829  0.51518  0.39534  1.0000
  C   C371      1.0  0.12970  0.97615  0.40308  1.0000
  C   C372      1.0  0.02814  0.98933  0.31601  1.0000
  C   C373      1.0  0.17021  0.98247  0.39237  1.0000
  H   H595      1.0  0.00309  0.56702  0.34727  1.0000
  H   H596      1.0  0.17722  0.98030  0.41776  1.0000
  H   H597      1.0  0.99483  0.57820  0.36316  1.0000
  H   H598      1.0  0.02849  0.98944  0.37734  1.0000
  C   C374      1.0  0.15681  0.62285  0.23480  1.0000
  H   H599      1.0  0.32485  0.57203  0.42526  1.0000
  S   S152      1.0  0.12910  0.64323  0.23455  1.0000
  Fe  Fe77      1.0  0.24336  0.56796  0.70676  1.0000
  S   S153      1.0  0.20513  0.58092  0.71616  1.0000
  S   S154      1.0  0.26439  0.58496  0.68714  1.0000
  C   C375      1.0  0.13955  0.51304  0.69999  1.0000
  Fe  Fe78      1.0  0.19900  0.54253  0.71762  1.0000
  S   S155      1.0  0.16340  0.53919  0.71163  1.0000
  S   S156      1.0  0.23634  0.53052  0.70674  1.0000
  H   H600      1.0  0.15004  0.56454  0.49735  1.0000
  Fe  Fe79      1.0  0.23808  0.93192  0.60494  1.0000
  S   S157      1.0  0.21950  0.91729  0.62568  1.0000
  S   S158      1.0  0.22169  0.95635  0.58758  1.0000
  Fe  Fe80      1.0  0.28852  0.91157  0.61167  1.0000
  S   S159      1.0  0.27388  0.89677  0.63312  1.0000
  H   H601      1.0  0.27963  0.95760  0.68627  1.0000
  Fe  Fe81      1.0  0.24737  0.88327  0.62381  1.0000
  S   S160      1.0  0.24654  0.84308  0.63174  1.0000
  Fe  Fe82      1.0  0.24775  0.93197  0.63314  1.0000
  S   S161      1.0  0.23354  0.95409  0.65037  1.0000
  S   S162      1.0  0.26328  0.89669  0.60236  1.0000
  S   S163      1.0  0.26493  0.94813  0.61245  1.0000
  Fe  Fe83      1.0  0.21604  0.68105  0.62870  1.0000
  S   S164      1.0  0.18759  0.70642  0.61790  1.0000
  S   S165      1.0  0.20354  0.67062  0.65118  1.0000
  Fe  Fe84      1.0  0.25368  0.68194  0.60331  1.0000
  S   S166      1.0  0.22818  0.70739  0.59080  1.0000
  S   S167      1.0  0.29163  0.66665  0.59386  1.0000
  Fe  Fe85      1.0  0.21760  0.72782  0.60836  1.0000
  S   S168      1.0  0.20908  0.76917  0.60433  1.0000
  Fe  Fe86      1.0  0.20060  0.68377  0.60138  1.0000
  S   S169      1.0  0.17745  0.67656  0.58733  1.0000
  S   S170      1.0  0.24529  0.70404  0.62024  1.0000
  S   S171      1.0  0.22685  0.65665  0.61282  1.0000
  Fe  Fe87      1.0  0.11676  0.57132  0.57772  1.0000
  S   S172      1.0  0.14099  0.54232  0.56689  1.0000
  S   S173      1.0  0.12911  0.58185  0.59535  1.0000
  Fe  Fe88      1.0  0.07372  0.57121  0.56316  1.0000
  S   S174      1.0  0.09492  0.54247  0.55119  1.0000
  S   S175      1.0  0.03352  0.58659  0.56400  1.0000
  Fe  Fe89      1.0  0.10789  0.52439  0.57077  1.0000
  H   H602      1.0  0.20260  0.65147  0.56451  1.0000
  Fe  Fe90      1.0  0.12600  0.56327  0.54839  1.0000
  S   S176      1.0  0.14909  0.57616  0.52847  1.0000
  S   S177      1.0  0.08469  0.55175  0.58284  1.0000
  S   S178      1.0  0.10368  0.59370  0.55907  1.0000
  H   H603      1.0  0.12221  0.53156  0.60934  1.0000
  H   H604      1.0  0.21669  0.65351  0.54707  1.0000
  H   H605      1.0  0.22628  0.65335  0.58203  1.0000
  H   H606      1.0  0.32294  0.74674  0.55264  1.0000
  H   H607      1.0  0.15245  0.58387  0.72450  1.0000
  H   H608      1.0  0.19241  0.49891  0.51414  1.0000
  C   C376      1.0  0.02090  0.55392  0.55068  1.0000
  H   H609      1.0  0.27463  0.71223  0.57770  1.0000
  C   C377      1.0  0.14663  0.59334  0.73349  1.0000
  H   H610      1.0  0.30620  0.97483  0.69691  1.0000
  H   H611      1.0  0.04018  0.54811  0.54764  1.0000
  H   H612      1.0  0.25718  0.65829  0.57736  1.0000
  C   C378      1.0  0.20857  0.52962  0.50286  1.0000
  C   C379      1.0  0.19201  0.51830  0.51306  1.0000
  C   C380      1.0  0.17435  0.53213  0.52156  1.0000
  C   C381      1.0  0.17327  0.55733  0.51990  1.0000
  C   C382      1.0  0.19045  0.56841  0.51007  1.0000
  C   C383      1.0  0.20806  0.55463  0.50162  1.0000
  H   H613      1.0  0.13490  0.61086  0.73034  1.0000
  H   H614      1.0  0.16114  0.52344  0.52910  1.0000
  H   H615      1.0  0.18979  0.58788  0.50879  1.0000
  C   C384      1.0  0.14889  0.96915  0.60107  1.0000
  C   C385      1.0  0.32286  0.92398  0.57858  1.0000
  H   H616      1.0  0.20071  0.96721  0.63236  1.0000
  C   C386      1.0  0.16472  0.64976  0.58971  1.0000
  C   C387      1.0  0.16550  0.63253  0.60150  1.0000
  C   C388      1.0  0.15462  0.61170  0.60309  1.0000
  C   C389      1.0  0.14328  0.60778  0.59282  1.0000
  C   C390      1.0  0.14294  0.62479  0.58092  1.0000
  C   C391      1.0  0.15344  0.64579  0.57944  1.0000
  H   H617      1.0  0.17411  0.63545  0.60948  1.0000
  H   H618      1.0  0.15495  0.59863  0.61232  1.0000
  H   H619      1.0  0.13417  0.62201  0.57298  1.0000
  H   H620      1.0  0.15264  0.65910  0.57031  1.0000
  S   S179      1.0  0.22835  0.51266  0.49110  1.0000
  H   H621      1.0  0.99986  0.52840  0.59573  1.0000
  C   C392      1.0  0.29973  0.67868  0.57671  1.0000
  H   H622      1.0  0.05525  0.51778  0.57036  1.0000
  C   C393      1.0  0.29294  0.70993  0.55734  1.0000
  H   H623      1.0  0.27044  0.94971  0.72943  1.0000
  N   N40       1.0  0.31495  0.83184  0.60420  1.0000
  H   H624      1.0  0.13546  0.96017  0.60828  1.0000
  C   C394      1.0  0.07861  0.53891  0.63698  1.0000
  C   C395      1.0  0.31066  0.69639  0.54891  1.0000
  C   C396      1.0  0.19078  0.96951  0.59002  1.0000
  H   H625      1.0  0.30315  0.97050  0.71503  1.0000
  C   C397      1.0  0.17348  0.95809  0.59948  1.0000
  C   C398      1.0  0.01206  0.52742  0.58582  1.0000
  H   H626      1.0  0.09602  0.51676  0.61501  1.0000
  H   H627      1.0  0.17897  0.94062  0.60545  1.0000
  C   C399      1.0  0.27589  0.97021  0.65172  1.0000
  H   H628      1.0  0.27722  0.84181  0.60203  1.0000
  H   H629      1.0  0.12559  0.54036  0.48946  1.0000
  Fe  Fe91      1.0  0.24792  0.52163  0.72723  1.0000
  H   H630      1.0  0.17483  0.97812  0.62401  1.0000
  C   C400      1.0  0.23655  0.82296  0.62363  1.0000
  C   C401      1.0  0.22199  0.83135  0.61359  1.0000
  C   C402      1.0  0.21398  0.81461  0.60764  1.0000
  C   C403      1.0  0.22102  0.78942  0.61141  1.0000
  C   C404      1.0  0.23642  0.78109  0.62105  1.0000
  C   C405      1.0  0.24367  0.79777  0.62736  1.0000
  H   H631      1.0  0.21642  0.85070  0.61062  1.0000
  H   H632      1.0  0.20214  0.82121  0.60014  1.0000
  H   H633      1.0  0.24265  0.76181  0.62370  1.0000
  H   H634      1.0  0.25518  0.79117  0.63503  1.0000
  H   H635      1.0  0.12896  0.53045  0.69668  1.0000
  C   C406      1.0  0.24745  0.60864  0.67703  1.0000
  C   C407      1.0  0.25712  0.61625  0.66343  1.0000
  C   C408      1.0  0.24378  0.63507  0.65529  1.0000
  C   C409      1.0  0.22081  0.64654  0.66079  1.0000
  C   C410      1.0  0.21131  0.63906  0.67439  1.0000
  C   C411      1.0  0.22451  0.62017  0.68245  1.0000
  H   H636      1.0  0.27490  0.60753  0.65915  1.0000
  H   H637      1.0  0.25132  0.64077  0.64481  1.0000
  H   H638      1.0  0.19362  0.64789  0.67873  1.0000
  H   H639      1.0  0.21702  0.61487  0.69292  1.0000
  C   C412      1.0  0.30101  0.96217  0.70642  1.0000
  H   H640      1.0  0.16243  0.49233  0.66929  1.0000
  C   C413      1.0  0.25087  0.97142  0.65621  1.0000
  C   C414      1.0  0.29189  0.82559  0.60238  1.0000
  H   H641      1.0  0.25521  0.94326  0.69638  1.0000
  H   H642      1.0  0.28512  0.95859  0.64438  1.0000
  H   H643      1.0  0.29391  0.81809  0.59286  1.0000
  C   C415      1.0  0.11848  0.51427  0.63614  1.0000
  C   C416      1.0  0.31090  0.84277  0.61665  1.0000
  H   H644      1.0  0.24956  0.62957  0.57637  1.0000
  H   H645      1.0  0.32669  0.84200  0.58275  1.0000
  H   H646      1.0  0.01018  0.52766  0.54125  1.0000
  C   C417      1.0  0.15828  0.51203  0.70738  1.0000
  C   C418      1.0  0.23918  0.98660  0.66576  1.0000
  H   H647      1.0  0.10402  0.57459  0.62414  1.0000
  C   C419      1.0  0.27412  0.94611  0.69614  1.0000
  H   H648      1.0  0.29401  0.52279  0.71484  1.0000
  C   C420      1.0  0.26947  0.94141  0.72055  1.0000
  C   C421      1.0  0.18535  0.97194  0.53567  1.0000
  C   C422      1.0  0.15338  0.57457  0.48681  1.0000
  N   N41       1.0  0.10378  0.53606  0.62947  1.0000
  H   H649      1.0  0.07809  0.54108  0.64765  1.0000
  H   H650      1.0  0.16671  0.96973  0.56236  1.0000
  C   C423      1.0  0.11451  0.55783  0.62930  1.0000
  H   H651      1.0  0.22113  0.56345  0.49411  1.0000
  C   C424      1.0  0.00387  0.54239  0.54705  1.0000
  C   C425      1.0  0.01291  0.57289  0.55825  1.0000
  H   H652      1.0  0.11937  0.51585  0.64671  1.0000
  H   H653      1.0  0.28623  0.92814  0.69615  1.0000
  H   H654      1.0  0.31442  0.94503  0.70624  1.0000
  S   S180      1.0  0.25749  0.55846  0.72668  1.0000
  H   H655      1.0  0.11064  0.49761  0.63655  1.0000
  H   H656      1.0  0.28325  0.72727  0.55313  1.0000
  C   C426      1.0  0.04387  0.50320  0.57232  1.0000
  C   C427      1.0  0.31213  0.94688  0.49069  1.0000
  H   H657      1.0  0.20379  0.50064  0.65848  1.0000
  H   H658      1.0  0.19747  0.95954  0.54236  1.0000
  H   H659      1.0  0.11499  0.56074  0.63971  1.0000
  H   H660      1.0  0.20463  0.97116  0.61432  1.0000
  H   H661      1.0  0.14404  0.49994  0.58903  1.0000
  H   H662      1.0  0.17384  0.96077  0.53271  1.0000
  H   H663      1.0  0.30515  0.93257  0.58306  1.0000
  H   H664      1.0  0.28478  0.50156  0.69823  1.0000
  H   H665      1.0  0.23975  0.97847  0.70792  1.0000
  N   N42       1.0  0.02746  0.50325  0.58550  1.0000
  H   H666      1.0  0.29795  0.94375  0.49932  1.0000
  C   C428      1.0  0.31784  0.66529  0.56833  1.0000
  H   H667      1.0  0.13744  0.51122  0.63053  1.0000
  H   H668      1.0  0.00028  0.53180  0.57786  1.0000
  H   H669      1.0  0.21982  0.98764  0.66928  1.0000
  H   H670      1.0  0.11746  0.56236  0.73226  1.0000
  H   H671      1.0  0.28671  0.52904  0.68616  1.0000
  H   H672      1.0  0.32506  0.96964  0.53162  1.0000
  H   H673      1.0  0.17122  0.58084  0.48539  1.0000
  C   C429      1.0  0.28775  0.70127  0.57122  1.0000
  H   H674      1.0  0.05444  0.51143  0.59523  1.0000
  C   C430      1.0  0.10354  0.53323  0.61541  1.0000
  N   N43       1.0  0.17991  0.75126  0.64867  1.0000
  C   C431      1.0  0.20436  0.73956  0.64297  1.0000
  C   C432      1.0  0.17693  0.77769  0.64351  1.0000
  C   C433      1.0  0.17722  0.74694  0.66361  1.0000
  C   C434      1.0  0.16130  0.74070  0.64451  1.0000
  H   H675      1.0  0.20674  0.74199  0.63174  1.0000
  H   H676      1.0  0.20749  0.71966  0.64675  1.0000
  H   H677      1.0  0.21893  0.74726  0.64571  1.0000
  H   H678      1.0  0.19102  0.78621  0.64620  1.0000
  H   H679      1.0  0.17879  0.78138  0.63224  1.0000
  H   H680      1.0  0.15874  0.78725  0.64764  1.0000
  H   H681      1.0  0.19114  0.75453  0.66706  1.0000
  H   H682      1.0  0.17950  0.72706  0.66768  1.0000
  H   H683      1.0  0.15896  0.75547  0.66830  1.0000
  H   H684      1.0  0.14259  0.74824  0.64912  1.0000
  H   H685      1.0  0.16395  0.72051  0.64755  1.0000
  H   H686      1.0  0.16216  0.74463  0.63331  1.0000
  N   N44       1.0  0.23926  0.65873  0.56057  1.0000
  C   C435      1.0  0.23144  0.68541  0.55877  1.0000
  C   C436      1.0  0.26218  0.65286  0.55118  1.0000
  C   C437      1.0  0.22017  0.64714  0.55765  1.0000
  C   C438      1.0  0.24328  0.64957  0.57468  1.0000
  H   H687      1.0  0.21414  0.69054  0.56566  1.0000
  H   H688      1.0  0.22834  0.69296  0.54823  1.0000
  H   H689      1.0  0.24530  0.69473  0.56102  1.0000
  H   H690      1.0  0.26858  0.63288  0.55218  1.0000
  H   H691      1.0  0.25994  0.65977  0.54044  1.0000
  H   H692      1.0  0.27693  0.66124  0.55323  1.0000
  H   H693      1.0  0.22523  0.62697  0.55908  1.0000
  H   H694      1.0  0.19715  0.97926  0.52629  1.0000
  H   H695      1.0  0.07003  0.52274  0.63729  1.0000
  C   C439      1.0  0.32337  0.67416  0.55442  1.0000
  H   H696      1.0  0.31026  0.86660  0.59129  1.0000
  H   H697      1.0  0.31928  0.94234  0.55832  1.0000
  H   H698      1.0  0.25060  0.93764  0.72178  1.0000
  H   H699      1.0  0.02328  0.54213  0.58402  1.0000
  H   H700      1.0  0.03048  0.49787  0.60662  1.0000
  C   C440      1.0  0.25883  0.98098  0.70746  1.0000
  H   H701      1.0  0.06700  0.55519  0.63217  1.0000
  S   S181      1.0  0.31652  0.70807  0.53162  1.0000
  C   C441      1.0  0.19441  0.97916  0.62331  1.0000
  C   C442      1.0  0.28915  0.98369  0.65695  1.0000
  H   H702      1.0  0.29716  0.85962  0.61604  1.0000
  H   H703      1.0  0.30397  0.83023  0.62579  1.0000
  C   C443      1.0  0.04215  0.49783  0.59650  1.0000
  C   C444      1.0  0.32360  0.84941  0.59238  1.0000
  H   H704      1.0  0.13346  0.55630  0.62359  1.0000
  H   H705      1.0  0.09251  0.54937  0.61014  1.0000
  H   H706      1.0  0.11961  0.49263  0.69144  1.0000
  N   N45       1.0  0.27585  0.95765  0.70765  1.0000
  H   H707      1.0  0.29786  0.54963  0.70261  1.0000
  C   C445      1.0  0.15524  0.98130  0.55506  1.0000
  H   H708      1.0  0.30977  0.97848  0.50952  1.0000
  H   H709      1.0  0.32180  0.53482  0.71204  1.0000
  C   C446      1.0  0.30743  0.53156  0.70693  1.0000
  H   H710      1.0  0.16995  0.52654  0.48839  1.0000
  H   H711      1.0  0.28204  0.92368  0.72113  1.0000
  H   H712      1.0  0.32497  0.54657  0.68096  1.0000
  H   H713      1.0  0.28532  0.81181  0.61093  1.0000
  H   H714      1.0  0.30859  0.98229  0.65360  1.0000
  H   H715      1.0  0.14317  0.96987  0.55285  1.0000
  H   H716      1.0  0.30447  0.50058  0.68218  1.0000
  N   N46       1.0  0.31760  0.51614  0.69640  1.0000
  H   H717      1.0  0.03351  0.50619  0.56380  1.0000
  C   C447      1.0  0.29754  0.51162  0.69044  1.0000
  H   H718      1.0  0.13910  0.59105  0.48611  1.0000
  H   H719      1.0  0.25906  0.98981  0.71624  1.0000
  C   C448      1.0  0.13422  0.49164  0.69700  1.0000
  H   H720      1.0  0.17436  0.98042  0.88037  1.0000
  S   S182      1.0  0.22509  0.96073  0.95638  1.0000
  C   C449      1.0  0.24111  0.61117  0.75381  1.0000
  H   H721      1.0  0.15711  0.96682  0.89572  1.0000
  S   S183      1.0  0.29212  0.51785  0.96692  1.0000
  Fe  Fe92      1.0  0.23123  0.56178  0.97341  1.0000
  S   S184      1.0  0.23822  0.53589  0.95856  1.0000
  H   H722      1.0  0.13261  0.64330  0.95448  1.0000
  S   S185      1.0  0.31490  0.89659  0.80627  1.0000
  Fe  Fe93      1.0  0.27489  0.54734  0.95206  1.0000
  H   H723      1.0  0.25189  0.70662  0.76650  1.0000
  H   H724      1.0  0.08107  0.64695  0.89616  1.0000
  S   S186      1.0  0.26672  0.57552  0.96576  1.0000
  Fe  Fe94      1.0  0.12512  0.92578  0.92028  1.0000
  S   S187      1.0  0.11768  0.93309  0.89881  1.0000
  S   S188      1.0  0.13876  0.95756  0.92551  1.0000
  Fe  Fe95      1.0  0.10889  0.87599  0.92551  1.0000
  S   S189      1.0  0.10026  0.88026  0.90465  1.0000
  S   S190      1.0  0.10355  0.83959  0.93819  1.0000
  Fe  Fe96      1.0  0.13536  0.89445  0.89805  1.0000
  S   S191      1.0  0.16373  0.87758  0.88238  1.0000
  Fe  Fe97      1.0  0.08305  0.91809  0.90761  1.0000
  S   S192      1.0  0.04766  0.93428  0.89985  1.0000
  S   S193      1.0  0.14535  0.88789  0.91880  1.0000
  S   S194      1.0  0.08901  0.91329  0.92916  1.0000
  Fe  Fe98      1.0  0.07430  0.68930  0.91965  1.0000
  S   S195      1.0  0.09547  0.71156  0.92768  1.0000
  S   S196      1.0  0.03630  0.68178  0.92904  1.0000
  Fe  Fe99      1.0  0.11468  0.67756  0.89667  1.0000
  S   S197      1.0  0.13884  0.69925  0.90215  1.0000
  S   S198      1.0  0.12652  0.65499  0.87999  1.0000
  Fe  Fe100     1.0  0.12760  0.68206  0.92363  1.0000
  S   S199      1.0  0.16127  0.67359  0.93348  1.0000
  Fe  Fe101     1.0  0.10553  0.72708  0.90582  1.0000
  S   S200      1.0  0.10998  0.76602  0.89792  1.0000
  S   S201      1.0  0.10560  0.65808  0.91785  1.0000
  S   S202      1.0  0.08219  0.70712  0.89799  1.0000
  C   C450      1.0  0.29329  0.74324  0.75121  1.0000
  S   S203      1.0  0.27984  0.94914  0.81178  1.0000
  H   H725      1.0  0.31000  0.51543  0.89275  1.0000
  Fe  Fe102     1.0  0.28260  0.87844  0.81616  1.0000
  S   S204      1.0  0.25613  0.90506  0.80458  1.0000
  S   S205      1.0  0.28014  0.83820  0.82309  1.0000
  Fe  Fe103     1.0  0.28769  0.92493  0.79588  1.0000
  S   S206      1.0  0.29956  0.93854  0.77365  1.0000
  Fe  Fe104     1.0  0.25069  0.92660  0.82155  1.0000
  S   S207      1.0  0.21303  0.94300  0.83098  1.0000
  H   H726      1.0  0.16284  0.95307  0.88075  1.0000
  S   S208      1.0  0.27523  0.89905  0.83365  1.0000
  Fe  Fe105     1.0  0.24581  0.67444  0.79489  1.0000
  S   S209      1.0  0.22876  0.66132  0.81638  1.0000
  S   S210      1.0  0.25794  0.65561  0.77625  1.0000
  Fe  Fe106     1.0  0.25257  0.72321  0.80157  1.0000
  S   S211      1.0  0.23633  0.71405  0.82338  1.0000
  S   S212      1.0  0.26521  0.75857  0.79054  1.0000
  Fe  Fe107     1.0  0.25797  0.67655  0.82247  1.0000
  S   S213      1.0  0.27820  0.65938  0.83987  1.0000
  Fe  Fe108     1.0  0.20842  0.69974  0.81574  1.0000
  S   S214      1.0  0.16935  0.71332  0.82408  1.0000
  S   S215      1.0  0.27664  0.68678  0.80126  1.0000
  S   S216      1.0  0.22294  0.71164  0.79387  1.0000
  H   H727      1.0  0.06199  0.82100  0.87720  1.0000
  C   C451      1.0  0.29841  0.70723  0.76799  1.0000
  H   H728      1.0  0.15110  0.71781  0.94903  1.0000
  C   C452      1.0  0.24189  0.63704  0.77032  1.0000
  C   C453      1.0  0.21826  0.63347  0.77637  1.0000
  C   C454      1.0  0.20612  0.61888  0.77113  1.0000
  C   C455      1.0  0.21747  0.60764  0.75984  1.0000
  H   H729      1.0  0.22903  0.93215  0.88139  1.0000
  N   N47       1.0  0.28507  0.71967  0.75685  1.0000
  H   H730      1.0  0.20932  0.64200  0.78506  1.0000
  H   H731      1.0  0.18785  0.61628  0.77587  1.0000
  C   C456      1.0  0.22863  0.70052  0.86086  1.0000
  H   H732      1.0  0.18002  0.91439  0.89372  1.0000
  C   C457      1.0  0.27624  0.81652  0.81367  1.0000
  C   C458      1.0  0.27128  0.79372  0.82068  1.0000
  C   C459      1.0  0.26757  0.77597  0.81374  1.0000
  C   C460      1.0  0.26900  0.78078  0.79966  1.0000
  C   C461      1.0  0.27382  0.80366  0.79263  1.0000
  C   C462      1.0  0.27732  0.82153  0.79961  1.0000
  C   C463      1.0  0.27755  0.98794  0.74252  1.0000
  H   H733      1.0  0.26407  0.75841  0.81926  1.0000
  H   H734      1.0  0.21834  0.71595  0.85464  1.0000
  H   H735      1.0  0.18668  0.50678  0.97229  1.0000
  Fe  Fe109     1.0  0.21833  0.56846  0.73615  1.0000
  H   H736      1.0  0.24801  0.73333  0.75397  1.0000
  H   H737      1.0  0.22050  0.95075  0.90249  1.0000
  C   C464      1.0  0.28093  0.96047  0.76380  1.0000
  H   H738      1.0  0.21998  0.64371  0.87668  1.0000
  H   H739      1.0  0.22859  0.66425  0.84701  1.0000
  C   C465      1.0  0.20385  0.96161  0.89879  1.0000
  H   H740      1.0  0.14869  0.56690  0.96395  1.0000
  C   C466      1.0  0.13732  0.67131  0.86426  1.0000
  C   C467      1.0  0.15041  0.65870  0.85387  1.0000
  C   C468      1.0  0.16022  0.67148  0.84144  1.0000
  C   C469      1.0  0.15651  0.69691  0.83930  1.0000
  C   C470      1.0  0.14279  0.70951  0.84956  1.0000
  C   C471      1.0  0.13344  0.69673  0.86209  1.0000
  H   H741      1.0  0.15336  0.63902  0.85551  1.0000
  H   H742      1.0  0.17062  0.66171  0.83349  1.0000
  H   H743      1.0  0.13981  0.72920  0.84789  1.0000
  H   H744      1.0  0.12329  0.70658  0.87006  1.0000
  S   S217      1.0  0.20139  0.58963  0.75349  1.0000
  C   C472      1.0  0.01300  0.68876  0.91904  1.0000
  C   C473      1.0  0.01489  0.70504  0.90685  1.0000
  H   H745      1.0  0.12722  0.52394  0.96008  1.0000
  C   C474      1.0  0.28865  0.55557  0.86660  1.0000
  H   H746      1.0  0.03042  0.71427  0.90362  1.0000
  H   H747      1.0  0.19363  0.69398  0.88269  1.0000
  C   C475      1.0  0.17687  0.89650  0.86835  1.0000
  C   C476      1.0  0.16457  0.91937  0.86340  1.0000
  C   C477      1.0  0.17578  0.93372  0.85193  1.0000
  C   C478      1.0  0.19924  0.92521  0.84545  1.0000
  C   C479      1.0  0.21135  0.90239  0.85052  1.0000
  C   C480      1.0  0.20022  0.88809  0.86189  1.0000
  H   H748      1.0  0.14633  0.92578  0.86825  1.0000
  H   H749      1.0  0.16620  0.95131  0.84798  1.0000
  H   H750      1.0  0.22917  0.89551  0.84560  1.0000
  H   H751      1.0  0.20983  0.87046  0.86576  1.0000
  C   C481      1.0  0.02272  0.91848  0.90532  1.0000
  C   C482      1.0  0.02327  0.89860  0.91582  1.0000
  C   C483      1.0  0.31276  0.51556  0.86607  1.0000
  H   H752      1.0  0.03867  0.89345  0.92115  1.0000
  C   C484      1.0  0.22954  0.65970  0.87334  1.0000
  C   C485      1.0  0.10689  0.81777  0.92758  1.0000
  C   C486      1.0  0.12135  0.82056  0.91477  1.0000
  C   C487      1.0  0.12239  0.80436  0.90585  1.0000
  C   C488      1.0  0.10960  0.78478  0.90980  1.0000
  C   C489      1.0  0.09606  0.78118  0.92285  1.0000
  C   C490      1.0  0.09460  0.79777  0.93171  1.0000
  H   H753      1.0  0.13161  0.83541  0.91166  1.0000
  H   H754      1.0  0.13308  0.80713  0.89581  1.0000
  H   H755      1.0  0.08597  0.76623  0.92595  1.0000
  H   H756      1.0  0.08346  0.79548  0.94164  1.0000
  C   C491      1.0  0.18372  0.60620  0.96398  1.0000
  C   C492      1.0  0.20117  0.61649  0.95407  1.0000
  C   C493      1.0  0.19395  0.63681  0.94457  1.0000
  C   C494      1.0  0.16922  0.64644  0.94458  1.0000
  C   C495      1.0  0.15168  0.63569  0.95422  1.0000
  H   H757      1.0  0.14537  0.60832  0.97182  1.0000
  H   H758      1.0  0.22029  0.60925  0.95397  1.0000
  H   H759      1.0  0.20763  0.64518  0.93722  1.0000
  H   H760      1.0  0.27981  0.52140  0.88864  1.0000
  H   H761      1.0  0.20162  0.68635  0.84642  1.0000
  H   H762      1.0  0.28352  0.75328  0.74283  1.0000
  H   H763      1.0  0.28985  0.75513  0.75915  1.0000
  C   C496      1.0  0.29810  0.63190  0.83782  1.0000
  H   H764      1.0  0.27145  0.54866  0.86710  1.0000
  C   C497      1.0  0.16332  0.95767  0.93383  1.0000
  H   H765      1.0  0.27050  0.78966  0.83156  1.0000
  H   H766      1.0  0.00474  0.86958  0.92733  1.0000
  C   C498      1.0  0.20208  0.96000  0.94702  1.0000
  C   C499      1.0  0.19559  0.93752  0.94665  1.0000
  C   C500      1.0  0.17639  0.93631  0.94002  1.0000
  H   H767      1.0  0.07551  0.83818  0.90790  1.0000
  H   H768      1.0  0.32087  0.52067  0.85524  1.0000
  H   H769      1.0  0.20529  0.92094  0.95166  1.0000
  H   H770      1.0  0.17148  0.91891  0.93989  1.0000
  H   H771      1.0  0.05142  0.66027  0.90359  1.0000
  C   C501      1.0  0.21156  0.94289  0.87868  1.0000
  H   H772      1.0  0.15633  0.54483  0.74025  1.0000
  C   C502      1.0  0.25870  0.72401  0.76208  1.0000
  Fe  Fe110     1.0  0.30497  0.91974  0.82275  1.0000
  N   N48       1.0  0.13377  0.57813  0.74503  1.0000
  H   H773      1.0  0.28414  0.57217  0.87149  1.0000
  C   C503      1.0  0.18946  0.98127  0.94047  1.0000
  H   H774      1.0  0.16918  0.72358  0.91920  1.0000
  H   H775      1.0  0.31706  0.63334  0.85391  1.0000
  C   C504      1.0  0.12637  0.59143  0.75668  1.0000
  C   C505      1.0  0.31551  0.62294  0.84638  1.0000
  H   H776      1.0  0.99828  0.72204  0.88932  1.0000
  C   C506      1.0  0.15896  0.61586  0.96403  1.0000
  H   H777      1.0  0.25443  0.73559  0.77016  1.0000
  H   H778      1.0  0.25007  0.60268  0.74512  1.0000
  C   C507      1.0  0.15015  0.55522  0.74886  1.0000
  H   H779      1.0  0.05798  0.62838  0.90275  1.0000
  C   C508      1.0  0.29132  0.97004  0.75073  1.0000
  N   N49       1.0  0.05352  0.65161  0.88373  1.0000
  C   C509      1.0  0.06790  0.63352  0.87536  1.0000
  C   C510      1.0  0.02737  0.65007  0.88552  1.0000
  C   C511      1.0  0.05754  0.67627  0.87690  1.0000
  C   C512      1.0  0.06131  0.64657  0.89714  1.0000
  H   H780      1.0  0.08771  0.63443  0.87375  1.0000
  H   H781      1.0  0.06245  0.63670  0.86519  1.0000
  H   H782      1.0  0.30958  0.70028  0.74212  1.0000
  H   H783      1.0  0.32337  0.57647  0.90637  1.0000
  H   H784      1.0  0.01612  0.66304  0.89208  1.0000
  H   H785      1.0  0.11677  0.58045  0.76563  1.0000
  H   H786      1.0  0.04691  0.69042  0.88289  1.0000
  H   H787      1.0  0.05203  0.68064  0.86671  1.0000
  H   H788      1.0  0.07709  0.67809  0.87547  1.0000
  H   H789      1.0  0.31315  0.74073  0.74722  1.0000
  C   C513      1.0  0.24240  0.98625  0.76015  1.0000
  H   H790      1.0  0.11407  0.60890  0.75416  1.0000
  H   H791      1.0  0.23290  0.66539  0.88256  1.0000
  C   C514      1.0  0.31177  0.59620  0.82685  1.0000
  Fe  Fe111     1.0  0.28252  0.54544  0.98106  1.0000
  H   H792      1.0  0.18156  0.53129  0.98189  1.0000
  H   H793      1.0  0.23216  0.70734  0.86967  1.0000
  H   H794      1.0  0.15568  0.75491  0.91479  1.0000
  C   C515      1.0  0.17001  0.98011  0.93406  1.0000
  C   C516      1.0  0.30993  0.49529  0.73993  1.0000
  H   H795      1.0  0.10200  0.56093  0.74948  1.0000
  C   C517      1.0  0.00403  0.88513  0.91931  1.0000
  N   N50       1.0  0.15121  0.52910  0.97277  1.0000
  C   C518      1.0  0.14700  0.52167  0.96043  1.0000
  S   S218      1.0  0.29131  0.56164  0.93053  1.0000
  H   H796      1.0  0.14804  0.78270  0.93196  1.0000
  C   C519      1.0  0.17104  0.96276  0.88673  1.0000
  H   H797      1.0  0.14107  0.54316  0.75748  1.0000
  S   S219      1.0  0.19237  0.58176  0.97663  1.0000
  H   H798      1.0  0.32016  0.57943  0.96388  1.0000
  H   H799      1.0  0.17487  0.72882  0.95421  1.0000
  H   H800      1.0  0.27502  0.80754  0.78174  1.0000
  H   H801      1.0  0.19854  0.75774  0.93742  1.0000
  C   C520      1.0  0.25320  0.62583  0.75901  1.0000
  C   C521      1.0  0.19084  0.75290  0.92927  1.0000
  H   H802      1.0  0.14256  0.59584  0.75980  1.0000
  H   H803      1.0  0.15611  0.77149  0.94841  1.0000
  H   H804      1.0  0.16664  0.55882  0.75200  1.0000
  C   C522      1.0  0.31559  0.54477  0.92086  1.0000
  C   C523      1.0  0.17765  0.52596  0.97269  1.0000
  H   H805      1.0  0.01906  0.83827  0.88579  1.0000
  H   H806      1.0  0.24819  0.96124  0.77864  1.0000
  H   H807      1.0  0.30220  0.51426  0.73750  1.0000
  H   H808      1.0  0.18215  0.70894  0.94177  1.0000
  N   N51       1.0  0.05018  0.83878  0.89475  1.0000
  C   C524      1.0  0.05633  0.83610  0.90843  1.0000
  C   C525      1.0  0.06600  0.81965  0.88759  1.0000
  C   C526      1.0  0.05406  0.86299  0.88708  1.0000
  C   C527      1.0  0.02441  0.83633  0.89591  1.0000
  C   C528      1.0  0.00245  0.92521  0.89862  1.0000
  H   H809      1.0  0.29640  0.50742  0.86630  1.0000
  H   H810      1.0  0.05393  0.81796  0.91447  1.0000
  H   H811      1.0  0.28117  0.83900  0.79409  1.0000
  H   H812      1.0  0.30671  0.96565  0.86967  1.0000
  H   H813      1.0  0.06370  0.80111  0.89315  1.0000
  C   C529      1.0  0.29635  0.61855  0.82800  1.0000
  C   C530      1.0  0.15586  0.96799  0.97612  1.0000
  H   H814      1.0  0.04935  0.86579  0.87675  1.0000
  Fe  Fe112     1.0  0.25451  0.50925  0.97499  1.0000
  H   H815      1.0  0.01203  0.85058  0.90123  1.0000
  H   H816      1.0  0.02074  0.81839  0.90176  1.0000
  N   N52       1.0  0.16666  0.74576  0.93446  1.0000
  C   C531      1.0  0.29659  0.52935  0.88756  1.0000
  C   C532      1.0  0.15723  0.73942  0.92331  1.0000
  H   H817      1.0  0.18065  0.67244  0.87676  1.0000
  C   C533      1.0  0.16879  0.72448  0.94537  1.0000
  H   H818      1.0  0.18022  0.70274  0.86754  1.0000
  C   C534      1.0  0.32242  0.51969  0.92455  1.0000
  H   H819      1.0  0.20023  0.65635  0.85602  1.0000
  H   H820      1.0  0.07334  0.86549  0.88596  1.0000
  H   H821      1.0  0.29201  0.54500  0.89323  1.0000
  H   H822      1.0  0.14399  0.56126  0.98204  1.0000
  C   C535      1.0  0.21118  0.67131  0.85317  1.0000
  H   H823      1.0  0.16320  0.59778  0.73612  1.0000
  C   C536      1.0  0.14050  0.55497  0.97301  1.0000
  H   H824      1.0  0.18655  0.53768  0.96383  1.0000
  H   H825      1.0  0.14664  0.97086  0.96712  1.0000
  H   H826      1.0  0.20399  0.73785  0.92503  1.0000
  C   C537      1.0  0.30277  0.98087  0.87566  1.0000
  H   H827      1.0  0.18979  0.76900  0.92106  1.0000
  H   H828      1.0  0.28298  0.62534  0.82135  1.0000
  C   C538      1.0  0.18825  0.92487  0.89927  1.0000
  C   C539      1.0  0.14978  0.76627  0.93988  1.0000
  H   H829      1.0  0.27146  0.62844  0.75426  1.0000
  N   N53       1.0  0.21520  0.67978  0.86522  1.0000
  H   H830      1.0  0.31029  0.96377  0.74701  1.0000
  H   H831      1.0  0.15555  0.53270  0.95110  1.0000
  H   H832      1.0  0.00189  0.94062  0.89051  1.0000
  H   H833      1.0  0.12049  0.55819  0.97324  1.0000
  H   H834      1.0  0.17456  0.95795  0.97329  1.0000
  N   N54       1.0  0.19370  0.94804  0.89085  1.0000
  H   H835      1.0  0.08560  0.82092  0.88664  1.0000
  H   H836      1.0  0.04262  0.87787  0.89227  1.0000
  H   H837      1.0  0.21556  0.95992  0.87182  1.0000
  H   H838      1.0  0.31840  0.70390  0.76448  1.0000
  H   H839      1.0  0.24659  0.69526  0.85452  1.0000
  C   C540      1.0  0.25639  0.96860  0.76855  1.0000
  C   C541      1.0  0.11213  0.57248  0.74104  1.0000
  H   H840      1.0  0.15492  0.50220  0.96000  1.0000
  H   H841      1.0  0.13881  0.73437  0.92682  1.0000
  H   H842      1.0  0.04484  0.85008  0.91421  1.0000
  H   H843      1.0  0.20493  0.91301  0.90240  1.0000
  C   C542      1.0  0.19142  0.68759  0.87343  1.0000
  H   H844      1.0  0.19048  0.96623  0.90785  1.0000
  C   C543      1.0  0.99652  0.70962  0.89882  1.0000
  H   H845      1.0  0.24762  0.65351  0.86737  1.0000
  N   N55       1.0  0.30664  0.53688  0.87316  1.0000
  H   H846      1.0  0.28361  0.68630  0.75034  1.0000
  H   H847      1.0  0.13123  0.76167  0.94370  1.0000
  N   N56       1.0  0.20364  0.85537  0.82581  1.0000
  C   C544      1.0  0.21846  0.84708  0.83674  1.0000
  C   C545      1.0  0.21889  0.85100  0.81272  1.0000
  C   C546      1.0  0.19409  0.88166  0.82523  1.0000
  C   C547      1.0  0.18315  0.84168  0.82857  1.0000
  H   H848      1.0  0.20726  0.84862  0.84688  1.0000
  H   H849      1.0  0.23319  0.85809  0.83544  1.0000
  H   H850      1.0  0.22754  0.82779  0.83683  1.0000
  H   H851      1.0  0.20874  0.85803  0.80411  1.0000
  H   H852      1.0  0.23526  0.85997  0.81068  1.0000
  H   H853      1.0  0.22560  0.83122  0.81262  1.0000
  H   H854      1.0  0.20911  0.89253  0.82322  1.0000
  H   H855      1.0  0.18251  0.88563  0.83496  1.0000
  H   H856      1.0  0.18292  0.88868  0.81705  1.0000
  H   H857      1.0  0.17174  0.84729  0.82044  1.0000
  H   H858      1.0  0.17117  0.84474  0.83835  1.0000
  H   H859      1.0  0.18982  0.82175  0.82922  1.0000
  H   H860      1.0  0.29493  0.71825  0.77631  1.0000
  H   H861      1.0  0.06562  0.61465  0.88027  1.0000
  H   H862      1.0  0.20466  0.93212  0.87269  1.0000
  H   H863      1.0  0.29583  0.56139  0.85570  1.0000
  H   H864      1.0  0.17518  0.92810  0.90867  1.0000
  H   H865      1.0  0.02060  0.65447  0.87566  1.0000
  H   H866      1.0  0.02372  0.63157  0.89039  1.0000
  S   S220      1.0  0.20977  0.53066  0.73822  1.0000
  H   H867      1.0  0.09939  0.58933  0.73797  1.0000
  C   C548      1.0  0.28982  0.70417  0.74623  1.0000
  H   H868      1.0  0.29286  0.68922  0.77239  1.0000
  H   H869      1.0  0.32632  0.97038  0.81651  1.0000
  H   H870      1.0  0.28001  0.71291  0.73765  1.0000
  H   H871      1.0  0.32634  0.50112  0.87079  1.0000
  H   H872      1.0  0.31263  0.51009  0.93353  1.0000
  H   H873      1.0  0.20858  0.97900  0.89269  1.0000
  H   H874      1.0  0.31472  0.58328  0.94680  1.0000
  H   H875      1.0  0.31017  0.58583  0.81931  1.0000
  H   H876      1.0  0.30229  0.97264  0.88653  1.0000
  H   H877      1.0  0.32519  0.56313  0.87766  1.0000
  H   H878      1.0  0.32229  0.51188  0.79869  1.0000
  Fe  Fe113     1.0  0.56717  0.08230  0.06698  1.0000
  S   S221      1.0  0.58564  0.04335  0.06934  1.0000
  S   S222      1.0  0.52651  0.09327  0.06689  1.0000
  Fe  Fe114     1.0  0.61493  0.10182  0.06508  1.0000
  S   S223      1.0  0.63670  0.06424  0.06659  1.0000
  N   N57       1.0  0.34356  0.47965  0.03884  1.0000
  Fe  Fe115     1.0  0.61411  0.05741  0.05253  1.0000
  S   S224      1.0  0.62899  0.03779  0.03464  1.0000
  Fe  Fe116     1.0  0.60642  0.05434  0.08317  1.0000
  S   S225      1.0  0.61547  0.03762  0.10386  1.0000
  S   S226      1.0  0.59463  0.09593  0.04947  1.0000
  S   S227      1.0  0.58554  0.09232  0.08235  1.0000
  Fe  Fe117     1.0  0.37347  0.04454  0.03627  1.0000
  N   N58       1.0  0.44764  0.99797  0.08872  1.0000
  H   H879      1.0  0.33411  0.10704  0.01802  1.0000
  Fe  Fe118     1.0  0.41875  0.04285  0.04945  1.0000
  S   S228      1.0  0.39605  0.05206  0.06899  1.0000
  S   S229      1.0  0.46006  0.03296  0.04752  1.0000
  Fe  Fe119     1.0  0.37417  0.02483  0.06653  1.0000
  H   H880      1.0  0.34239  0.47272  0.08069  1.0000
  Fe  Fe120     1.0  0.37219  0.07882  0.05598  1.0000
  H   H881      1.0  0.34149  0.09457  0.03443  1.0000
  S   S230      1.0  0.39784  0.01402  0.04749  1.0000
  S   S231      1.0  0.39679  0.07222  0.03656  1.0000
  C   C549      1.0  0.56937  0.06659  0.03058  1.0000
  H   H882      1.0  0.42282  0.00754  0.10650  1.0000
  H   H883      1.0  0.66023  0.06765  0.16018  1.0000
  H   H884      1.0  0.63315  0.42208  0.10638  1.0000
  H   H885      1.0  0.37045  0.38648  0.07498  1.0000
  C   C550      1.0  0.54210  0.00123  0.14092  1.0000
  C   C551      1.0  0.37323  0.44578  0.07501  1.0000
  H   H886      1.0  0.36036  0.17957  0.08268  1.0000
  H   H887      1.0  0.52581  0.01464  0.13848  1.0000
  H   H888      1.0  0.55612  0.07290  0.99891  1.0000
  C   C552      1.0  0.55875  0.00176  0.11720  1.0000
  S   S232      1.0  0.35695  0.05305  0.01683  1.0000
  H   H889      1.0  0.43256  0.00159  0.07051  1.0000
  C   C553      1.0  0.62259  0.14433  0.08791  1.0000
  N   N59       1.0  0.56455  0.05785  0.01880  1.0000
  H   H890      1.0  0.35683  0.48842  0.05529  1.0000
  C   C554      1.0  0.33825  0.03705  0.01102  1.0000
  H   H891      1.0  0.54286  0.01485  0.11392  1.0000
  H   H892      1.0  0.60616  0.13721  0.08819  1.0000
  C   C555      1.0  0.33117  0.11754  0.07291  1.0000
  S   S233      1.0  0.34820  0.05254  0.05530  1.0000
  H   H893      1.0  0.54390  0.09223  0.01152  1.0000
  C   C556      1.0  0.32898  0.10890  0.02893  1.0000
  C   C557      1.0  0.32906  0.09661  0.08255  1.0000
  H   H894      1.0  0.33074  0.45426  0.13873  1.0000
  S   S234      1.0  0.35410  0.11701  0.05864  1.0000
  H   H895      1.0  0.66026  0.02211  0.01084  1.0000
  H   H896      1.0  0.59028  0.02475  0.02177  1.0000
  C   C558      1.0  0.42332  0.99970  0.09726  1.0000
  H   H897      1.0  0.33654  0.14890  0.09599  1.0000
  H   H898      1.0  0.34152  0.07986  0.08121  1.0000
  H   H899      1.0  0.64504  0.23066  0.09194  1.0000
  C   C559      1.0  0.50828  0.07600  0.06168  1.0000
  C   C560      1.0  0.48358  0.08549  0.06133  1.0000
  C   C561      1.0  0.46853  0.07251  0.05707  1.0000
  C   C562      1.0  0.47813  0.04992  0.05305  1.0000
  C   C563      1.0  0.50273  0.04022  0.05360  1.0000
  C   C564      1.0  0.51777  0.05317  0.05790  1.0000
  H   H900      1.0  0.47607  0.10311  0.06428  1.0000
  H   H901      1.0  0.44960  0.08014  0.05674  1.0000
  H   H902      1.0  0.51015  0.02255  0.05072  1.0000
  H   H903      1.0  0.53664  0.04551  0.05832  1.0000
  H   H904      1.0  0.36696  0.44035  0.10555  1.0000
  H   H905      1.0  0.47384  0.02134  0.07934  1.0000
  N   N60       1.0  0.65604  0.26081  0.09785  1.0000
  C   C565      1.0  0.45530  0.02213  0.08548  1.0000
  H   H906      1.0  0.63311  0.00751  0.12678  1.0000
  C   C566      1.0  0.62559  0.15426  0.09898  1.0000
  N   N61       1.0  0.34645  0.46622  0.11815  1.0000
  H   H907      1.0  0.36893  0.47163  0.09858  1.0000
  S   S235      1.0  0.35876  0.00195  0.08574  1.0000
  H   H908      1.0  0.55359  0.07954  0.03482  1.0000
  H   H909      1.0  0.36849  0.47448  0.02042  1.0000
  H   H910      1.0  0.61895  0.27890  0.10124  1.0000
  H   H911      1.0  0.58551  0.07598  0.02772  1.0000
  H   H912      1.0  0.54596  0.02974  0.03115  1.0000
  C   C567      1.0  0.38099  0.42143  0.07343  1.0000
  C   C568      1.0  0.33986  0.41310  0.08135  1.0000
  H   H913      1.0  0.45552  0.02947  0.09479  1.0000
  H   H914      1.0  0.64152  0.07548  0.10992  1.0000
  H   H915      1.0  0.57340  0.05126  0.03888  1.0000
  C   C569      1.0  0.36776  0.45831  0.10816  1.0000
  C   C570      1.0  0.62338  0.00594  0.10763  1.0000
  C   C571      1.0  0.33195  0.43747  0.08302  1.0000
  H   H916      1.0  0.64068  0.00526  0.18312  1.0000
  H   H917      1.0  0.36267  0.44685  0.04900  1.0000
  H   H918      1.0  0.39995  0.41505  0.06977  1.0000
  H   H919      1.0  0.44283  0.03556  0.07944  1.0000
  H   H920      1.0  0.34108  0.19217  0.11805  1.0000
  C   C572      1.0  0.58600  0.04059  0.01376  1.0000
  S   S236      1.0  0.39493  0.46534  0.07080  1.0000
  C   C573      1.0  0.36431  0.40526  0.07638  1.0000
  C   C574      1.0  0.34604  0.45333  0.04423  1.0000
  H   H921      1.0  0.65950  0.43627  0.10022  1.0000
  H   H922      1.0  0.58315  0.03349  0.00488  1.0000
  S   S237      1.0  0.63799  0.13122  0.06246  1.0000
  C   C575      1.0  0.36562  0.48462  0.02905  1.0000
  H   H923      1.0  0.57581  0.08847  0.00468  1.0000
  H   H924      1.0  0.65500  0.41249  0.09226  1.0000
  H   H925      1.0  0.63829  0.37854  0.11797  1.0000
  H   H926      1.0  0.37088  0.18198  0.09779  1.0000
  H   H927      1.0  0.38514  0.45656  0.11201  1.0000
  C   C576      1.0  0.54304  0.04551  0.02292  1.0000
  C   C577      1.0  0.64695  0.16332  0.09879  1.0000
  C   C578      1.0  0.55987  0.07878  0.00798  1.0000
  H   H928      1.0  0.63999  0.29747  0.09082  1.0000
  H   H929      1.0  0.33024  0.44899  0.05212  1.0000
  H   H930      1.0  0.60261  0.04934  0.01067  1.0000
  H   H931      1.0  0.61139  0.15474  0.10776  1.0000
  C   C579      1.0  0.65882  0.48770  0.09587  1.0000
  H   H932      1.0  0.52654  0.05808  0.02677  1.0000
  H   H933      1.0  0.61511  0.99850  0.08927  1.0000
  C   C580      1.0  0.34860  0.45389  0.07967  1.0000
  H   H934      1.0  0.38219  0.47928  0.03397  1.0000
  H   H935      1.0  0.34744  0.44237  0.03610  1.0000
  C   C581      1.0  0.35612  0.18916  0.09163  1.0000
  H   H936      1.0  0.63324  0.23504  0.10916  1.0000
  H   H937      1.0  0.34809  0.00253  0.02335  1.0000
  H   H938      1.0  0.64835  0.10481  0.10163  1.0000
  C   C582      1.0  0.34640  0.44866  0.13091  1.0000
  H   H939      1.0  0.34467  0.43023  0.12934  1.0000
  H   H940      1.0  0.36338  0.44692  0.13514  1.0000
  C   C583      1.0  0.65292  0.41852  0.10222  1.0000
  C   C584      1.0  0.64074  0.14392  0.07646  1.0000
  H   H941      1.0  0.63802  0.08577  0.09258  1.0000
  S   S238      1.0  0.65024  0.17533  0.11291  1.0000
  H   H942      1.0  0.64316  0.41148  0.12950  1.0000
  H   H943      1.0  0.33288  0.12670  0.03019  1.0000
  H   H944      1.0  0.35684  0.20879  0.08779  1.0000
  C   C585      1.0  0.63094  0.99579  0.12007  1.0000
  H   H945      1.0  0.34508  0.15171  0.11155  1.0000
  C   C586      1.0  0.64969  0.08568  0.10019  1.0000
  C   C587      1.0  0.65353  0.04958  0.02366  1.0000
  C   C588      1.0  0.64932  0.23625  0.10097  1.0000
  H   H946      1.0  0.53885  0.03858  0.01430  1.0000
  H   H947      1.0  0.40901  0.01119  0.09167  1.0000
  H   H948      1.0  0.64602  0.26711  0.11854  1.0000
  C   C589      1.0  0.63547  0.27876  0.09328  1.0000
  H   H949      1.0  0.57256  0.01265  0.11800  1.0000
  H   H950      1.0  0.63058  0.27452  0.08404  1.0000
  C   C590      1.0  0.33179  0.15946  0.10454  1.0000
  H   H951      1.0  0.55594  0.01157  0.14228  1.0000
  H   H952      1.0  0.65144  0.07933  0.03431  1.0000
  H   H953      1.0  0.65799  0.47943  0.11746  1.0000
  C   C591      1.0  0.33752  0.01234  0.01565  1.0000
  C   C592      1.0  0.62080  0.99074  0.09893  1.0000
  C   C593      1.0  0.65802  0.37683  0.11371  1.0000
  N   N62       1.0  0.33203  0.18570  0.09965  1.0000
  S   S239      1.0  0.32729  0.99392  0.21732  1.0000
  H   H954      1.0  0.56692  0.99086  0.10896  1.0000
  H   H955      1.0  0.62808  0.21307  0.45487  1.0000
  H   H956      1.0  0.65550  0.32093  0.43260  1.0000
  S   S240      1.0  0.62359  0.42559  0.41187  1.0000
  H   H957      1.0  0.38890  0.33190  0.46813  1.0000
  H   H958      1.0  0.58188  0.39812  0.45214  1.0000
  S   S241      1.0  0.64302  0.37475  0.39958  1.0000
  C   C594      1.0  0.35291  0.45704  0.39307  1.0000
  C   C595      1.0  0.62614  0.19502  0.45284  1.0000
  H   H959      1.0  0.61960  0.30709  0.38639  1.0000
  Fe  Fe121     1.0  0.61604  0.38731  0.41704  1.0000
  S   S242      1.0  0.57958  0.37501  0.42452  1.0000
  H   H960      1.0  0.37124  0.35953  0.46095  1.0000
  S   S243      1.0  0.64200  0.37509  0.43196  1.0000
  Fe  Fe122     1.0  0.63420  0.22389  0.41023  1.0000
  S   S244      1.0  0.62096  0.24117  0.39085  1.0000
  S   S245      1.0  0.63360  0.24530  0.42669  1.0000
  Fe  Fe123     1.0  0.64171  0.17298  0.40368  1.0000
  S   S246      1.0  0.62810  0.18599  0.38368  1.0000
  H   H961      1.0  0.34305  0.28317  0.33121  1.0000
  C   C596      1.0  0.35484  0.48395  0.42528  1.0000
  Fe  Fe124     1.0  0.59871  0.21107  0.39496  1.0000
  S   S247      1.0  0.55974  0.22601  0.39171  1.0000
  S   S248      1.0  0.65463  0.13305  0.41129  1.0000
  S   S249      1.0  0.61015  0.19542  0.41516  1.0000
  Fe  Fe125     1.0  0.38775  0.21314  0.40847  1.0000
  S   S250      1.0  0.41700  0.21460  0.39012  1.0000
  S   S251      1.0  0.37049  0.24822  0.41605  1.0000
  Fe  Fe126     1.0  0.38565  0.15970  0.41002  1.0000
  S   S252      1.0  0.41465  0.15709  0.39170  1.0000
  S   S253      1.0  0.37331  0.12339  0.41877  1.0000
  Fe  Fe127     1.0  0.43435  0.17887  0.40077  1.0000
  S   S254      1.0  0.47467  0.16391  0.39998  1.0000
  Fe  Fe128     1.0  0.39505  0.19274  0.38267  1.0000
  S   S255      1.0  0.38929  0.20061  0.36090  1.0000
  S   S256      1.0  0.40675  0.17899  0.41991  1.0000
  S   S257      1.0  0.36431  0.19391  0.40017  1.0000
  Fe  Fe129     1.0  0.40351  0.40317  0.41885  1.0000
  S   S258      1.0  0.41670  0.42971  0.40089  1.0000
  S   S259      1.0  0.37402  0.41119  0.43663  1.0000
  Fe  Fe130     1.0  0.43301  0.35977  0.40644  1.0000
  S   S260      1.0  0.44809  0.38279  0.38737  1.0000
  S   S261      1.0  0.44598  0.31933  0.40927  1.0000
  Fe  Fe131     1.0  0.45354  0.40644  0.40144  1.0000
  S   S262      1.0  0.48703  0.42434  0.39718  1.0000
  Fe  Fe132     1.0  0.41010  0.40371  0.38858  1.0000
  S   S263      1.0  0.39022  0.41875  0.37094  1.0000
  S   S264      1.0  0.44099  0.38192  0.42054  1.0000
  S   S265      1.0  0.39447  0.37866  0.40646  1.0000
  C   C597      1.0  0.39147  0.26790  0.41414  1.0000
  C   C598      1.0  0.41612  0.25870  0.41433  1.0000
  C   C599      1.0  0.43269  0.27466  0.41299  1.0000
  C   C600      1.0  0.42475  0.29985  0.41114  1.0000
  C   C601      1.0  0.40019  0.30906  0.41064  1.0000
  C   C602      1.0  0.38350  0.29309  0.41235  1.0000
  H   H962      1.0  0.42236  0.23923  0.41575  1.0000
  H   H963      1.0  0.45172  0.26744  0.41333  1.0000
  H   H964      1.0  0.39406  0.32841  0.40889  1.0000
  H   H965      1.0  0.36445  0.30020  0.41203  1.0000
  C   C603      1.0  0.53622  0.20844  0.39443  1.0000
  C   C604      1.0  0.51224  0.22037  0.39364  1.0000
  C   C605      1.0  0.49307  0.20703  0.39555  1.0000
  C   C606      1.0  0.49782  0.18160  0.39814  1.0000
  C   C607      1.0  0.52180  0.16969  0.39884  1.0000
  C   C608      1.0  0.54092  0.18303  0.39706  1.0000
  H   H966      1.0  0.50847  0.24003  0.39165  1.0000
  H   H967      1.0  0.47468  0.21639  0.39504  1.0000
  H   H968      1.0  0.52561  0.15002  0.40084  1.0000
  H   H969      1.0  0.55929  0.17366  0.39767  1.0000
  C   C609      1.0  0.65169  0.26829  0.42246  1.0000
  S   S266      1.0  0.34640  0.34500  0.34713  1.0000
  H   H970      1.0  0.35750  0.33269  0.46712  1.0000
  C   C610      1.0  0.33972  0.09677  0.43419  1.0000
  C   C611      1.0  0.64653  0.28708  0.43019  1.0000
  H   H971      1.0  0.40049  0.29660  0.45569  1.0000
  N   N63       1.0  0.59274  0.31430  0.40384  1.0000
  Fe  Fe133     1.0  0.65336  0.41180  0.39589  1.0000
  H   H972      1.0  0.63204  0.28692  0.43884  1.0000
  H   H973      1.0  0.35392  0.08122  0.43292  1.0000
  C   C612      1.0  0.55439  0.38843  0.41644  1.0000
  C   C613      1.0  0.55550  0.40847  0.40608  1.0000
  C   C614      1.0  0.53473  0.41927  0.40021  1.0000
  C   C615      1.0  0.51291  0.40985  0.40449  1.0000
  C   C616      1.0  0.51200  0.38950  0.41468  1.0000
  C   C617      1.0  0.53264  0.37895  0.42070  1.0000
  H   H974      1.0  0.57225  0.41581  0.40265  1.0000
  H   H975      1.0  0.53555  0.43495  0.39228  1.0000
  H   H976      1.0  0.49530  0.38211  0.41804  1.0000
  H   H977      1.0  0.53168  0.36342  0.42871  1.0000
  C   C618      1.0  0.35743  0.36594  0.35405  1.0000
  C   C619      1.0  0.37748  0.39826  0.36467  1.0000
  C   C620      1.0  0.37554  0.37495  0.37188  1.0000
  C   C621      1.0  0.36559  0.35880  0.36656  1.0000
  H   H978      1.0  0.38164  0.36940  0.38155  1.0000
  H   H979      1.0  0.53997  0.45644  0.45683  1.0000
  N   N64       1.0  0.57211  0.43688  0.44631  1.0000
  H   H980      1.0  0.36531  0.16361  0.37889  1.0000
  N   N65       1.0  0.38195  0.33203  0.44814  1.0000
  C   C622      1.0  0.36746  0.18425  0.35874  1.0000
  C   C623      1.0  0.64641  0.15503  0.44856  1.0000
  H   H981      1.0  0.60429  0.32459  0.42047  1.0000
  H   H982      1.0  0.38451  0.45611  0.41942  1.0000
  H   H983      1.0  0.36387  0.34089  0.37222  1.0000
  H   H984      1.0  0.34503  0.33639  0.44477  1.0000
  H   H985      1.0  0.40229  0.36130  0.44054  1.0000
  H   H986      1.0  0.54461  0.42406  0.46225  1.0000
  C   C624      1.0  0.35886  0.38946  0.34701  1.0000
  H   H987      1.0  0.65614  0.47761  0.45294  1.0000
  C   C625      1.0  0.35872  0.18841  0.34641  1.0000
  C   C626      1.0  0.61801  0.30602  0.39753  1.0000
  H   H988      1.0  0.32995  0.15851  0.42631  1.0000
  H   H989      1.0  0.59724  0.29433  0.42363  1.0000
  H   H990      1.0  0.64675  0.16562  0.47306  1.0000
  C   C627      1.0  0.35886  0.44159  0.43596  1.0000
  Fe  Fe134     1.0  0.65113  0.21506  0.38114  1.0000
  H   H991      1.0  0.58513  0.34115  0.38650  1.0000
  H   H992      1.0  0.36739  0.33736  0.42968  1.0000
  C   C628      1.0  0.38607  0.30519  0.44948  1.0000
  C   C629      1.0  0.34462  0.12028  0.42866  1.0000
  C   C630      1.0  0.40465  0.34116  0.44144  1.0000
  N   N66       1.0  0.32944  0.44802  0.39648  1.0000
  H   H993      1.0  0.58225  0.27905  0.40649  1.0000
  H   H994      1.0  0.63081  0.31716  0.39933  1.0000
  H   H995      1.0  0.57275  0.43127  0.42598  1.0000
  H   H996      1.0  0.65272  0.19245  0.35621  1.0000
  H   H997      1.0  0.35931  0.36290  0.43856  1.0000
  C   C631      1.0  0.57669  0.29826  0.40176  1.0000
  H   H998      1.0  0.57720  0.29824  0.39079  1.0000
  C   C632      1.0  0.36254  0.34263  0.43994  1.0000
  H   H999      1.0  0.61253  0.18738  0.46115  1.0000
  Fe  Fe135     1.0  0.65125  0.41288  0.42587  1.0000
  C   C633      1.0  0.59180  0.31328  0.41852  1.0000
  H   H1000     1.0  0.36569  0.20152  0.33810  1.0000
  H   H1001     1.0  0.57319  0.32029  0.42356  1.0000
  H   H1002     1.0  0.55742  0.30410  0.40630  1.0000
  C   C634      1.0  0.58451  0.33959  0.39760  1.0000
  C   C635      1.0  0.65972  0.30641  0.42663  1.0000
  H   H1003     1.0  0.35785  0.46302  0.38196  1.0000
  H   H1004     1.0  0.39208  0.29913  0.43942  1.0000
  H   H1005     1.0  0.61840  0.19855  0.44329  1.0000
  H   H1006     1.0  0.34487  0.08974  0.40787  1.0000
  C   C636      1.0  0.37456  0.33931  0.46170  1.0000
  C   C637      1.0  0.36881  0.40558  0.35233  1.0000
  N   N67       1.0  0.43142  0.30790  0.36799  1.0000
  C   C638      1.0  0.42545  0.32906  0.37519  1.0000
  C   C639      1.0  0.41169  0.30809  0.36041  1.0000
  C   C640      1.0  0.43406  0.28521  0.37792  1.0000
  C   C641      1.0  0.45454  0.30931  0.35846  1.0000
  H   H1007     1.0  0.42345  0.34655  0.36803  1.0000
  H   H1008     1.0  0.43991  0.32942  0.38107  1.0000
  H   H1009     1.0  0.40813  0.32861  0.38247  1.0000
  H   H1010     1.0  0.39417  0.30625  0.36736  1.0000
  H   H1011     1.0  0.40849  0.32539  0.35317  1.0000
  H   H1012     1.0  0.41591  0.29282  0.35450  1.0000
  H   H1013     1.0  0.43872  0.26880  0.37289  1.0000
  H   H1014     1.0  0.41690  0.28354  0.38524  1.0000
  H   H1015     1.0  0.44862  0.28460  0.38393  1.0000
  H   H1016     1.0  0.45977  0.29358  0.35287  1.0000
  H   H1017     1.0  0.46972  0.30935  0.36390  1.0000
  H   H1018     1.0  0.45313  0.32625  0.35083  1.0000
  H   H1019     1.0  0.56547  0.34642  0.40211  1.0000
  C   C642      1.0  0.33564  0.25225  0.35484  1.0000
  C   C643      1.0  0.36767  0.46008  0.42620  1.0000
  C   C644      1.0  0.55964  0.43406  0.43541  1.0000
  H   H1020     1.0  0.34556  0.41221  0.39213  1.0000
  H   H1021     1.0  0.60008  0.41625  0.45743  1.0000
  N   N68       1.0  0.64977  0.17844  0.45162  1.0000
  N   N69       1.0  0.47410  0.16295  0.35974  1.0000
  C   C645      1.0  0.47963  0.14119  0.36996  1.0000
  C   C646      1.0  0.47060  0.18506  0.36597  1.0000
  C   C647      1.0  0.45164  0.16194  0.35475  1.0000
  C   C648      1.0  0.49461  0.16365  0.34832  1.0000
  H   H1022     1.0  0.48274  0.12410  0.36564  1.0000
  H   H1023     1.0  0.46449  0.13996  0.37871  1.0000
  H   H1024     1.0  0.49609  0.14174  0.37424  1.0000
  H   H1025     1.0  0.48718  0.18644  0.36988  1.0000
  H   H1026     1.0  0.46604  0.20187  0.35867  1.0000
  H   H1027     1.0  0.45555  0.18482  0.37475  1.0000
  H   H1028     1.0  0.43577  0.16148  0.36311  1.0000
  H   H1029     1.0  0.45351  0.14547  0.35000  1.0000
  H   H1030     1.0  0.44672  0.17821  0.34714  1.0000
  H   H1031     1.0  0.51180  0.16443  0.35180  1.0000
  H   H1032     1.0  0.49110  0.17989  0.34044  1.0000
  H   H1033     1.0  0.49781  0.14721  0.34338  1.0000
  C   C649      1.0  0.34102  0.17549  0.34479  1.0000
  H   H1034     1.0  0.37021  0.42362  0.34671  1.0000
  H   H1035     1.0  0.59607  0.35219  0.39916  1.0000
  H   H1036     1.0  0.41993  0.33318  0.44714  1.0000
  C   C650      1.0  0.55408  0.44010  0.45868  1.0000
  H   H1037     1.0  0.62446  0.28678  0.40176  1.0000
  C   C651      1.0  0.59030  0.41490  0.44922  1.0000
  H   H1038     1.0  0.59819  0.45654  0.43259  1.0000
  C   C652      1.0  0.35859  0.16709  0.36938  1.0000
  H   H1039     1.0  0.65303  0.38884  0.37018  1.0000
  H   H1040     1.0  0.36922  0.29762  0.45429  1.0000
  H   H1041     1.0  0.60437  0.41236  0.44018  1.0000
  H   H1042     1.0  0.33476  0.16471  0.24661  1.0000
  H   H1043     1.0  0.35257  0.47262  0.39829  1.0000
  S   S267      1.0  0.64854  0.43907  0.44052  1.0000
  H   H1044     1.0  0.33592  0.26475  0.36194  1.0000
  H   H1045     1.0  0.56294  0.44234  0.46707  1.0000
  C   C653      1.0  0.33228  0.15819  0.35546  1.0000
  H   H1046     1.0  0.33601  0.16365  0.27662  1.0000
  C   C654      1.0  0.33092  0.42745  0.38925  1.0000
  H   H1047     1.0  0.41050  0.33655  0.43105  1.0000
  H   H1048     1.0  0.59466  0.46063  0.44979  1.0000
  H   H1049     1.0  0.63261  0.14656  0.45639  1.0000
  C   C655      1.0  0.33928  0.08909  0.39811  1.0000
  H   H1050     1.0  0.33434  0.17870  0.33527  1.0000
  H   H1051     1.0  0.34651  0.10406  0.39061  1.0000
  H   H1052     1.0  0.33118  0.23477  0.36103  1.0000
  C   C656      1.0  0.33723  0.44729  0.44498  1.0000
  H   H1053     1.0  0.34499  0.18702  0.25350  1.0000
  H   H1054     1.0  0.55018  0.41794  0.43834  1.0000
  H   H1055     1.0  0.64026  0.15739  0.43859  1.0000
  H   H1056     1.0  0.57141  0.47539  0.43977  1.0000
  C   C657      1.0  0.58450  0.45836  0.44195  1.0000
  H   H1057     1.0  0.35448  0.24815  0.34922  1.0000
  H   H1058     1.0  0.33531  0.43297  0.37806  1.0000
  H   H1059     1.0  0.36793  0.44251  0.39612  1.0000
  H   H1060     1.0  0.35294  0.39503  0.33727  1.0000
  C   C658      1.0  0.33314  0.48965  0.43417  1.0000
  C   C659      1.0  0.34112  0.15411  0.36772  1.0000
  H   H1061     1.0  0.33444  0.14088  0.37597  1.0000
  H   H1062     1.0  0.34867  0.07158  0.39481  1.0000
  C   C660      1.0  0.32868  0.18179  0.25104  1.0000
  H   H1063     1.0  0.33030  0.43311  0.45260  1.0000
  H   H1064     1.0  0.33889  0.42531  0.41480  1.0000
  H   H1065     1.0  0.54588  0.45033  0.43281  1.0000
  H   H1066     1.0  0.33672  0.24178  0.33004  1.0000
  C   C661      1.0  0.65939  0.17411  0.46449  1.0000
  H   H1067     1.0  0.39942  0.22342  0.72361  1.0000
  H   H1068     1.0  0.65858  0.99668  0.50783  1.0000
  H   H1069     1.0  0.37775  0.19159  0.72031  1.0000
  H   H1070     1.0  0.34950  0.02302  0.50979  1.0000
  C   C662      1.0  0.59847  0.45697  0.72112  1.0000
  C   C663      1.0  0.35065  0.23034  0.73046  1.0000
  C   C664      1.0  0.35326  0.09625  0.72995  1.0000
  C   C665      1.0  0.35181  0.24811  0.70694  1.0000
  C   C666      1.0  0.35933  0.00488  0.50758  1.0000
  C   C667      1.0  0.36812  0.20564  0.71307  1.0000
  H   H1071     1.0  0.65943  0.20526  0.73153  1.0000
  H   H1072     1.0  0.37600  0.00052  0.51237  1.0000
  H   H1073     1.0  0.38724  0.25484  0.71941  1.0000
  H   H1074     1.0  0.35027  0.20003  0.71336  1.0000
  H   H1075     1.0  0.40027  0.23700  0.70614  1.0000
  C   C668      1.0  0.63768  0.44614  0.72849  1.0000
  H   H1076     1.0  0.55175  0.99921  0.51112  1.0000
  H   H1077     1.0  0.33890  0.48065  0.69493  1.0000
  N   N70       1.0  0.36491  0.23018  0.71670  1.0000
  H   H1078     1.0  0.64491  0.06686  0.66745  1.0000
  C   C669      1.0  0.38900  0.23666  0.71638  1.0000
  H   H1079     1.0  0.33256  0.22491  0.73125  1.0000
  C   C670      1.0  0.65839  0.13379  0.72209  1.0000
  H   H1080     1.0  0.60626  0.45159  0.71103  1.0000
  S   S268      1.0  0.33248  0.06918  0.71722  1.0000
  N   N71       1.0  0.61201  0.44236  0.73175  1.0000
  H   H1081     1.0  0.34911  0.26681  0.70942  1.0000
  H   H1082     1.0  0.37884  0.20470  0.70276  1.0000
  H   H1083     1.0  0.36532  0.00650  0.49641  1.0000
  H   H1084     1.0  0.59901  0.47672  0.72027  1.0000
  C   C671      1.0  0.33407  0.09601  0.72316  1.0000
  H   H1085     1.0  0.65675  0.09491  0.66433  1.0000
  H   H1086     1.0  0.65174  0.14385  0.71303  1.0000
  H   H1087     1.0  0.61905  0.40983  0.72280  1.0000
  H   H1088     1.0  0.63927  0.46538  0.72849  1.0000
  H   H1089     1.0  0.36201  0.24845  0.69642  1.0000
  H   H1090     1.0  0.34781  0.24854  0.73361  1.0000
  H   H1091     1.0  0.57897  0.45470  0.72343  1.0000
  C   C672      1.0  0.61102  0.41629  0.73259  1.0000
  H   H1092     1.0  0.65815  0.09132  0.68890  1.0000
  H   H1093     1.0  0.64578  0.06349  0.69202  1.0000
  H   H1094     1.0  0.64653  0.44145  0.71839  1.0000
  H   H1095     1.0  0.33351  0.24374  0.70701  1.0000
  H   H1096     1.0  0.36708  0.08025  0.73119  1.0000
  C   C673      1.0  0.33720  0.13798  0.73335  1.0000
  Fe  Fe136     1.0  0.39194  0.02695  0.87468  1.0000
  N   N72       1.0  0.65643  0.12176  0.88763  1.0000
  Fe  Fe137     1.0  0.40586  0.07079  0.85457  1.0000
  S   S269      1.0  0.42694  0.04778  0.83942  1.0000
  S   S270      1.0  0.40999  0.11009  0.84794  1.0000
  Fe  Fe138     1.0  0.44212  0.02400  0.85703  1.0000
  C   C674      1.0  0.58744  0.27066  0.78910  1.0000
  S   S271      1.0  0.37319  0.05212  0.85856  1.0000
  S   S272      1.0  0.42260  0.04815  0.87209  1.0000
  Fe  Fe139     1.0  0.63396  0.04659  0.89476  1.0000
  S   S273      1.0  0.61285  0.01676  0.89561  1.0000
  S   S274      1.0  0.37849  0.02015  0.82788  1.0000
  Fe  Fe140     1.0  0.63572  0.06088  0.86443  1.0000
  S   S275      1.0  0.61514  0.03210  0.86252  1.0000
  H   H1097     1.0  0.57183  0.47098  0.84029  1.0000
  Fe  Fe141     1.0  0.59091  0.04292  0.88133  1.0000
  S   S276      1.0  0.54986  0.04674  0.88624  1.0000
  H   H1098     1.0  0.36026  0.21726  0.73800  1.0000
  S   S277      1.0  0.60965  0.07380  0.88209  1.0000
  C   C675      1.0  0.51327  0.26709  0.76750  1.0000
  H   H1099     1.0  0.49953  0.31562  0.76126  1.0000
  C   C676      1.0  0.33317  0.00975  0.91479  1.0000
  H   H1100     1.0  0.49641  0.47274  0.82275  1.0000
  Fe  Fe142     1.0  0.36392  0.16755  0.75331  1.0000
  H   H1101     1.0  0.62364  0.46686  0.76487  1.0000
  H   H1102     1.0  0.44713  0.18577  0.75613  1.0000
  C   C677      1.0  0.38896  0.24544  0.78978  1.0000
  Fe  Fe143     1.0  0.58519  0.37502  0.79189  1.0000
  S   S278      1.0  0.59400  0.39176  0.77006  1.0000
  Fe  Fe144     1.0  0.58044  0.42357  0.80193  1.0000
  S   S279      1.0  0.58731  0.44441  0.78098  1.0000
  S   S280      1.0  0.57032  0.44328  0.81989  1.0000
  Fe  Fe145     1.0  0.56379  0.42176  0.77549  1.0000
  S   S281      1.0  0.53530  0.43656  0.76229  1.0000
  S   S282      1.0  0.55359  0.40425  0.79684  1.0000
  H   H1103     1.0  0.33017  0.46148  0.77882  1.0000
  S   S283      1.0  0.61701  0.17902  0.78555  1.0000
  H   H1104     1.0  0.51998  0.25024  0.77428  1.0000
  S   S284      1.0  0.56176  0.20971  0.78619  1.0000
  Fe  Fe146     1.0  0.61086  0.16244  0.76852  1.0000
  Fe  Fe147     1.0  0.59904  0.21423  0.77482  1.0000
  S   S285      1.0  0.61649  0.24800  0.76855  1.0000
  Fe  Fe148     1.0  0.57938  0.17262  0.79524  1.0000
  S   S286      1.0  0.56752  0.15418  0.81658  1.0000
  H   H1105     1.0  0.65723  0.05536  0.79202  1.0000
  S   S287      1.0  0.57424  0.15361  0.77896  1.0000
  S   S288      1.0  0.52535  0.20495  0.75989  1.0000
  S   S289      1.0  0.34923  0.19779  0.76561  1.0000
  H   H1106     1.0  0.64741  0.18445  0.74566  1.0000
  C   C678      1.0  0.36519  0.21928  0.80639  1.0000
  S   S290      1.0  0.40099  0.18608  0.77696  1.0000
  H   H1107     1.0  0.60132  0.46951  0.74479  1.0000
  Fe  Fe149     1.0  0.36558  0.17215  0.78237  1.0000
  S   S291      1.0  0.34573  0.16570  0.80377  1.0000
  H   H1108     1.0  0.59193  0.41272  0.73538  1.0000
  H   H1109     1.0  0.38088  0.46937  0.79472  1.0000
  S   S292      1.0  0.37717  0.14094  0.77076  1.0000
  C   C679      1.0  0.50450  0.18486  0.76173  1.0000
  Fe  Fe150     1.0  0.37387  0.36696  0.77582  1.0000
  S   S293      1.0  0.39827  0.38251  0.75730  1.0000
  S   S294      1.0  0.35051  0.33837  0.77696  1.0000
  Fe  Fe151     1.0  0.38599  0.39890  0.79372  1.0000
  S   S295      1.0  0.41180  0.41608  0.77684  1.0000
  S   S296      1.0  0.37550  0.41009  0.81441  1.0000
  Fe  Fe152     1.0  0.38277  0.41875  0.76422  1.0000
  S   S297      1.0  0.57402  0.33793  0.79955  1.0000
  Fe  Fe153     1.0  0.42469  0.37854  0.77175  1.0000
  H   H1110     1.0  0.32958  0.02892  0.87650  1.0000
  S   S298      1.0  0.35625  0.40350  0.78148  1.0000
  S   S299      1.0  0.40110  0.36088  0.78982  1.0000
  S   S300      1.0  0.64077  0.05512  0.91438  1.0000
  C   C680      1.0  0.38261  0.27139  0.75665  1.0000
  H   H1111     1.0  0.65981  0.14403  0.86796  1.0000
  C   C681      1.0  0.38713  0.31005  0.76207  1.0000
  C   C682      1.0  0.36300  0.31317  0.76868  1.0000
  C   C683      1.0  0.34861  0.29554  0.76908  1.0000
  C   C684      1.0  0.35843  0.27455  0.76320  1.0000
  H   H1112     1.0  0.48832  0.46847  0.84083  1.0000
  H   H1113     1.0  0.39831  0.32362  0.76167  1.0000
  C   C685      1.0  0.35797  0.01766  0.96815  1.0000
  H   H1114     1.0  0.34725  0.26099  0.76360  1.0000
  H   H1115     1.0  0.35727  0.21408  0.79842  1.0000
  H   H1116     1.0  0.51369  0.35483  0.77294  1.0000
  H   H1117     1.0  0.49796  0.12531  0.77175  1.0000
  H   H1118     1.0  0.52960  0.32287  0.75590  1.0000
  H   H1119     1.0  0.53063  0.48509  0.84730  1.0000
  H   H1120     1.0  0.58140  0.44749  0.74771  1.0000
  S   S301      1.0  0.33889  0.16507  0.73901  1.0000
  H   H1121     1.0  0.34956  0.05991  0.89348  1.0000
  H   H1122     1.0  0.38568  0.26929  0.81050  1.0000
  C   C686      1.0  0.39681  0.28932  0.75593  1.0000
  H   H1123     1.0  0.58154  0.25336  0.79321  1.0000
  H   H1124     1.0  0.51946  0.45997  0.83312  1.0000
  C   C687      1.0  0.60459  0.27289  0.77725  1.0000
  C   C688      1.0  0.61231  0.29538  0.77210  1.0000
  C   C689      1.0  0.60302  0.31554  0.77880  1.0000
  H   H1125     1.0  0.62560  0.29722  0.76294  1.0000
  H   H1126     1.0  0.60919  0.33276  0.77483  1.0000
  C   C690      1.0  0.51615  0.41527  0.76330  1.0000
  C   C691      1.0  0.52364  0.39059  0.76797  1.0000
  C   C692      1.0  0.50794  0.37380  0.76912  1.0000
  C   C693      1.0  0.48452  0.38172  0.76587  1.0000
  C   C694      1.0  0.47714  0.40633  0.76106  1.0000
  C   C695      1.0  0.49301  0.42305  0.75967  1.0000
  H   H1127     1.0  0.54151  0.38442  0.77076  1.0000
  H   H1128     1.0  0.50302  0.34983  0.80520  1.0000
  H   H1129     1.0  0.45922  0.41252  0.75834  1.0000
  H   H1130     1.0  0.57984  0.00082  0.87893  1.0000
  C   C696      1.0  0.42061  0.45670  0.82779  1.0000
  C   C697      1.0  0.42712  0.45004  0.81487  1.0000
  C   C698      1.0  0.41303  0.43626  0.81054  1.0000
  C   C699      1.0  0.39270  0.42861  0.81921  1.0000
  C   C700      1.0  0.38590  0.43573  0.83202  1.0000
  C   C701      1.0  0.39972  0.44989  0.83627  1.0000
  H   H1131     1.0  0.44295  0.45575  0.80816  1.0000
  H   H1132     1.0  0.41798  0.43153  0.80051  1.0000
  H   H1133     1.0  0.37012  0.42996  0.83876  1.0000
  H   H1134     1.0  0.39468  0.45485  0.84629  1.0000
  S   S302      1.0  0.65002  0.08757  0.84685  1.0000
  H   H1135     1.0  0.46628  0.35596  0.82280  1.0000
  C   C702      1.0  0.58974  0.46839  0.83430  1.0000
  C   C703      1.0  0.59433  0.45500  0.82363  1.0000
  C   C704      1.0  0.61782  0.45130  0.81612  1.0000
  Fe  Fe154     1.0  0.63861  0.00814  0.87686  1.0000
  H   H1136     1.0  0.59452  0.10640  0.80444  1.0000
  S   S303      1.0  0.39551  0.24542  0.74912  1.0000
  H   H1137     1.0  0.62158  0.44086  0.80792  1.0000
  C   C705      1.0  0.57828  0.29076  0.79584  1.0000
  H   H1138     1.0  0.56151  0.26044  0.76701  1.0000
  H   H1139     1.0  0.51000  0.10762  0.85917  1.0000
  H   H1140     1.0  0.51549  0.07762  0.85490  1.0000
  H   H1141     1.0  0.60838  0.10397  0.78006  1.0000
  C   C706      1.0  0.62691  0.10672  0.83888  1.0000
  C   C707      1.0  0.60247  0.10438  0.84344  1.0000
  C   C708      1.0  0.58430  0.11943  0.83670  1.0000
  C   C709      1.0  0.59051  0.13665  0.82530  1.0000
  C   C710      1.0  0.61492  0.13907  0.82083  1.0000
  C   C711      1.0  0.63307  0.12423  0.82765  1.0000
  H   H1142     1.0  0.59756  0.09095  0.85212  1.0000
  H   H1143     1.0  0.56543  0.11754  0.84023  1.0000
  H   H1144     1.0  0.61983  0.15258  0.81223  1.0000
  C   C712      1.0  0.38113  0.25056  0.81327  1.0000
  C   C713      1.0  0.39204  0.12556  0.83575  1.0000
  C   C714      1.0  0.40286  0.13861  0.82371  1.0000
  C   C715      1.0  0.38885  0.15059  0.81373  1.0000
  C   C716      1.0  0.36379  0.15037  0.81597  1.0000
  C   C717      1.0  0.35293  0.13766  0.82811  1.0000
  C   C718      1.0  0.36711  0.12486  0.83787  1.0000
  H   H1145     1.0  0.42216  0.13913  0.82201  1.0000
  H   H1146     1.0  0.39743  0.16022  0.80439  1.0000
  H   H1147     1.0  0.36438  0.04705  0.94413  1.0000
  H   H1148     1.0  0.35865  0.11487  0.84717  1.0000
  C   C719      1.0  0.50145  0.02267  0.86207  1.0000
  H   H1149     1.0  0.53397  0.01576  0.84747  1.0000
  C   C720      1.0  0.54141  0.02997  0.86413  1.0000
  C   C721      1.0  0.53168  0.03791  0.87652  1.0000
  C   C722      1.0  0.50679  0.03850  0.88156  1.0000
  C   C723      1.0  0.49169  0.03106  0.87433  1.0000
  H   H1150     1.0  0.49916  0.04460  0.89116  1.0000
  H   H1151     1.0  0.47262  0.03129  0.87841  1.0000
  H   H1152     1.0  0.62213  0.14362  0.89407  1.0000
  H   H1153     1.0  0.43268  0.05193  0.79193  1.0000
  H   H1154     1.0  0.40651  0.08822  0.81976  1.0000
  H   H1155     1.0  0.37108  0.45082  0.78518  1.0000
  H   H1156     1.0  0.43756  0.05869  0.80759  1.0000
  C   C724      1.0  0.55372  0.27702  0.76043  1.0000
  H   H1157     1.0  0.65936  0.15966  0.88177  1.0000
  C   C725      1.0  0.38612  0.07470  0.79347  1.0000
  H   H1158     1.0  0.63159  0.15435  0.73564  1.0000
  C   C726      1.0  0.42338  0.05647  0.80202  1.0000
  N   N73       1.0  0.40483  0.07866  0.80065  1.0000
  N   N74       1.0  0.48425  0.38447  0.81039  1.0000
  H   H1159     1.0  0.50322  0.40533  0.81907  1.0000
  H   H1160     1.0  0.34737  0.00954  0.97777  1.0000
  C   C727      1.0  0.64250  0.10200  0.79532  1.0000
  H   H1161     1.0  0.47382  0.42055  0.81547  1.0000
  H   H1162     1.0  0.34660  0.48738  0.91913  1.0000
  C   C728      1.0  0.65981  0.44873  0.75834  1.0000
  H   H1163     1.0  0.35211  0.28062  0.79706  1.0000
  S   S304      1.0  0.44897  0.13429  0.76590  1.0000
  H   H1164     1.0  0.51868  0.30406  0.74690  1.0000
  N   N75       1.0  0.52832  0.28617  0.76618  1.0000
  H   H1165     1.0  0.65193  0.12627  0.82420  1.0000
  C   C729      1.0  0.50683  0.36780  0.80620  1.0000
  H   H1166     1.0  0.47637  0.39906  0.79036  1.0000
  H   H1167     1.0  0.46497  0.37134  0.79780  1.0000
  H   H1168     1.0  0.32982  0.29811  0.77403  1.0000
  C   C730      1.0  0.34848  0.26156  0.80016  1.0000
  C   C731      1.0  0.63186  0.47448  0.82998  1.0000
  C   C732      1.0  0.64118  0.46885  0.75894  1.0000
  H   H1169     1.0  0.34028  0.25726  0.79204  1.0000
  C   C733      1.0  0.33442  0.46310  0.80450  1.0000
  H   H1170     1.0  0.65520  0.06176  0.93859  1.0000
  H   H1171     1.0  0.37689  0.05926  0.79914  1.0000
  H   H1172     1.0  0.39807  0.23777  0.81527  1.0000
  C   C734      1.0  0.65571  0.12685  0.74658  1.0000
  C   C735      1.0  0.64077  0.05906  0.79979  1.0000
  H   H1173     1.0  0.41547  0.28704  0.75077  1.0000
  C   C736      1.0  0.52636  0.02212  0.85700  1.0000
  H   H1174     1.0  0.45027  0.39937  0.80341  1.0000
  S   S305      1.0  0.37150  0.45664  0.75295  1.0000
  H   H1175     1.0  0.33447  0.26114  0.80948  1.0000
  H   H1176     1.0  0.49392  0.27334  0.77170  1.0000
  S   S306      1.0  0.64339  0.13411  0.76284  1.0000
  H   H1177     1.0  0.47706  0.21310  0.75393  1.0000
  H   H1178     1.0  0.34539  0.00729  0.81356  1.0000
  H   H1179     1.0  0.35170  0.21744  0.81590  1.0000
  H   H1180     1.0  0.62194  0.11144  0.89725  1.0000
  H   H1181     1.0  0.53458  0.27627  0.78680  1.0000
  C   C737      1.0  0.33276  0.48877  0.74421  1.0000
  H   H1182     1.0  0.60724  0.07196  0.78328  1.0000
  S   S307      1.0  0.37221  0.00875  0.89438  1.0000
  H   H1183     1.0  0.45442  0.38577  0.82703  1.0000
  H   H1184     1.0  0.39422  0.07045  0.78316  1.0000
  H   H1185     1.0  0.63480  0.08294  0.77476  1.0000
  C   C738      1.0  0.60529  0.08788  0.80678  1.0000
  H   H1186     1.0  0.60454  0.48851  0.84568  1.0000
  H   H1187     1.0  0.48308  0.36991  0.83155  1.0000
  N   N76       1.0  0.48617  0.10194  0.84648  1.0000
  C   C739      1.0  0.46705  0.12235  0.85026  1.0000
  C   C740      1.0  0.50097  0.09310  0.85740  1.0000
  C   C741      1.0  0.50197  0.11032  0.83376  1.0000
  C   C742      1.0  0.47467  0.08196  0.84453  1.0000
  H   H1188     1.0  0.45436  0.11646  0.85961  1.0000
  H   H1189     1.0  0.48961  0.08662  0.86715  1.0000
  H   H1190     1.0  0.51660  0.09534  0.83062  1.0000
  H   H1191     1.0  0.51099  0.12541  0.83486  1.0000
  H   H1192     1.0  0.49137  0.11714  0.82530  1.0000
  H   H1193     1.0  0.48847  0.06626  0.84152  1.0000
  H   H1194     1.0  0.46286  0.08811  0.83660  1.0000
  H   H1195     1.0  0.46292  0.07495  0.85401  1.0000
  H   H1196     1.0  0.33196  0.99503  0.94706  1.0000
  N   N77       1.0  0.37095  0.24420  0.80241  1.0000
  H   H1197     1.0  0.61047  0.43911  0.75313  1.0000
  Fe  Fe155     1.0  0.55925  0.19109  0.76916  1.0000
  H   H1198     1.0  0.51969  0.36452  0.81357  1.0000
  C   C743      1.0  0.50271  0.47381  0.83225  1.0000
  H   H1199     1.0  0.62958  0.04468  0.80054  1.0000
  H   H1200     1.0  0.50879  0.29977  0.78423  1.0000
  C   C744      1.0  0.58608  0.31323  0.79075  1.0000
  H   H1201     1.0  0.56531  0.28883  0.80514  1.0000
  Fe  Fe156     1.0  0.61718  0.41294  0.77734  1.0000
  H   H1202     1.0  0.45574  0.12969  0.84215  1.0000
  H   H1203     1.0  0.47496  0.13759  0.85210  1.0000
  S   S308      1.0  0.43954  0.47230  0.83341  1.0000
  H   H1204     1.0  0.36038  0.03595  0.96953  1.0000
  H   H1205     1.0  0.59297  0.07447  0.80774  1.0000
  H   H1206     1.0  0.56046  0.02993  0.86002  1.0000
  S   S309      1.0  0.48312  0.01266  0.85291  1.0000
  C   C745      1.0  0.35475  0.11709  0.73512  1.0000
  S   S310      1.0  0.61161  0.39298  0.79883  1.0000
  C   C746      1.0  0.49335  0.14448  0.76794  1.0000
  C   C747      1.0  0.62952  0.12646  0.88990  1.0000
  C   C748      1.0  0.47147  0.37350  0.82353  1.0000
  N   N78       1.0  0.62687  0.08363  0.79623  1.0000
  H   H1207     1.0  0.33554  0.44424  0.80254  1.0000
  C   C749      1.0  0.34274  0.46419  0.74775  1.0000
  H   H1208     1.0  0.52796  0.15285  0.76965  1.0000
  H   H1209     1.0  0.34549  0.46170  0.81259  1.0000
  H   H1210     1.0  0.40651  0.23328  0.79121  1.0000
  H   H1211     1.0  0.64942  0.10052  0.80496  1.0000
  H   H1212     1.0  0.56573  0.29080  0.75939  1.0000
  S   S311      1.0  0.46429  0.36086  0.76878  1.0000
  C   C750      1.0  0.34668  0.02375  0.90422  1.0000
  H   H1213     1.0  0.63237  0.12081  0.79304  1.0000
  C   C751      1.0  0.41657  0.09930  0.79294  1.0000
  H   H1214     1.0  0.36969  0.11713  0.74024  1.0000
  C   C752      1.0  0.52764  0.29245  0.77967  1.0000
  H   H1215     1.0  0.37623  0.00608  0.96688  1.0000
  H   H1216     1.0  0.48717  0.44210  0.75601  1.0000
  H   H1217     1.0  0.49903  0.41726  0.80189  1.0000
  C   C753      1.0  0.51032  0.16007  0.76678  1.0000
  H   H1218     1.0  0.37186  0.09116  0.79226  1.0000
  Fe  Fe157     1.0  0.39584  0.02697  0.84468  1.0000
  C   C754      1.0  0.46462  0.17850  0.75920  1.0000
  C   C755      1.0  0.47042  0.15370  0.76420  1.0000
  C   C756      1.0  0.39316  0.08424  0.81421  1.0000
  H   H1219     1.0  0.37846  0.10032  0.81350  1.0000
  H   H1220     1.0  0.33169  0.03469  0.74379  1.0000
  H   H1221     1.0  0.40343  0.11664  0.79240  1.0000
  H   H1222     1.0  0.51363  0.26163  0.75753  1.0000
  S   S312      1.0  0.59542  0.19809  0.75708  1.0000
  C   C757      1.0  0.34121  0.99465  0.95577  1.0000
  H   H1223     1.0  0.43160  0.10209  0.79771  1.0000
  N   N79       1.0  0.34548  0.01916  0.95652  1.0000
  Fe  Fe158     1.0  0.41197  0.15644  0.76432  1.0000
  H   H1224     1.0  0.38470  0.06887  0.82053  1.0000
  Fe  Fe159     1.0  0.38613  0.20851  0.75887  1.0000
  H   H1225     1.0  0.42444  0.09639  0.78237  1.0000
  S   S313      1.0  0.40014  0.17977  0.74565  1.0000
  H   H1226     1.0  0.33730  0.42716  0.74970  1.0000
  C   C758      1.0  0.33932  0.04895  0.90164  1.0000
  H   H1227     1.0  0.33355  0.13743  0.82989  1.0000
  H   H1228     1.0  0.61065  0.08648  0.81687  1.0000
  H   H1229     1.0  0.53914  0.30655  0.77905  1.0000
  C   C759      1.0  0.51865  0.30811  0.75715  1.0000
  C   C760      1.0  0.46829  0.38871  0.80005  1.0000
  H   H1230     1.0  0.41511  0.04045  0.80770  1.0000
  C   C761      1.0  0.49034  0.40791  0.81177  1.0000
  H   H1231     1.0  0.51666  0.37536  0.79621  1.0000
  C   C762      1.0  0.63661  0.46085  0.81938  1.0000
  C   C763      1.0  0.48164  0.19399  0.75792  1.0000
  C   C764      1.0  0.32979  0.44615  0.74697  1.0000
  H   H1232     1.0  0.37849  0.01647  0.94193  1.0000
  C   C765      1.0  0.36069  0.02866  0.94383  1.0000
  H   H1233     1.0  0.35153  0.03036  0.93490  1.0000
  H   H1234     1.0  0.36001  0.99420  0.86935  1.0000
  H   H1235     1.0  0.62236  0.12790  0.88031  1.0000
  C   C766      1.0  0.60835  0.47827  0.83739  1.0000
  C   C767      1.0  0.61895  0.08563  0.78303  1.0000
  H   H1236     1.0  0.38231  0.23963  0.78156  1.0000
  H   H1237     1.0  0.39285  0.26428  0.78603  1.0000
  H   H1238     1.0  0.38171  0.20556  0.80803  1.0000
  H   H1239     1.0  0.36796  0.24989  0.82294  1.0000
  C   C768      1.0  0.60079  0.45000  0.74491  1.0000
  H   H1240     1.0  0.64700  0.05694  0.80972  1.0000
  H   H1241     1.0  0.55498  0.27203  0.75027  1.0000
  H   H1242     1.0  0.64856  0.43458  0.73606  1.0000
  C   C769      1.0  0.36650  0.99312  0.82962  1.0000
  H   H1243     1.0  0.62135  0.40485  0.74047  1.0000
  H   H1244     1.0  0.32776  0.04136  0.76771  1.0000
  C   C770      1.0  0.36908  0.46971  0.78716  1.0000
  S   S314      1.0  0.65433  0.41904  0.76561  1.0000
  N   N80       1.0  0.34339  0.47921  0.79206  1.0000
  C   C771      1.0  0.35002  0.99194  0.82125  1.0000
  H   H1245     1.0  0.33614  0.01850  0.85272  1.0000
  S   S315      1.0  0.65525  0.48696  0.83385  1.0000
  C   C772      1.0  0.32870  0.47990  0.78149  1.0000
  H   H1246     1.0  0.65853  0.09994  0.78711  1.0000
  S   S316      1.0  0.41296  0.00058  0.86089  1.0000
  H   H1247     1.0  0.65715  0.10523  0.90841  1.0000
  H   H1248     1.0  0.37631  0.48079  0.77749  1.0000
  H   H1249     1.0  0.64221  0.21645  0.74649  1.0000
  H   H1250     1.0  0.65480  0.45759  0.81370  1.0000
  C   C773      1.0  0.64702  0.13979  0.73487  1.0000
  C   C774      1.0  0.65587  0.20118  0.74279  1.0000
  H   H1251     1.0  0.65802  0.08340  0.88892  1.0000
  H   H1252     1.0  0.54098  0.99196  0.89326  1.0000
  H   H1253     1.0  0.65943  0.10010  0.87205  1.0000
  H   H1254     1.0  0.65006  0.99279  0.84917  1.0000
  H   H1255     1.0  0.65899  0.20662  0.76781  1.0000
  H   H1256     1.0  0.65973  0.13678  0.90489  1.0000
  Fe  Fe160     1.0  0.61916  0.55988  0.05363  1.0000
  S   S317      1.0  0.61098  0.52174  0.05986  1.0000
  S   S318      1.0  0.64350  0.88492  0.15784  1.0000
  Fe  Fe161     1.0  0.58404  0.57837  0.07752  1.0000
  S   S319      1.0  0.57265  0.54207  0.08571  1.0000
  S   S320      1.0  0.56808  0.61250  0.08666  1.0000
  Fe  Fe162     1.0  0.61246  0.52693  0.08096  1.0000
  H   H1257     1.0  0.42792  0.60322  0.18523  1.0000
  Fe  Fe163     1.0  0.57175  0.53979  0.06413  1.0000
  S   S321      1.0  0.54335  0.52241  0.05847  1.0000
  S   S322      1.0  0.62397  0.56354  0.07444  1.0000
  S   S323      1.0  0.57983  0.57751  0.05619  1.0000
  Fe  Fe164     1.0  0.36541  0.54562  0.08804  1.0000
  S   S324      1.0  0.40275  0.52542  0.08163  1.0000
  S   S325      1.0  0.35215  0.55549  0.10904  1.0000
  Fe  Fe165     1.0  0.35106  0.55048  0.05997  1.0000
  S   S326      1.0  0.38766  0.53150  0.05122  1.0000
  H   H1258     1.0  0.46373  0.73468  0.17219  1.0000
  H   H1259     1.0  0.47225  0.80668  0.15221  1.0000
  Fe  Fe166     1.0  0.40326  0.55322  0.06273  1.0000
  S   S327      1.0  0.43439  0.57461  0.05513  1.0000
  S   S328      1.0  0.36670  0.57477  0.06977  1.0000
  Fe  Fe167     1.0  0.41546  0.89665  0.13326  1.0000
  S   S329      1.0  0.42294  0.91947  0.14713  1.0000
  S   S330      1.0  0.42526  0.90742  0.11064  1.0000
  Fe  Fe168     1.0  0.39617  0.85870  0.15649  1.0000
  S   S331      1.0  0.40173  0.87900  0.17219  1.0000
  S   S332      1.0  0.38046  0.82405  0.16526  1.0000
  Fe  Fe169     1.0  0.38635  0.91301  0.15916  1.0000
  H   H1260     1.0  0.42740  0.76843  0.17177  1.0000
  Fe  Fe170     1.0  0.43763  0.88354  0.15886  1.0000
  S   S333      1.0  0.47325  0.87079  0.16675  1.0000
  S   S334      1.0  0.37802  0.89227  0.14437  1.0000
  S   S335      1.0  0.43300  0.86106  0.14403  1.0000
  Fe  Fe171     1.0  0.62279  0.91409  0.14408  1.0000
  S   S336      1.0  0.61283  0.94137  0.15837  1.0000
  C   C775      1.0  0.39478  0.96171  0.08389  1.0000
  Fe  Fe172     1.0  0.60757  0.87214  0.16576  1.0000
  S   S337      1.0  0.59670  0.89610  0.18179  1.0000
  S   S338      1.0  0.59614  0.83505  0.17204  1.0000
  Fe  Fe173     1.0  0.57970  0.92373  0.16611  1.0000
  S   S339      1.0  0.54168  0.94466  0.16910  1.0000
  Fe  Fe174     1.0  0.63101  0.91139  0.17271  1.0000
  S   S340      1.0  0.58805  0.89900  0.15072  1.0000
  Fe  Fe175     1.0  0.62007  0.66516  0.13724  1.0000
  S   S341      1.0  0.59333  0.65288  0.15538  1.0000
  S   S342      1.0  0.63539  0.64106  0.12138  1.0000
  Fe  Fe176     1.0  0.62540  0.70967  0.14867  1.0000
  S   S343      1.0  0.59944  0.70039  0.16774  1.0000
  C   C776      1.0  0.61739  0.63350  0.06245  1.0000
  Fe  Fe177     1.0  0.61870  0.66182  0.16742  1.0000
  S   S344      1.0  0.62874  0.63699  0.18648  1.0000
  Fe  Fe178     1.0  0.57697  0.69251  0.15379  1.0000
  S   S345      1.0  0.53746  0.70921  0.15409  1.0000
  H   H1261     1.0  0.57819  0.90628  0.21112  1.0000
  S   S346      1.0  0.60188  0.70421  0.13460  1.0000
  Fe  Fe179     1.0  0.41192  0.64270  0.13584  1.0000
  S   S347      1.0  0.40856  0.62367  0.15730  1.0000
  S   S348      1.0  0.42339  0.62019  0.11907  1.0000
  Fe  Fe180     1.0  0.40342  0.69336  0.14403  1.0000
  S   S349      1.0  0.39857  0.67813  0.16625  1.0000
  S   S350      1.0  0.34648  0.52305  0.07903  1.0000
  Fe  Fe181     1.0  0.43063  0.64997  0.16047  1.0000
  S   S351      1.0  0.46146  0.63692  0.17230  1.0000
  Fe  Fe182     1.0  0.37663  0.65321  0.16100  1.0000
  S   S352      1.0  0.43708  0.66642  0.13861  1.0000
  H   H1262     1.0  0.43605  0.61376  0.08920  1.0000
  C   C777      1.0  0.33754  0.61409  0.17910  1.0000
  C   C778      1.0  0.51667  0.68884  0.15944  1.0000
  C   C779      1.0  0.52252  0.66640  0.16759  1.0000
  C   C780      1.0  0.50534  0.65060  0.17178  1.0000
  C   C781      1.0  0.48239  0.65722  0.16779  1.0000
  C   C782      1.0  0.47657  0.67974  0.15974  1.0000
  C   C783      1.0  0.49370  0.69544  0.15553  1.0000
  H   H1263     1.0  0.54017  0.66131  0.17075  1.0000
  H   H1264     1.0  0.50989  0.63321  0.17806  1.0000
  H   H1265     1.0  0.45880  0.68516  0.15677  1.0000
  H   H1266     1.0  0.48921  0.71260  0.14908  1.0000
  C   C784      1.0  0.44676  0.98962  0.07600  1.0000
  C   C785      1.0  0.42429  0.60148  0.19649  1.0000
  H   H1267     1.0  0.43543  0.58417  0.20054  1.0000
  C   C786      1.0  0.60983  0.80983  0.16396  1.0000
  C   C787      1.0  0.59832  0.78929  0.16685  1.0000
  C   C788      1.0  0.60850  0.76877  0.16064  1.0000
  H   H1268     1.0  0.63732  0.67142  0.06443  1.0000
  C   C789      1.0  0.34413  0.88910  0.19425  1.0000
  H   H1269     1.0  0.65543  0.59790  0.05715  1.0000
  H   H1270     1.0  0.58150  0.78920  0.17398  1.0000
  H   H1271     1.0  0.59941  0.75312  0.16292  1.0000
  H   H1272     1.0  0.53988  0.96059  0.12093  1.0000
  H   H1273     1.0  0.56879  0.51109  0.02158  1.0000
  H   H1274     1.0  0.38023  0.93946  0.18765  1.0000
  C   C790      1.0  0.49063  0.89226  0.16825  1.0000
  C   C791      1.0  0.48389  0.91723  0.16395  1.0000
  C   C792      1.0  0.49918  0.93354  0.16463  1.0000
  C   C793      1.0  0.52146  0.92479  0.16926  1.0000
  C   C794      1.0  0.52804  0.89987  0.17359  1.0000
  C   C795      1.0  0.51244  0.88378  0.17334  1.0000
  H   H1275     1.0  0.46695  0.92394  0.16013  1.0000
  H   H1276     1.0  0.49390  0.95282  0.16138  1.0000
  H   H1277     1.0  0.54503  0.89296  0.17733  1.0000
  H   H1278     1.0  0.51738  0.86463  0.17708  1.0000
  C   C796      1.0  0.38696  0.79898  0.15644  1.0000
  C   C797      1.0  0.38109  0.77637  0.16327  1.0000
  C   C798      1.0  0.38710  0.75576  0.15674  1.0000
  C   C799      1.0  0.39861  0.75775  0.14322  1.0000
  C   C800      1.0  0.40423  0.78042  0.13636  1.0000
  C   C801      1.0  0.39866  0.80090  0.14296  1.0000
  H   H1279     1.0  0.37203  0.77473  0.17370  1.0000
  H   H1280     1.0  0.38259  0.73843  0.16210  1.0000
  H   H1281     1.0  0.40318  0.81822  0.13757  1.0000
  C   C802      1.0  0.37220  0.57187  0.11320  1.0000
  C   C803      1.0  0.39695  0.56773  0.10780  1.0000
  C   C804      1.0  0.41277  0.58156  0.11049  1.0000
  C   C805      1.0  0.40392  0.60009  0.11832  1.0000
  C   C806      1.0  0.37929  0.60380  0.12414  1.0000
  C   C807      1.0  0.36346  0.58961  0.12163  1.0000
  H   H1282     1.0  0.61285  0.63951  0.05206  1.0000
  H   H1283     1.0  0.43190  0.57815  0.10626  1.0000
  H   H1284     1.0  0.37229  0.61818  0.13016  1.0000
  H   H1285     1.0  0.34431  0.59312  0.12575  1.0000
  H   H1286     1.0  0.56416  0.56406  0.00707  1.0000
  C   C808      1.0  0.58563  0.61974  0.09723  1.0000
  C   C809      1.0  0.60472  0.60270  0.10188  1.0000
  C   C810      1.0  0.61949  0.60922  0.10965  1.0000
  C   C811      1.0  0.61481  0.63258  0.11312  1.0000
  C   C812      1.0  0.59510  0.64937  0.10892  1.0000
  C   C813      1.0  0.58068  0.64302  0.10086  1.0000
  H   H1287     1.0  0.60830  0.58452  0.09943  1.0000
  H   H1288     1.0  0.39722  0.61386  0.06362  1.0000
  H   H1289     1.0  0.59162  0.66753  0.11145  1.0000
  H   H1290     1.0  0.56596  0.65632  0.09724  1.0000
  C   C814      1.0  0.51289  0.53727  0.05857  1.0000
  C   C815      1.0  0.49454  0.52329  0.05978  1.0000
  C   C816      1.0  0.47030  0.53453  0.05915  1.0000
  C   C817      1.0  0.46435  0.55990  0.05690  1.0000
  C   C818      1.0  0.48272  0.57392  0.05562  1.0000
  C   C819      1.0  0.50685  0.56266  0.05664  1.0000
  H   H1291     1.0  0.49909  0.50365  0.06122  1.0000
  H   H1292     1.0  0.45635  0.52354  0.06009  1.0000
  H   H1293     1.0  0.47834  0.59354  0.05374  1.0000
  H   H1294     1.0  0.52087  0.57360  0.05560  1.0000
  C   C820      1.0  0.35340  0.59573  0.17294  1.0000
  H   H1295     1.0  0.58220  0.51577  0.03519  1.0000
  C   C821      1.0  0.58952  0.94904  0.19739  1.0000
  S   S353      1.0  0.33008  0.53411  0.19383  1.0000
  C   C822      1.0  0.33808  0.55077  0.01068  1.0000
  C   C823      1.0  0.47524  0.74920  0.16992  1.0000
  C   C824      1.0  0.33226  0.56498  0.18808  1.0000
  C   C825      1.0  0.59302  0.91293  0.21430  1.0000
  H   H1296     1.0  0.49334  0.74156  0.16454  1.0000
  H   H1297     1.0  0.60734  0.54804  0.03158  1.0000
  H   H1298     1.0  0.48373  0.79489  0.16777  1.0000
  C   C826      1.0  0.35100  0.57123  0.17755  1.0000
  H   H1299     1.0  0.36881  0.95974  0.20808  1.0000
  C   C827      1.0  0.40535  0.93239  0.10358  1.0000
  C   C828      1.0  0.38629  0.94484  0.11185  1.0000
  H   H1300     1.0  0.42417  0.59456  0.08087  1.0000
  H   H1301     1.0  0.38306  0.93863  0.12266  1.0000
  H   H1302     1.0  0.65499  0.62217  0.04309  1.0000
  H   H1303     1.0  0.43564  0.65761  0.06709  1.0000
  C   C829      1.0  0.63152  0.95526  0.11565  1.0000
  H   H1304     1.0  0.42050  0.63080  0.05480  1.0000
  C   C830      1.0  0.37153  0.96566  0.10616  1.0000
  H   H1305     1.0  0.45983  0.96193  0.09872  1.0000
  H   H1306     1.0  0.58265  0.57007  0.02599  1.0000
  C   C831      1.0  0.57439  0.52517  0.02597  1.0000
  N   N81       1.0  0.41067  0.63282  0.07609  1.0000
  H   H1307     1.0  0.57415  0.94400  0.19381  1.0000
  C   C832      1.0  0.56617  0.94957  0.21982  1.0000
  H   H1308     1.0  0.60963  0.50724  0.00678  1.0000
  H   H1309     1.0  0.56318  0.96982  0.21832  1.0000
  H   H1310     1.0  0.64092  0.96277  0.13366  1.0000
  H   H1311     1.0  0.35790  0.87217  0.19466  1.0000
  H   H1312     1.0  0.37346  0.64599  0.08413  1.0000
  H   H1313     1.0  0.63550  0.96655  0.17703  1.0000
  C   C833      1.0  0.40431  0.63102  0.06299  1.0000
  C   C834      1.0  0.33470  0.97966  0.20274  1.0000
  H   H1314     1.0  0.34507  0.86468  0.17418  1.0000
  C   C835      1.0  0.60976  0.94765  0.21634  1.0000
  C   C836      1.0  0.62491  0.96537  0.10294  1.0000
  H   H1315     1.0  0.44655  0.61224  0.07155  1.0000
  H   H1316     1.0  0.33870  0.51331  0.04641  1.0000
  H   H1317     1.0  0.64062  0.82554  0.15248  1.0000
  C   C837      1.0  0.63516  0.97049  0.12403  1.0000
  C   C838      1.0  0.58078  0.55082  0.00417  1.0000
  H   H1318     1.0  0.44262  0.97085  0.07792  1.0000
  S   S354      1.0  0.64531  0.74178  0.14507  1.0000
  H   H1319     1.0  0.63694  0.63732  0.08371  1.0000
  C   C839      1.0  0.34775  0.95671  0.17950  1.0000
  N   N82       1.0  0.39809  0.60206  0.20187  1.0000
  S   S355      1.0  0.64642  0.67166  0.14934  1.0000
  H   H1320     1.0  0.65161  0.60024  0.20592  1.0000
  N   N83       1.0  0.59198  0.53845  0.01613  1.0000
  H   H1321     1.0  0.36975  0.58235  0.20121  1.0000
  H   H1322     1.0  0.55059  0.94410  0.21668  1.0000
  H   H1323     1.0  0.39312  0.58322  0.18654  1.0000
  H   H1324     1.0  0.42428  0.65788  0.08481  1.0000
  H   H1325     1.0  0.35696  0.97534  0.11264  1.0000
  H   H1326     1.0  0.36365  0.55710  0.17291  1.0000
  C   C840      1.0  0.65966  0.62540  0.18754  1.0000
  N   N84       1.0  0.52424  0.62545  0.13184  1.0000
  C   C841      1.0  0.53098  0.64829  0.13370  1.0000
  C   C842      1.0  0.54555  0.60579  0.13240  1.0000
  C   C843      1.0  0.51622  0.62889  0.11856  1.0000
  H   H1327     1.0  0.53776  0.64610  0.14346  1.0000
  H   H1328     1.0  0.51516  0.66340  0.13377  1.0000
  H   H1329     1.0  0.54569  0.65418  0.12550  1.0000
  H   H1330     1.0  0.54131  0.58837  0.13076  1.0000
  H   H1331     1.0  0.56117  0.61037  0.12446  1.0000
  H   H1332     1.0  0.55189  0.60250  0.14235  1.0000
  H   H1333     1.0  0.51093  0.61201  0.11684  1.0000
  H   H1334     1.0  0.53098  0.63363  0.11006  1.0000
  H   H1335     1.0  0.50022  0.64368  0.11777  1.0000
  H   H1336     1.0  0.60661  0.94139  0.19115  1.0000
  H   H1337     1.0  0.62790  0.53060  0.00465  1.0000
  H   H1338     1.0  0.38276  0.61370  0.08835  1.0000
  H   H1339     1.0  0.36759  0.60033  0.16465  1.0000
  C   C844      1.0  0.40930  0.94062  0.08957  1.0000
  H   H1340     1.0  0.39022  0.64124  0.19912  1.0000
  H   H1341     1.0  0.43125  0.61676  0.19904  1.0000
  H   H1342     1.0  0.38680  0.62823  0.18513  1.0000
  H   H1343     1.0  0.40402  0.55383  0.10153  1.0000
  Fe  Fe183     1.0  0.38392  0.50554  0.07089  1.0000
  H   H1344     1.0  0.58789  0.96920  0.19512  1.0000
  C   C845      1.0  0.39409  0.59925  0.21680  1.0000
  S   S356      1.0  0.63281  0.92393  0.12145  1.0000
  H   H1345     1.0  0.39010  0.64639  0.05979  1.0000
  H   H1346     1.0  0.40023  0.61416  0.22022  1.0000
  C   C846      1.0  0.46526  0.98035  0.09613  1.0000
  C   C847      1.0  0.38428  0.62557  0.19636  1.0000
  H   H1347     1.0  0.39917  0.56389  0.20203  1.0000
  S   S357      1.0  0.34164  0.64477  0.17452  1.0000
  H   H1348     1.0  0.55757  0.53768  0.02947  1.0000
  H   H1349     1.0  0.65221  0.52476  0.03420  1.0000
  H   H1350     1.0  0.62261  0.51122  0.02070  1.0000
  S   S358      1.0  0.35454  0.94246  0.16493  1.0000
  H   H1351     1.0  0.39280  0.63416  0.09661  1.0000
  H   H1352     1.0  0.57535  0.53754  0.99910  1.0000
  C   C848      1.0  0.33890  0.55381  0.02394  1.0000
  C   C849      1.0  0.43020  0.61249  0.07960  1.0000
  N   N85       1.0  0.58961  0.93981  0.21196  1.0000
  H   H1353     1.0  0.61058  0.90504  0.20843  1.0000
  C   C850      1.0  0.57341  0.96869  0.13385  1.0000
  H   H1354     1.0  0.33873  0.89371  0.20466  1.0000
  S   S359      1.0  0.64387  0.57661  0.03542  1.0000
  C   C851      1.0  0.59878  0.55676  0.02255  1.0000
  C   C852      1.0  0.64217  0.78893  0.14884  1.0000
  H   H1355     1.0  0.58756  0.97831  0.13547  1.0000
  C   C853      1.0  0.64841  0.62532  0.07662  1.0000
  H   H1356     1.0  0.61216  0.56714  0.01548  1.0000
  H   H1357     1.0  0.50952  0.61600  0.15292  1.0000
  H   H1358     1.0  0.42380  0.93080  0.08311  1.0000
  H   H1359     1.0  0.35486  0.54764  0.00363  1.0000
  H   H1360     1.0  0.60956  0.94221  0.22743  1.0000
  H   H1361     1.0  0.59365  0.56101  0.99657  1.0000
  C   C854      1.0  0.33091  0.88127  0.17465  1.0000
  H   H1362     1.0  0.63470  0.59617  0.11291  1.0000
  H   H1363     1.0  0.56877  0.95600  0.14335  1.0000
  H   H1364     1.0  0.62775  0.93920  0.21128  1.0000
  H   H1365     1.0  0.46637  0.98603  0.10579  1.0000
  C   C855      1.0  0.63072  0.76832  0.15181  1.0000
  H   H1366     1.0  0.33206  0.49716  0.12825  1.0000
  N   N86       1.0  0.64332  0.63356  0.06265  1.0000
  C   C856      1.0  0.35671  0.96337  0.20070  1.0000
  H   H1367     1.0  0.62229  0.95358  0.09638  1.0000
  C   C857      1.0  0.45967  0.76524  0.14902  1.0000
  H   H1368     1.0  0.44722  0.75155  0.15110  1.0000
  H   H1369     1.0  0.47694  0.75749  0.14293  1.0000
  H   H1370     1.0  0.45113  0.78155  0.14257  1.0000
  N   N87       1.0  0.54819  0.84266  0.14302  1.0000
  C   C858      1.0  0.53780  0.83038  0.13453  1.0000
  C   C859      1.0  0.57492  0.83967  0.13892  1.0000
  C   C860      1.0  0.54221  0.83175  0.15739  1.0000
  C   C861      1.0  0.53775  0.86883  0.14128  1.0000
  H   H1371     1.0  0.51763  0.83239  0.13737  1.0000
  H   H1372     1.0  0.54532  0.81057  0.13563  1.0000
  H   H1373     1.0  0.54197  0.83818  0.12361  1.0000
  H   H1374     1.0  0.58330  0.84886  0.14509  1.0000
  H   H1375     1.0  0.58348  0.82013  0.14032  1.0000
  H   H1376     1.0  0.58020  0.84755  0.12811  1.0000
  H   H1377     1.0  0.54969  0.81198  0.15912  1.0000
  H   H1378     1.0  0.52217  0.83411  0.16093  1.0000
  H   H1379     1.0  0.55008  0.84041  0.16405  1.0000
  H   H1380     1.0  0.54481  0.87850  0.14779  1.0000
  H   H1381     1.0  0.51754  0.87172  0.14416  1.0000
  H   H1382     1.0  0.54221  0.87783  0.13061  1.0000
  H   H1383     1.0  0.47814  0.75295  0.17974  1.0000
  S   S360      1.0  0.40684  0.73246  0.13454  1.0000
  C   C862      1.0  0.34068  0.49343  0.05009  1.0000
  C   C863      1.0  0.48031  0.78971  0.15841  1.0000
  H   H1384     1.0  0.49822  0.78263  0.15262  1.0000
  C   C864      1.0  0.38895  0.63162  0.08674  1.0000
  H   H1385     1.0  0.52763  0.96021  0.13859  1.0000
  C   C865      1.0  0.41926  0.65614  0.07504  1.0000
  H   H1386     1.0  0.41302  0.78213  0.12588  1.0000
  C   C866      1.0  0.38967  0.58199  0.19776  1.0000
  H   H1387     1.0  0.36435  0.62669  0.20007  1.0000
  H   H1388     1.0  0.35619  0.55311  0.02704  1.0000
  C   C867      1.0  0.36321  0.95186  0.18914  1.0000
  H   H1389     1.0  0.44287  0.78591  0.17920  1.0000
  H   H1390     1.0  0.40426  0.58169  0.22131  1.0000
  H   H1391     1.0  0.35336  0.90396  0.18790  1.0000
  H   H1392     1.0  0.37445  0.59960  0.22113  1.0000
  C   C868      1.0  0.65875  0.61697  0.05368  1.0000
  N   N88       1.0  0.46394  0.77139  0.16170  1.0000
  H   H1393     1.0  0.43183  0.79857  0.16364  1.0000
  S   S361      1.0  0.37853  0.67092  0.13914  1.0000
  C   C869      1.0  0.65136  0.98832  0.18702  1.0000
  H   H1394     1.0  0.41789  0.98148  0.10074  1.0000
  C   C870      1.0  0.50416  0.61884  0.14274  1.0000
  H   H1395     1.0  0.49840  0.60182  0.14161  1.0000
  H   H1396     1.0  0.48785  0.63340  0.14271  1.0000
  C   C871      1.0  0.44052  0.78146  0.16944  1.0000
  C   C872      1.0  0.61396  0.52112  0.01186  1.0000
  H   H1397     1.0  0.40495  0.67193  0.07250  1.0000
  H   H1398     1.0  0.39806  0.96814  0.07310  1.0000
  C   C873      1.0  0.53304  0.97233  0.12889  1.0000
  C   C874      1.0  0.63163  0.80977  0.15478  1.0000
  H   H1399     1.0  0.58172  0.95735  0.12583  1.0000
  H   H1400     1.0  0.59337  0.90526  0.22517  1.0000
  C   C875      1.0  0.37602  0.97441  0.09222  1.0000
  H   H1401     1.0  0.36433  0.50433  0.02480  1.0000
  H   H1402     1.0  0.32816  0.53440  0.16409  1.0000
  C   C876      1.0  0.64833  0.96638  0.18359  1.0000
  H   H1403     1.0  0.60898  0.96773  0.21385  1.0000
  H   H1404     1.0  0.60514  0.64561  0.06922  1.0000
  H   H1405     1.0  0.61263  0.61502  0.06600  1.0000
  S   S362      1.0  0.62755  0.49942  0.09762  1.0000
  H   H1406     1.0  0.56546  0.94282  0.23087  1.0000
  H   H1407     1.0  0.63841  0.73702  0.19145  1.0000
  C   C877      1.0  0.64771  0.73121  0.18166  1.0000
  C   C878      1.0  0.64871  0.65850  0.05785  1.0000
  H   H1408     1.0  0.64509  0.66527  0.04732  1.0000
  H   H1409     1.0  0.64103  0.68430  0.18660  1.0000
  H   H1410     1.0  0.33885  0.89664  0.16794  1.0000
  H   H1411     1.0  0.63349  0.72790  0.17646  1.0000
  H   H1412     1.0  0.64474  0.69340  0.20183  1.0000
  H   H1413     1.0  0.64463  0.60651  0.08055  1.0000
  H   H1414     1.0  0.34769  0.50427  0.11128  1.0000
  H   H1415     1.0  0.65580  0.74678  0.17522  1.0000
  C   C879      1.0  0.65455  0.68891  0.19184  1.0000
  S   S363      1.0  0.65569  0.91596  0.18671  1.0000
  H   H1416     1.0  0.48379  0.97843  0.08994  1.0000
  H   H1417     1.0  0.65936  0.78872  0.14200  1.0000
  H   H1418     1.0  0.32859  0.55679  0.14052  1.0000
  H   H1419     1.0  0.53666  0.98992  0.15087  1.0000
  C   C880      1.0  0.34779  0.49060  0.12073  1.0000
  N   N89       1.0  0.55179  0.98603  0.13020  1.0000
  H   H1420     1.0  0.51634  0.98477  0.12623  1.0000
  H   H1421     1.0  0.46439  0.98963  0.06893  1.0000
  H   H1422     1.0  0.36477  0.49064  0.12461  1.0000
  H   H1423     1.0  0.35925  0.61594  0.43317  1.0000
  H   H1424     1.0  0.33331  0.61460  0.44634  1.0000
  C   C881      1.0  0.35792  0.82666  0.47617  1.0000
  H   H1425     1.0  0.36325  0.95805  0.46010  1.0000
  H   H1426     1.0  0.36662  0.55141  0.42855  1.0000
  H   H1427     1.0  0.35673  0.88767  0.46655  1.0000
  H   H1428     1.0  0.58367  0.67138  0.46902  1.0000
  H   H1429     1.0  0.62798  0.66084  0.46885  1.0000
  H   H1430     1.0  0.36184  0.49810  0.41766  1.0000
  H   H1431     1.0  0.39788  0.84482  0.46273  1.0000
  H   H1432     1.0  0.36441  0.82103  0.46603  1.0000
  C   C882      1.0  0.35069  0.60384  0.44197  1.0000
  N   N90       1.0  0.36411  0.85061  0.47648  1.0000
  H   H1433     1.0  0.37803  0.57959  0.42246  1.0000
  H   H1434     1.0  0.58576  0.61613  0.47286  1.0000
  C   C883      1.0  0.33584  0.56579  0.45005  1.0000
  N   N91       1.0  0.34635  0.58160  0.43795  1.0000
  C   C884      1.0  0.34894  0.95482  0.46863  1.0000
  H   H1435     1.0  0.60625  0.63334  0.46081  1.0000
  C   C885      1.0  0.36952  0.56827  0.43166  1.0000
  S   S364      1.0  0.38241  0.91723  0.47891  1.0000
  C   C886      1.0  0.62447  0.64967  0.47905  1.0000
  C   C887      1.0  0.35221  0.86942  0.46657  1.0000
  H   H1436     1.0  0.33792  0.82685  0.47865  1.0000
  H   H1437     1.0  0.33656  0.60001  0.41878  1.0000
  H   H1438     1.0  0.61805  0.60807  0.47260  1.0000
  H   H1439     1.0  0.35815  0.86523  0.45609  1.0000
  C   C888      1.0  0.32912  0.58843  0.42818  1.0000
  C   C889      1.0  0.39078  0.84947  0.47304  1.0000
  H   H1440     1.0  0.36267  0.59943  0.44983  1.0000
  H   H1441     1.0  0.38280  0.56269  0.43883  1.0000
  H   H1442     1.0  0.33339  0.54831  0.44757  1.0000
  C   C890      1.0  0.35339  0.93561  0.47928  1.0000
  C   C891      1.0  0.60287  0.62372  0.47143  1.0000
  H   H1443     1.0  0.34750  0.56140  0.45806  1.0000
  H   H1444     1.0  0.64024  0.63463  0.47983  1.0000
  H   H1445     1.0  0.39610  0.86723  0.47326  1.0000
  H   H1446     1.0  0.33144  0.65937  0.47764  1.0000
  C   C892      1.0  0.58108  0.66067  0.47940  1.0000
  H   H1447     1.0  0.40035  0.83548  0.48031  1.0000
  N   N92       1.0  0.60133  0.64018  0.48126  1.0000
  C   C893      1.0  0.33590  0.59782  0.48390  1.0000
  C   C894      1.0  0.34146  0.62087  0.48394  1.0000
  H   H1448     1.0  0.33204  0.87106  0.46895  1.0000
  H   H1449     1.0  0.56327  0.65420  0.48122  1.0000
  S   S365      1.0  0.40023  0.74062  0.48365  1.0000
  H   H1450     1.0  0.36643  0.81218  0.48367  1.0000
  C   C895      1.0  0.32735  0.64151  0.47775  1.0000
  C   C896      1.0  0.40888  0.77925  0.49368  1.0000
  Fe  Fe184     1.0  0.58552  0.71843  0.52344  1.0000
  S   S366      1.0  0.56103  0.69570  0.53825  1.0000
  S   S367      1.0  0.57049  0.75849  0.52070  1.0000
  Fe  Fe185     1.0  0.62367  0.67386  0.51735  1.0000
  S   S368      1.0  0.60195  0.64792  0.53182  1.0000
  H   H1451     1.0  0.59132  0.97652  0.50134  1.0000
  Fe  Fe186     1.0  0.56959  0.67042  0.52294  1.0000
  S   S369      1.0  0.54412  0.65689  0.51250  1.0000
  Fe  Fe187     1.0  0.59568  0.67600  0.54561  1.0000
  S   S370      1.0  0.59845  0.67087  0.56784  1.0000
  S   S371      1.0  0.59204  0.69467  0.50757  1.0000
  S   S372      1.0  0.61950  0.70048  0.53168  1.0000
  Fe  Fe188     1.0  0.63753  0.87464  0.54696  1.0000
  H   H1452     1.0  0.51178  0.81934  0.50232  1.0000
  C   C897      1.0  0.65162  0.90260  0.57371  1.0000
  Fe  Fe189     1.0  0.58921  0.88879  0.53594  1.0000
  S   S373      1.0  0.60794  0.89497  0.51436  1.0000
  S   S374      1.0  0.54832  0.89919  0.54134  1.0000
  Fe  Fe190     1.0  0.63345  0.86081  0.52063  1.0000
  H   H1453     1.0  0.63901  0.60231  0.61704  1.0000
  Fe  Fe191     1.0  0.63215  0.91407  0.52216  1.0000
  S   S375      1.0  0.63741  0.95311  0.51426  1.0000
  S   S376      1.0  0.61278  0.85294  0.54165  1.0000
  S   S377      1.0  0.61202  0.90977  0.54353  1.0000
  Fe  Fe192     1.0  0.38746  0.89971  0.52886  1.0000
  S   S378      1.0  0.36580  0.88596  0.51677  1.0000
  S   S379      1.0  0.32873  0.90145  0.60443  1.0000
  Fe  Fe193     1.0  0.43578  0.87574  0.51449  1.0000
  S   S380      1.0  0.41750  0.86094  0.50087  1.0000
  S   S381      1.0  0.47694  0.86495  0.51077  1.0000
  Fe  Fe194     1.0  0.39320  0.89733  0.49893  1.0000
  S   S382      1.0  0.64727  0.82952  0.50918  1.0000
  Fe  Fe195     1.0  0.39157  0.85083  0.51973  1.0000
  S   S383      1.0  0.37553  0.81620  0.52457  1.0000
  S   S384      1.0  0.41383  0.91324  0.51071  1.0000
  S   S385      1.0  0.41098  0.86325  0.53369  1.0000
  Fe  Fe196     1.0  0.34992  0.69042  0.51902  1.0000
  S   S386      1.0  0.35157  0.69428  0.49655  1.0000
  C   C898      1.0  0.56750  0.95533  0.52460  1.0000
  Fe  Fe197     1.0  0.40344  0.66654  0.51804  1.0000
  H   H1454     1.0  0.51256  0.79296  0.49485  1.0000
  S   S387      1.0  0.43121  0.65442  0.53227  1.0000
  Fe  Fe198     1.0  0.38764  0.70604  0.49527  1.0000
  C   C899      1.0  0.65226  0.59442  0.62410  1.0000
  Fe  Fe199     1.0  0.37248  0.65604  0.49893  1.0000
  H   H1455     1.0  0.57889  0.62042  0.49748  1.0000
  S   S388      1.0  0.38429  0.70478  0.51752  1.0000
  S   S389      1.0  0.36838  0.65162  0.52170  1.0000
  H   H1456     1.0  0.59440  0.94479  0.50106  1.0000
  H   H1457     1.0  0.34078  0.74534  0.53619  1.0000
  H   H1458     1.0  0.40135  0.61147  0.50915  1.0000
  C   C900      1.0  0.64856  0.66248  0.56235  1.0000
  C   C901      1.0  0.44377  0.56495  0.52055  1.0000
  C   C902      1.0  0.38217  0.79683  0.51231  1.0000
  C   C903      1.0  0.40362  0.79603  0.50279  1.0000
  C   C904      1.0  0.65372  0.67181  0.58757  1.0000
  C   C905      1.0  0.39291  0.76298  0.49425  1.0000
  C   C906      1.0  0.37120  0.76434  0.50353  1.0000
  C   C907      1.0  0.36580  0.78132  0.51244  1.0000
  H   H1459     1.0  0.41645  0.80782  0.50268  1.0000
  C   C908      1.0  0.35555  0.85698  0.49019  1.0000
  H   H1460     1.0  0.35848  0.75229  0.50380  1.0000
  H   H1461     1.0  0.34883  0.78242  0.51943  1.0000
  C   C909      1.0  0.52868  0.88913  0.53296  1.0000
  C   C910      1.0  0.53776  0.87453  0.52293  1.0000
  C   C911      1.0  0.52167  0.86729  0.51622  1.0000
  C   C912      1.0  0.49640  0.87467  0.51943  1.0000
  C   C913      1.0  0.48731  0.88931  0.52945  1.0000
  C   C914      1.0  0.50342  0.89651  0.53618  1.0000
  H   H1462     1.0  0.55718  0.86878  0.52035  1.0000
  H   H1463     1.0  0.52888  0.85599  0.50847  1.0000
  H   H1464     1.0  0.46788  0.89502  0.53203  1.0000
  H   H1465     1.0  0.49627  0.90780  0.54394  1.0000
  H   H1466     1.0  0.34654  0.58173  0.48874  1.0000
  H   H1467     1.0  0.45709  0.60296  0.50247  1.0000
  C   C915      1.0  0.59190  0.77819  0.51687  1.0000
  C   C916      1.0  0.58444  0.80221  0.51926  1.0000
  C   C917      1.0  0.60141  0.81806  0.51683  1.0000
  C   C918      1.0  0.62577  0.81010  0.51171  1.0000
  C   C919      1.0  0.63311  0.78625  0.50897  1.0000
  C   C920      1.0  0.61626  0.77017  0.51174  1.0000
  H   H1468     1.0  0.64772  0.78926  0.55173  1.0000
  H   H1469     1.0  0.59560  0.83651  0.51882  1.0000
  C   C921      1.0  0.58122  0.96213  0.50045  1.0000
  H   H1470     1.0  0.62204  0.75169  0.50976  1.0000
  C   C922      1.0  0.51236  0.65907  0.51814  1.0000
  C   C923      1.0  0.49700  0.66100  0.50861  1.0000
  C   C924      1.0  0.47189  0.66083  0.51277  1.0000
  C   C925      1.0  0.46205  0.65785  0.52657  1.0000
  C   C926      1.0  0.47738  0.65606  0.53610  1.0000
  C   C927      1.0  0.50237  0.65704  0.53191  1.0000
  H   H1471     1.0  0.50457  0.66258  0.49794  1.0000
  H   H1472     1.0  0.46031  0.66246  0.50530  1.0000
  S   S390      1.0  0.36722  0.62281  0.49093  1.0000
  H   H1473     1.0  0.51406  0.65529  0.53935  1.0000
  C   C928      1.0  0.33066  0.49272  0.70259  1.0000
  H   H1474     1.0  0.38521  0.74134  0.53293  1.0000
  H   H1475     1.0  0.37421  0.95698  0.51427  1.0000
  C   C929      1.0  0.36868  0.90179  0.56679  1.0000
  C   C930      1.0  0.36102  0.89699  0.58088  1.0000
  H   H1476     1.0  0.38650  0.89346  0.56231  1.0000
  H   H1477     1.0  0.37295  0.88480  0.58721  1.0000
  H   H1478     1.0  0.41948  0.58827  0.50025  1.0000
  C   C931      1.0  0.63043  0.67364  0.58428  1.0000
  C   C932      1.0  0.62779  0.66892  0.57167  1.0000
  C   C933      1.0  0.35977  0.74936  0.56513  1.0000
  H   H1479     1.0  0.61439  0.67877  0.59149  1.0000
  H   H1480     1.0  0.61926  0.84815  0.62504  1.0000
  C   C934      1.0  0.54283  0.98406  0.51005  1.0000
  S   S391      1.0  0.36385  0.92711  0.54124  1.0000
  H   H1481     1.0  0.65561  0.67556  0.59727  1.0000
  H   H1482     1.0  0.40614  0.58329  0.53796  1.0000
  H   H1483     1.0  0.59690  0.63810  0.50286  1.0000
  H   H1484     1.0  0.46995  0.65368  0.54680  1.0000
  H   H1485     1.0  0.33765  0.91658  0.49833  1.0000
  H   H1486     1.0  0.34256  0.51775  0.67757  1.0000
  H   H1487     1.0  0.34545  0.49544  0.70758  1.0000
  C   C935      1.0  0.33451  0.52881  0.68574  1.0000
  H   H1488     1.0  0.32729  0.64785  0.57257  1.0000
  H   H1489     1.0  0.36346  0.96270  0.49834  1.0000
  H   H1490     1.0  0.34749  0.70802  0.56246  1.0000
  H   H1491     1.0  0.38015  0.70438  0.55892  1.0000
  H   H1492     1.0  0.62447  0.66131  0.48667  1.0000
  H   H1493     1.0  0.43246  0.59563  0.53910  1.0000
  H   H1494     1.0  0.56561  0.80852  0.52321  1.0000
  N   N93       1.0  0.49907  0.78915  0.51627  1.0000
  C   C936      1.0  0.41153  0.59257  0.51056  1.0000
  H   H1495     1.0  0.34656  0.94746  0.51329  1.0000
  N   N94       1.0  0.55967  0.96063  0.51121  1.0000
  H   H1496     1.0  0.63749  0.61949  0.51358  1.0000
  C   C937      1.0  0.50361  0.79770  0.52820  1.0000
  H   H1497     1.0  0.53088  0.93926  0.51786  1.0000
  H   H1498     1.0  0.64091  0.88339  0.61453  1.0000
  H   H1499     1.0  0.49233  0.75419  0.52740  1.0000
  N   N95       1.0  0.36165  0.74040  0.55224  1.0000
  C   C938      1.0  0.59688  0.62661  0.49517  1.0000
  C   C939      1.0  0.33344  0.80960  0.60542  1.0000
  H   H1500     1.0  0.64191  0.59314  0.63462  1.0000
  H   H1501     1.0  0.57944  0.67334  0.48671  1.0000
  H   H1502     1.0  0.39788  0.58044  0.51517  1.0000
  H   H1503     1.0  0.49180  0.79072  0.53763  1.0000
  H   H1504     1.0  0.42568  0.77825  0.48650  1.0000
  H   H1505     1.0  0.37585  0.74109  0.57015  1.0000
  C   C940      1.0  0.51523  0.79905  0.50409  1.0000
  H   H1506     1.0  0.33797  0.77182  0.54392  1.0000
  C   C941      1.0  0.44755  0.60711  0.51257  1.0000
  H   H1507     1.0  0.61098  0.61021  0.49674  1.0000
  H   H1508     1.0  0.45813  0.56263  0.52693  1.0000
  H   H1509     1.0  0.35947  0.87518  0.49066  1.0000
  H   H1510     1.0  0.36461  0.84361  0.49793  1.0000
  H   H1511     1.0  0.53477  0.79309  0.50515  1.0000
  H   H1512     1.0  0.52327  0.75511  0.51961  1.0000
  H   H1513     1.0  0.60203  0.76558  0.55718  1.0000
  H   H1514     1.0  0.65049  0.63400  0.63546  1.0000
  H   H1515     1.0  0.57992  0.93766  0.52583  1.0000
  H   H1516     1.0  0.46889  0.81783  0.51294  1.0000
  H   H1517     1.0  0.34099  0.85446  0.59345  1.0000
  H   H1518     1.0  0.38321  0.76711  0.54094  1.0000
  C   C942      1.0  0.35374  0.91834  0.55864  1.0000
  H   H1519     1.0  0.35105  0.81381  0.60680  1.0000
  C   C943      1.0  0.50409  0.76226  0.51825  1.0000
  C   C944      1.0  0.54710  0.94102  0.50980  1.0000
  H   H1520     1.0  0.43133  0.55170  0.52539  1.0000
  C   C945      1.0  0.33086  0.92944  0.56457  1.0000
  N   N96       1.0  0.64029  0.75400  0.55070  1.0000
  C   C946      1.0  0.33987  0.75162  0.54600  1.0000
  H   H1521     1.0  0.50104  0.75520  0.50938  1.0000
  H   H1522     1.0  0.57611  0.96611  0.49017  1.0000
  C   C947      1.0  0.65411  0.87569  0.62164  1.0000
  C   C948      1.0  0.65707  0.91796  0.58157  1.0000
  H   H1523     1.0  0.64674  0.65875  0.55263  1.0000
  H   H1524     1.0  0.46154  0.60662  0.51894  1.0000
  C   C949      1.0  0.47337  0.79764  0.51452  1.0000
  S   S392      1.0  0.40924  0.66816  0.49551  1.0000
  H   H1525     1.0  0.64656  0.57968  0.50551  1.0000
  H   H1526     1.0  0.34323  0.74479  0.57234  1.0000
  H   H1527     1.0  0.65802  0.76999  0.53133  1.0000
  C   C950      1.0  0.65732  0.75188  0.53785  1.0000
  H   H1528     1.0  0.40787  0.61472  0.53181  1.0000
  H   H1529     1.0  0.55178  0.95397  0.53303  1.0000
  H   H1530     1.0  0.36314  0.70640  0.54557  1.0000
  H   H1531     1.0  0.55919  0.92300  0.51076  1.0000
  H   H1532     1.0  0.63517  0.82134  0.63411  1.0000
  C   C951      1.0  0.63351  0.84152  0.63160  1.0000
  C   C952      1.0  0.65842  0.59302  0.50142  1.0000
  N   N97       1.0  0.65700  0.84884  0.62477  1.0000
  H   H1533     1.0  0.53652  0.98864  0.50006  1.0000
  H   H1534     1.0  0.52290  0.79156  0.52975  1.0000
  H   H1535     1.0  0.65192  0.78015  0.50489  1.0000
  H   H1536     1.0  0.64620  0.93581  0.58201  1.0000
  H   H1537     1.0  0.33716  0.66367  0.54796  1.0000
  H   H1538     1.0  0.40054  0.73835  0.54707  1.0000
  H   H1539     1.0  0.64725  0.64318  0.61786  1.0000
  C   C953      1.0  0.61543  0.76370  0.54774  1.0000
  C   C954      1.0  0.38364  0.74706  0.54293  1.0000
  H   H1540     1.0  0.52641  0.98350  0.51807  1.0000
  H   H1541     1.0  0.43788  0.62620  0.51102  1.0000
  N   N98       1.0  0.43040  0.59016  0.51907  1.0000
  H   H1542     1.0  0.57752  0.96941  0.52599  1.0000
  C   C955      1.0  0.41873  0.59609  0.53259  1.0000
  N   N99       1.0  0.34376  0.98597  0.51262  1.0000
  C   C956      1.0  0.64779  0.77076  0.55792  1.0000
  C   C957      1.0  0.35759  0.96229  0.50944  1.0000
  H   H1543     1.0  0.34972  0.53269  0.68996  1.0000
  H   H1544     1.0  0.46936  0.79153  0.50559  1.0000
  C   C958      1.0  0.33625  0.98428  0.52745  1.0000
  H   H1545     1.0  0.63660  0.90859  0.56814  1.0000
  H   H1546     1.0  0.50006  0.81797  0.52697  1.0000
  C   C959      1.0  0.64060  0.72975  0.55925  1.0000
  H   H1547     1.0  0.63497  0.71668  0.55412  1.0000
  H   H1548     1.0  0.62791  0.73058  0.56903  1.0000
  C   C960      1.0  0.36324  0.71365  0.55493  1.0000
  H   H1549     1.0  0.45281  0.55991  0.51053  1.0000
  S   S393      1.0  0.65859  0.85923  0.56411  1.0000
  H   H1550     1.0  0.63534  0.77286  0.56766  1.0000
  H   H1551     1.0  0.61459  0.78196  0.54127  1.0000
  H   H1552     1.0  0.35232  0.97971  0.53277  1.0000
  H   H1553     1.0  0.35865  0.76949  0.56344  1.0000
  H   H1554     1.0  0.62685  0.84901  0.64122  1.0000
  H   H1555     1.0  0.64774  0.88418  0.63094  1.0000
  H   H1556     1.0  0.65186  0.84556  0.60486  1.0000
  C   C961      1.0  0.33473  0.93149  0.49019  1.0000
  H   H1557     1.0  0.54093  0.94425  0.49982  1.0000
  H   H1558     1.0  0.60916  0.75156  0.54225  1.0000
  C   C962      1.0  0.65324  0.61555  0.50599  1.0000
  H   H1559     1.0  0.33691  0.80083  0.59622  1.0000
  H   H1560     1.0  0.33558  0.85753  0.49329  1.0000
  H   H1561     1.0  0.46068  0.79075  0.52359  1.0000
  C   C963      1.0  0.33809  0.90805  0.58679  1.0000
  H   H1562     1.0  0.65177  0.74001  0.53190  1.0000
  H   H1563     1.0  0.65909  0.72174  0.56167  1.0000
  C   C964      1.0  0.66030  0.63418  0.62485  1.0000
  H   H1564     1.0  0.66006  0.57559  0.62219  1.0000
  H   H1565     1.0  0.32783  0.84799  0.61832  1.0000
  S   S394      1.0  0.66027  0.66260  0.50476  1.0000
  S   S395      1.0  0.65974  0.88049  0.52621  1.0000
  H   H1566     1.0  0.32749  0.79604  0.61431  1.0000
  C   C965      1.0  0.64500  0.49167  0.75152  1.0000
  H   H1567     1.0  0.59690  0.51555  0.90798  1.0000
  C   C966      1.0  0.54506  0.97390  0.88983  1.0000
  Fe  Fe200     1.0  0.59198  0.53750  0.86322  1.0000
  S   S396      1.0  0.55445  0.52984  0.87347  1.0000
  Fe  Fe201     1.0  0.63003  0.56817  0.84717  1.0000
  S   S397      1.0  0.60946  0.54286  0.84138  1.0000
  S   S398      1.0  0.60940  0.56597  0.86835  1.0000
  Fe  Fe202     1.0  0.42744  0.54727  0.85331  1.0000
  S   S399      1.0  0.45737  0.57009  0.84877  1.0000
  Fe  Fe203     1.0  0.37843  0.54467  0.84584  1.0000
  H   H1568     1.0  0.38599  0.55490  0.95610  1.0000
  H   H1569     1.0  0.65390  0.54057  0.92102  1.0000
  Fe  Fe204     1.0  0.39240  0.51769  0.87264  1.0000
  H   H1570     1.0  0.60225  0.95817  0.89761  1.0000
  C   C967      1.0  0.58206  0.96365  0.89948  1.0000
  S   S400      1.0  0.38848  0.55730  0.86333  1.0000
  S   S401      1.0  0.41680  0.53861  0.83497  1.0000
  C   C968      1.0  0.34148  0.50401  0.79507  1.0000
  H   H1571     1.0  0.33685  0.55311  0.86173  1.0000
  Fe  Fe205     1.0  0.41907  0.50055  0.84613  1.0000
  C   C969      1.0  0.33132  0.60083  0.84502  1.0000
  H   H1572     1.0  0.64244  0.50541  0.79516  1.0000
  H   H1573     1.0  0.34502  0.59433  0.85146  1.0000
  Fe  Fe206     1.0  0.63944  0.53534  0.87374  1.0000
  H   H1574     1.0  0.57811  0.98155  0.90308  1.0000
  H   H1575     1.0  0.49965  0.49628  0.85396  1.0000
  C   C970      1.0  0.35432  0.51908  0.90463  1.0000
  H   H1576     1.0  0.60313  0.97649  0.87380  1.0000
  H   H1577     1.0  0.66002  0.84257  0.82172  1.0000
  C   C971      1.0  0.36141  0.57293  0.93524  1.0000
  H   H1578     1.0  0.33142  0.54019  0.94645  1.0000
  C   C972      1.0  0.33916  0.97109  0.82291  1.0000
  C   C973      1.0  0.32842  0.55700  0.90919  1.0000
  C   C974      1.0  0.34801  0.54429  0.90125  1.0000
  C   C975      1.0  0.50642  0.53214  0.87245  1.0000
  C   C976      1.0  0.48476  0.54071  0.86709  1.0000
  H   H1579     1.0  0.56217  0.56785  0.88812  1.0000
  H   H1580     1.0  0.36193  0.52813  0.94928  1.0000
  C   C977      1.0  0.52783  0.54136  0.86633  1.0000
  C   C978      1.0  0.52744  0.55944  0.85489  1.0000
  C   C979      1.0  0.50564  0.56832  0.84966  1.0000
  C   C980      1.0  0.48428  0.55888  0.85570  1.0000
  H   H1581     1.0  0.54383  0.56674  0.85014  1.0000
  H   H1582     1.0  0.50533  0.58247  0.84087  1.0000
  H   H1583     1.0  0.33864  0.53582  0.96317  1.0000
  C   C981      1.0  0.37244  0.97317  0.83949  1.0000
  H   H1584     1.0  0.47872  0.51621  0.82095  1.0000
  H   H1585     1.0  0.50660  0.51819  0.88132  1.0000
  C   C982      1.0  0.34486  0.95124  0.83290  1.0000
  C   C983      1.0  0.58307  0.98237  0.87610  1.0000
  S   S402      1.0  0.37729  0.50215  0.89420  1.0000
  H   H1586     1.0  0.36633  0.93689  0.84875  1.0000
  H   H1587     1.0  0.59619  0.93401  0.88079  1.0000
  S   S403      1.0  0.62104  0.50668  0.86948  1.0000
  C   C984      1.0  0.58317  0.52645  0.90181  1.0000
  C   C985      1.0  0.36165  0.95232  0.84111  1.0000
  Fe  Fe207     1.0  0.63990  0.51429  0.84800  1.0000
  H   H1588     1.0  0.53663  0.97610  0.88058  1.0000
  H   H1589     1.0  0.48769  0.53519  0.83071  1.0000
  H   H1590     1.0  0.51976  0.51715  0.84532  1.0000
  C   C986      1.0  0.34546  0.98282  0.87308  1.0000
  S   S404      1.0  0.64526  0.53455  0.89533  1.0000
  H   H1591     1.0  0.53906  0.55167  0.89802  1.0000
  S   S405      1.0  0.37989  0.50566  0.85579  1.0000
  H   H1592     1.0  0.35229  0.50404  0.80308  1.0000
  H   H1593     1.0  0.65635  0.59789  0.85726  1.0000
  H   H1594     1.0  0.34818  0.57241  0.92862  1.0000
  H   H1595     1.0  0.59316  0.53118  0.89142  1.0000
  H   H1596     1.0  0.52240  0.50359  0.81108  1.0000
  H   H1597     1.0  0.65339  0.53086  0.79856  1.0000
  C   C987      1.0  0.48495  0.51634  0.83061  1.0000
  H   H1598     1.0  0.54383  0.52988  0.92109  1.0000
  H   H1599     1.0  0.53075  0.52323  0.82067  1.0000
  C   C988      1.0  0.34168  0.50688  0.91640  1.0000
  H   H1600     1.0  0.35015  0.96705  0.86753  1.0000
  N   N100      1.0  0.57159  0.96518  0.88711  1.0000
  H   H1601     1.0  0.35816  0.55397  0.89246  1.0000
  H   H1602     1.0  0.56858  0.94150  0.87367  1.0000
  H   H1603     1.0  0.57020  0.51461  0.90106  1.0000
  C   C989      1.0  0.55748  0.54144  0.92122  1.0000
  H   H1604     1.0  0.33502  0.49190  0.77198  1.0000
  H   H1605     1.0  0.34633  0.97566  0.88397  1.0000
  H   H1606     1.0  0.38539  0.97375  0.84585  1.0000
  H   H1607     1.0  0.37346  0.58646  0.95663  1.0000
  H   H1608     1.0  0.36131  0.56324  0.96925  1.0000
  N   N101      1.0  0.35111  0.56655  0.94970  1.0000
  S   S406      1.0  0.63710  0.60209  0.83253  1.0000
  H   H1609     1.0  0.54767  0.55767  0.92577  1.0000
  H   H1610     1.0  0.57444  0.95024  0.90791  1.0000
  H   H1611     1.0  0.57568  0.98404  0.86658  1.0000
  H   H1612     1.0  0.54322  0.57955  0.90248  1.0000
  H   H1613     1.0  0.57978  0.58059  0.91220  1.0000
  H   H1614     1.0  0.46837  0.53354  0.87191  1.0000
  C   C990      1.0  0.58855  0.56375  0.90798  1.0000
  N   N102      1.0  0.50734  0.49849  0.83229  1.0000
  S   S407      1.0  0.65404  0.96852  0.87665  1.0000
  S   S408      1.0  0.34733  0.55857  0.83400  1.0000
  H   H1615     1.0  0.46974  0.51227  0.83894  1.0000
  H   H1616     1.0  0.64817  0.52300  0.77049  1.0000
  N   N103      1.0  0.57053  0.54858  0.90742  1.0000
  H   H1617     1.0  0.36607  0.59158  0.93293  1.0000
  H   H1618     1.0  0.53564  0.96112  0.89788  1.0000
  C   C991      1.0  0.34558  0.54157  0.95226  1.0000
  C   C992      1.0  0.55294  0.56258  0.89869  1.0000
  H   H1619     1.0  0.34307  0.53326  0.87689  1.0000
  C   C993      1.0  0.57627  0.94092  0.88299  1.0000
  S   S409      1.0  0.43216  0.50861  0.86390  1.0000
  C   C994      1.0  0.52705  0.50457  0.82103  1.0000
  H   H1620     1.0  0.54435  0.49175  0.82215  1.0000
  C   C995      1.0  0.36882  0.56786  0.95828  1.0000
  H   H1621     1.0  0.57031  0.53082  0.92802  1.0000
  H   H1622     1.0  0.60240  0.55361  0.91428  1.0000
  H   H1623     1.0  0.59876  0.56939  0.89771  1.0000
  C   C996      1.0  0.32933  0.58731  0.83531  1.0000
  H   H1624     1.0  0.37818  0.55999  0.93222  1.0000
  H   H1625     1.0  0.63020  0.50693  0.75167  1.0000
  H   H1626     1.0  0.56796  0.92738  0.89107  1.0000
  C   C997      1.0  0.32888  0.54708  0.87237  1.0000
  H   H1627     1.0  0.34266  0.50281  0.74485  1.0000
  C   C998      1.0  0.51466  0.49926  0.84529  1.0000
  S   S410      1.0  0.33082  0.92520  0.83590  1.0000
  H   H1628     1.0  0.35855  0.98158  0.95456  1.0000
  C   C999      1.0  0.32854  0.58381  0.95307  1.0000
  H   H1629     1.0  0.33199  0.60285  0.95131  1.0000
  C   C1000     1.0  0.65736  0.61769  0.83695  1.0000
  H   H1630     1.0  0.34839  0.51653  0.78592  1.0000
  H   H1631     1.0  0.32941  0.98718  0.96514  1.0000
  C   C1001     1.0  0.65916  0.51238  0.79570  1.0000
  H   H1632     1.0  0.65969  0.54806  0.77395  1.0000
  H   H1633     1.0  0.33859  0.99019  0.91672  1.0000
  H   H1634     1.0  0.85466  0.07849  0.03465  1.0000
  Fe  Fe208     1.0  0.74764  0.04237  0.20229  1.0000
  S   S411      1.0  0.70851  0.05725  0.20901  1.0000
  S   S412      1.0  0.76987  0.06189  0.18411  1.0000
  H   H1635     1.0  0.96924  0.31484  0.03601  1.0000
  H   H1636     1.0  0.87657  0.07002  0.04606  1.0000
  H   H1637     1.0  0.74940  0.45763  0.22009  1.0000
  S   S413      1.0  0.74086  0.00475  0.20205  1.0000
  Fe  Fe209     1.0  0.74211  0.16693  0.10736  1.0000
  S   S414      1.0  0.71500  0.19668  0.09829  1.0000
  S   S415      1.0  0.76679  0.14411  0.09277  1.0000
  Fe  Fe210     1.0  0.72037  0.17508  0.13604  1.0000
  S   S416      1.0  0.69142  0.20554  0.12911  1.0000
  S   S417      1.0  0.71771  0.16492  0.15876  1.0000
  Fe  Fe211     1.0  0.68755  0.18126  0.11494  1.0000
  Fe  Fe212     1.0  0.72154  0.21834  0.11318  1.0000
  S   S418      1.0  0.72699  0.25744  0.10467  1.0000
  S   S419      1.0  0.71409  0.14989  0.12312  1.0000
  S   S420      1.0  0.75107  0.18946  0.12101  1.0000
  Fe  Fe213     1.0  0.78549  0.38548  0.12374  1.0000
  S   S421      1.0  0.76233  0.37595  0.14396  1.0000
  S   S422      1.0  0.82219  0.36370  0.11769  1.0000
  Fe  Fe214     1.0  0.74530  0.42227  0.11250  1.0000
  S   S423      1.0  0.71895  0.41536  0.13173  1.0000
  H   H1638     1.0  0.73798  0.18542  0.22125  1.0000
  Fe  Fe215     1.0  0.74986  0.41654  0.14234  1.0000
  S   S424      1.0  0.73869  0.43765  0.16014  1.0000
  Fe  Fe216     1.0  0.73374  0.37565  0.13160  1.0000
  S   S425      1.0  0.70829  0.34758  0.13631  1.0000
  S   S426      1.0  0.77541  0.42603  0.12290  1.0000
  S   S427      1.0  0.75773  0.38261  0.11158  1.0000
  Fe  Fe217     1.0  0.87204  0.15584  0.01550  1.0000
  S   S428      1.0  0.89924  0.14025  0.02968  1.0000
  H   H1639     1.0  0.86709  0.11942  0.05599  1.0000
  Fe  Fe218     1.0  0.87805  0.20834  0.01647  1.0000
  S   S429      1.0  0.90480  0.19592  0.03082  1.0000
  S   S430      1.0  0.86458  0.24873  0.01095  1.0000
  Fe  Fe219     1.0  0.92152  0.16801  0.01749  1.0000
  S   S431      1.0  0.96207  0.16275  0.00960  1.0000
  Fe  Fe220     1.0  0.87988  0.16980  0.04156  1.0000
  S   S432      1.0  0.87121  0.16503  0.06441  1.0000
  S   S433      1.0  0.89587  0.18165  0.00229  1.0000
  S   S434      1.0  0.85169  0.18406  0.02822  1.0000
  Fe  Fe221     1.0  0.87751  0.40646  0.02348  1.0000
  S   S435      1.0  0.90159  0.42591  0.03102  1.0000
  C   C1002     1.0  0.67755  0.26118  0.08701  1.0000
  Fe  Fe222     1.0  0.90510  0.35649  0.03368  1.0000
  S   S436      1.0  0.92985  0.37234  0.04295  1.0000
  S   S437      1.0  0.91547  0.31564  0.03576  1.0000
  Fe  Fe223     1.0  0.89692  0.39846  0.04981  1.0000
  S   S438      1.0  0.88919  0.41606  0.06843  1.0000
  Fe  Fe224     1.0  0.93290  0.39836  0.02352  1.0000
  S   S439      1.0  0.97003  0.40790  0.01371  1.0000
  S   S440      1.0  0.87155  0.37986  0.04284  1.0000
  S   S441      1.0  0.90949  0.38146  0.01369  1.0000
  C   C1003     1.0  0.69741  0.47379  0.08226  1.0000
  H   H1640     1.0  0.68372  0.06759  0.11595  1.0000
  C   C1004     1.0  0.96435  0.45583  0.06561  1.0000
  H   H1641     1.0  0.76400  0.15599  0.00640  1.0000
  S   S442      1.0  0.71691  0.08132  0.99539  1.0000
  C   C1005     1.0  0.87981  0.26842  0.01643  1.0000
  C   C1006     1.0  0.86854  0.29246  0.01754  1.0000
  C   C1007     1.0  0.87969  0.30764  0.02296  1.0000
  C   C1008     1.0  0.90201  0.29865  0.02744  1.0000
  C   C1009     1.0  0.91347  0.27488  0.02600  1.0000
  C   C1010     1.0  0.90261  0.26000  0.02034  1.0000
  H   H1642     1.0  0.87074  0.32600  0.02400  1.0000
  H   H1643     1.0  0.93090  0.26791  0.02925  1.0000
  H   H1644     1.0  0.91210  0.24209  0.01885  1.0000
  H   H1645     1.0  0.70360  0.38331  0.11268  1.0000
  H   H1646     1.0  0.75158  0.48783  0.19130  1.0000
  H   H1647     1.0  0.96655  0.13783  0.03700  1.0000
  C   C1011     1.0  0.84026  0.37850  0.10386  1.0000
  C   C1012     1.0  0.84058  0.40340  0.10254  1.0000
  C   C1013     1.0  0.85595  0.41477  0.09171  1.0000
  C   C1014     1.0  0.87042  0.40142  0.08198  1.0000
  C   C1015     1.0  0.86954  0.37672  0.08304  1.0000
  C   C1016     1.0  0.85479  0.36516  0.09413  1.0000
  H   H1648     1.0  0.82957  0.41367  0.11011  1.0000
  H   H1649     1.0  0.85658  0.43392  0.09089  1.0000
  H   H1650     1.0  0.88068  0.36635  0.07554  1.0000
  H   H1651     1.0  0.85455  0.34589  0.09516  1.0000
  C   C1017     1.0  0.79420  0.15437  0.08504  1.0000
  C   C1018     1.0  0.81163  0.15542  0.09277  1.0000
  C   C1019     1.0  0.83505  0.15953  0.08633  1.0000
  C   C1020     1.0  0.84099  0.16291  0.07217  1.0000
  C   C1021     1.0  0.82314  0.16314  0.06446  1.0000
  C   C1022     1.0  0.79990  0.15857  0.07089  1.0000
  H   H1652     1.0  0.80741  0.15193  0.10372  1.0000
  H   H1653     1.0  0.84877  0.15935  0.09237  1.0000
  H   H1654     1.0  0.82738  0.16599  0.05358  1.0000
  H   H1655     1.0  0.78639  0.15790  0.06489  1.0000
  C   C1023     1.0  0.72288  0.28143  0.11416  1.0000
  C   C1024     1.0  0.73315  0.30234  0.10822  1.0000
  C   C1025     1.0  0.72947  0.32234  0.11509  1.0000
  C   C1026     1.0  0.71493  0.32191  0.12787  1.0000
  C   C1027     1.0  0.70433  0.30114  0.13376  1.0000
  C   C1028     1.0  0.70855  0.28083  0.12703  1.0000
  H   H1656     1.0  0.74423  0.30300  0.09827  1.0000
  H   H1657     1.0  0.73768  0.33817  0.11040  1.0000
  H   H1658     1.0  0.69304  0.30065  0.14364  1.0000
  C   C1029     1.0  0.84204  0.12252  0.99740  1.0000
  N   N104      1.0  0.74574  0.15863  0.20798  1.0000
  H   H1659     1.0  0.70054  0.26487  0.13175  1.0000
  C   C1030     1.0  0.75712  0.45263  0.16681  1.0000
  C   C1031     1.0  0.78198  0.45185  0.16188  1.0000
  C   C1032     1.0  0.71364  0.04921  0.17222  1.0000
  C   C1033     1.0  0.85249  0.44239  0.99114  1.0000
  H   H1660     1.0  0.79051  0.44179  0.15371  1.0000
  H   H1661     1.0  0.68680  0.09963  0.15321  1.0000
  C   C1034     1.0  0.75578  0.09076  0.17708  1.0000
  C   C1035     1.0  0.73637  0.10393  0.18476  1.0000
  C   C1036     1.0  0.72476  0.12657  0.17894  1.0000
  C   C1037     1.0  0.73250  0.13624  0.16542  1.0000
  C   C1038     1.0  0.75191  0.12314  0.15767  1.0000
  C   C1039     1.0  0.76363  0.10046  0.16354  1.0000
  H   H1662     1.0  0.73061  0.09693  0.19527  1.0000
  H   H1663     1.0  0.70961  0.13662  0.18488  1.0000
  H   H1664     1.0  0.75806  0.13060  0.14724  1.0000
  H   H1665     1.0  0.77872  0.09037  0.15756  1.0000
  H   H1666     1.0  0.81727  0.08333  0.06874  1.0000
  H   H1667     1.0  0.70088  0.45899  0.11581  1.0000
  C   C1040     1.0  0.67977  0.07951  0.17944  1.0000
  H   H1668     1.0  0.68968  0.09648  0.10633  1.0000
  C   C1041     1.0  0.66080  0.07040  0.02584  1.0000
  H   H1669     1.0  0.93982  0.41779  0.07268  1.0000
  H   H1670     1.0  0.78822  0.48069  0.98878  1.0000
  H   H1671     1.0  0.66443  0.22235  0.10449  1.0000
  H   H1672     1.0  0.71201  0.07700  0.14778  1.0000
  C   C1042     1.0  0.66897  0.47795  0.10761  1.0000
  C   C1043     1.0  0.68539  0.04764  0.00375  1.0000
  C   C1044     1.0  0.69265  0.06846  0.00600  1.0000
  H   H1673     1.0  0.66894  0.04084  0.17191  1.0000
  C   C1045     1.0  0.72351  0.14817  0.21419  1.0000
  H   H1674     1.0  0.84362  0.06066  0.06534  1.0000
  H   H1675     1.0  0.82170  0.06902  0.05399  1.0000
  H   H1676     1.0  0.83718  0.13092  0.04083  1.0000
  N   N105      1.0  0.95189  0.44609  0.05693  1.0000
  H   H1677     1.0  0.79832  0.45850  0.01095  1.0000
  H   H1678     1.0  0.72445  0.04007  0.16372  1.0000
  C   C1046     1.0  0.66509  0.16289  0.08733  1.0000
  H   H1679     1.0  0.66776  0.28510  0.10813  1.0000
  N   N106      1.0  0.69286  0.06723  0.16794  1.0000
  C   C1047     1.0  0.69319  0.46608  0.10669  1.0000
  H   H1680     1.0  0.94183  0.41210  0.05584  1.0000
  H   H1681     1.0  0.68380  0.27914  0.08474  1.0000
  H   H1682     1.0  0.72713  0.46629  0.18138  1.0000
  C   C1048     1.0  0.75905  0.11500  0.99856  1.0000
  H   H1683     1.0  0.73323  0.15041  0.01195  1.0000
  H   H1684     1.0  0.67293  0.39574  0.13220  1.0000
  H   H1685     1.0  0.66796  0.36291  0.12091  1.0000
  N   N107      1.0  0.78599  0.43873  0.22095  1.0000
  H   H1686     1.0  0.68548  0.04487  0.15497  1.0000
  N   N108      1.0  0.86070  0.24066  0.06021  1.0000
  C   C1049     1.0  0.84873  0.23194  0.07406  1.0000
  C   C1050     1.0  0.88697  0.23060  0.05867  1.0000
  C   C1051     1.0  0.85747  0.26753  0.05783  1.0000
  C   C1052     1.0  0.84967  0.23256  0.05025  1.0000
  H   H1687     1.0  0.85112  0.21168  0.07616  1.0000
  H   H1688     1.0  0.82881  0.23888  0.07552  1.0000
  H   H1689     1.0  0.85643  0.23787  0.08186  1.0000
  H   H1690     1.0  0.89014  0.21034  0.06032  1.0000
  H   H1691     1.0  0.89654  0.23680  0.04832  1.0000
  H   H1692     1.0  0.89590  0.23634  0.06602  1.0000
  H   H1693     1.0  0.83788  0.27582  0.05895  1.0000
  H   H1694     1.0  0.86613  0.27456  0.04740  1.0000
  H   H1695     1.0  0.86590  0.27436  0.06501  1.0000
  H   H1696     1.0  0.85866  0.23829  0.03972  1.0000
  H   H1697     1.0  0.82998  0.24025  0.05087  1.0000
  H   H1698     1.0  0.85140  0.21242  0.05187  1.0000
  N   N109      1.0  0.80265  0.42272  0.06438  1.0000
  C   C1053     1.0  0.80069  0.40609  0.05530  1.0000
  C   C1054     1.0  0.82688  0.43019  0.06063  1.0000
  C   C1055     1.0  0.79951  0.41015  0.07859  1.0000
  C   C1056     1.0  0.78357  0.44445  0.06297  1.0000
  H   H1699     1.0  0.78256  0.40022  0.05771  1.0000
  H   H1700     1.0  0.81477  0.38943  0.05620  1.0000
  H   H1701     1.0  0.80339  0.41493  0.04447  1.0000
  H   H1702     1.0  0.82933  0.44245  0.06737  1.0000
  H   H1703     1.0  0.84160  0.41415  0.06146  1.0000
  H   H1704     1.0  0.82989  0.43974  0.04996  1.0000
  H   H1705     1.0  0.80100  0.42216  0.08572  1.0000
  H   H1706     1.0  0.81355  0.39359  0.08008  1.0000
  H   H1707     1.0  0.78131  0.40447  0.08180  1.0000
  H   H1708     1.0  0.78421  0.45714  0.06991  1.0000
  H   H1709     1.0  0.76504  0.43942  0.06559  1.0000
  H   H1710     1.0  0.78554  0.45460  0.05243  1.0000
  H   H1711     1.0  0.84368  0.11213  0.06993  1.0000
  C   C1057     1.0  0.82155  0.09839  0.98714  1.0000
  S   S443      1.0  0.67040  0.01617  0.20012  1.0000
  C   C1058     1.0  0.83125  0.07621  0.06050  1.0000
  N   N110      1.0  0.84483  0.09539  0.05255  1.0000
  C   C1059     1.0  0.81025  0.44478  0.22065  1.0000
  C   C1060     1.0  0.82774  0.11556  0.04631  1.0000
  H   H1712     1.0  0.98325  0.44575  0.06584  1.0000
  H   H1713     1.0  0.81931  0.10971  0.03877  1.0000
  H   H1714     1.0  0.67278  0.08741  0.07472  1.0000
  H   H1715     1.0  0.70828  0.47192  0.07243  1.0000
  H   H1716     1.0  0.73560  0.16815  0.18810  1.0000
  C   C1061     1.0  0.86325  0.08526  0.04179  1.0000
  H   H1717     1.0  0.81281  0.12279  0.05404  1.0000
  H   H1718     1.0  0.76924  0.12464  0.21284  1.0000
  H   H1719     1.0  0.85100  0.29923  0.01440  1.0000
  H   H1720     1.0  0.95451  0.45424  0.07624  1.0000
  H   H1721     1.0  0.87040  0.09001  0.06634  1.0000
  C   C1062     1.0  0.85703  0.10458  0.06160  1.0000
  C   C1063     1.0  0.95070  0.42018  0.06230  1.0000
  C   C1064     1.0  0.67612  0.05464  0.16351  1.0000
  H   H1722     1.0  0.82575  0.09158  0.00817  1.0000
  H   H1723     1.0  0.77291  0.47413  0.21067  1.0000
  H   H1724     1.0  0.87368  0.09935  0.03557  1.0000
  H   H1725     1.0  0.82442  0.42819  0.22120  1.0000
  C   C1065     1.0  0.76573  0.13903  0.20403  1.0000
  H   H1726     1.0  0.81195  0.08334  0.98817  1.0000
  H   H1727     1.0  0.78300  0.14616  0.19973  1.0000
  C   C1066     1.0  0.68024  0.07980  0.01704  1.0000
  C   C1067     1.0  0.66184  0.26700  0.11015  1.0000
  S   S444      1.0  0.85090  0.12763  0.01222  1.0000
  C   C1068     1.0  0.83504  0.44358  0.00287  1.0000
  H   H1728     1.0  0.77626  0.11371  0.00247  1.0000
  H   H1729     1.0  0.70966  0.06903  0.10261  1.0000
  S   S445      1.0  0.84104  0.42789  0.01891  1.0000
  H   H1730     1.0  0.68570  0.09594  0.01882  1.0000
  H   H1731     1.0  0.69535  0.03978  0.09189  1.0000
  H   H1732     1.0  0.75661  0.15764  0.22719  1.0000
  N   N111      1.0  0.66660  0.40040  0.11167  1.0000
  H   H1733     1.0  0.71812  0.13817  0.20721  1.0000
  C   C1069     1.0  0.99074  0.39119  0.03687  1.0000
  H   H1734     1.0  0.69323  0.24746  0.09003  1.0000
  C   C1070     1.0  0.67319  0.48603  0.08316  1.0000
  H   H1735     1.0  0.68155  0.16995  0.08704  1.0000
  H   H1736     1.0  0.71267  0.13473  0.99681  1.0000
  H   H1737     1.0  0.72621  0.05788  0.17605  1.0000
  C   C1071     1.0  0.98164  0.14764  0.03320  1.0000
  C   C1072     1.0  0.81192  0.45754  0.00192  1.0000
  C   C1073     1.0  0.68441  0.08758  0.08229  1.0000
  C   C1074     1.0  0.96556  0.44845  0.04294  1.0000
  C   C1075     1.0  0.74098  0.17662  0.19581  1.0000
  C   C1076     1.0  0.82942  0.10311  0.99848  1.0000
  Fe  Fe225     1.0  0.71738  0.04548  0.23000  1.0000
  H   H1738     1.0  0.76938  0.17896  0.21361  1.0000
  H   H1739     1.0  0.97381  0.38531  0.04158  1.0000
  C   C1077     1.0  0.79589  0.46390  0.16762  1.0000
  H   H1740     1.0  0.69485  0.03880  0.99526  1.0000
  C   C1078     1.0  0.69281  0.39723  0.10595  1.0000
  H   H1741     1.0  0.67277  0.06625  0.18819  1.0000
  H   H1742     1.0  0.98795  0.33829  0.00707  1.0000
  H   H1743     1.0  0.74805  0.08290  0.23235  1.0000
  C   C1079     1.0  0.67641  0.04871  0.09517  1.0000
  Fe  Fe226     1.0  0.70205  0.01909  0.21002  1.0000
  C   C1080     1.0  0.92694  0.45985  0.05688  1.0000
  S   S446      1.0  0.73667  0.44586  0.09288  1.0000
  H   H1744     1.0  0.92699  0.47954  0.05305  1.0000
  C   C1081     1.0  0.76018  0.47794  0.18311  1.0000
  H   H1745     1.0  0.69644  0.39134  0.09587  1.0000
  N   N112      1.0  0.67519  0.07472  0.09581  1.0000
  H   H1746     1.0  0.81592  0.45724  0.21115  1.0000
  S   S447      1.0  0.75718  0.03340  0.22327  1.0000
  H   H1747     1.0  0.91591  0.45801  0.06724  1.0000
  H   H1748     1.0  0.96911  0.40929  0.06283  1.0000
  C   C1082     1.0  0.70730  0.46343  0.09405  1.0000
  H   H1749     1.0  0.81516  0.46299  0.16380  1.0000
  C   C1083     1.0  0.74655  0.15626  0.00290  1.0000
  H   H1750     1.0  0.97783  0.35338  0.02153  1.0000
  H   H1751     1.0  0.76146  0.13007  0.19621  1.0000
  C   C1084     1.0  0.74634  0.46568  0.17748  1.0000
  H   H1752     1.0  0.73966  0.17546  0.99878  1.0000
  C   C1085     1.0  0.70191  0.08553  0.15664  1.0000
  H   H1753     1.0  0.76859  0.42236  0.20890  1.0000
  H   H1754     1.0  0.76266  0.10257  0.99093  1.0000
  H   H1755     1.0  0.91715  0.45293  0.05036  1.0000
  C   C1086     1.0  0.69025  0.07701  0.10563  1.0000
  H   H1756     1.0  0.95714  0.44048  0.03620  1.0000
  H   H1757     1.0  0.68460  0.10701  0.08257  1.0000
  H   H1758     1.0  0.70788  0.16253  0.21696  1.0000
  H   H1759     1.0  0.72602  0.19173  0.19836  1.0000
  H   H1760     1.0  0.75741  0.18481  0.19083  1.0000
  C   C1087     1.0  0.76792  0.46133  0.22007  1.0000
  C   C1088     1.0  0.78678  0.42646  0.20931  1.0000
  C   C1089     1.0  0.75274  0.17071  0.21790  1.0000
  H   H1761     1.0  0.70011  0.41445  0.10466  1.0000
  H   H1762     1.0  0.70753  0.03478  0.18051  1.0000
  C   C1090     1.0  0.78508  0.47705  0.17822  1.0000
  C   C1091     1.0  0.72652  0.14121  0.98820  1.0000
  H   H1763     1.0  0.74554  0.10775  0.00710  1.0000
  H   H1764     1.0  0.71463  0.09519  0.15974  1.0000
  H   H1765     1.0  0.87033  0.43163  0.99177  1.0000
  Fe  Fe227     1.0  0.74638  0.99723  0.22385  1.0000
  H   H1766     1.0  0.79982  0.40903  0.20978  1.0000
  C   C1092     1.0  0.80616  0.47012  0.98937  1.0000
  H   H1767     1.0  0.66892  0.42676  0.12371  1.0000
  H   H1768     1.0  0.70327  0.07925  0.07838  1.0000
  H   H1769     1.0  0.69187  0.08916  0.18306  1.0000
  H   H1770     1.0  0.79264  0.43805  0.19952  1.0000
  N   N113      1.0  0.75000  0.14025  0.99262  1.0000
  H   H1771     1.0  0.80112  0.99199  0.22708  1.0000
  H   H1772     1.0  0.66513  0.04637  0.08791  1.0000
  C   C1093     1.0  0.98292  0.16226  0.02043  1.0000
  H   H1773     1.0  0.66931  0.03851  0.10517  1.0000
  C   C1094     1.0  0.98547  0.30523  0.02990  1.0000
  H   H1774     1.0  0.67576  0.15361  0.06723  1.0000
  H   H1775     1.0  0.67705  0.25359  0.11395  1.0000
  C   C1095     1.0  0.66579  0.03825  0.01257  1.0000
  C   C1096     1.0  0.66272  0.40897  0.12484  1.0000
  S   S448      1.0  0.70684  0.00877  0.23185  1.0000
  H   H1776     1.0  0.72619  0.13511  0.22364  1.0000
  H   H1777     1.0  0.81033  0.45404  0.22930  1.0000
  H   H1778     1.0  0.99256  0.28832  0.03648  1.0000
  H   H1779     1.0  0.76668  0.47095  0.22875  1.0000
  C   C1097     1.0  0.77900  0.42250  0.23376  1.0000
  H   H1780     1.0  0.98473  0.43892  0.04263  1.0000
  H   H1781     1.0  0.67379  0.25701  0.07749  1.0000
  H   H1782     1.0  0.96619  0.46780  0.03840  1.0000
  H   H1783     1.0  0.97881  0.29973  0.02156  1.0000
  H   H1784     1.0  0.96561  0.47536  0.06187  1.0000
  H   H1785     1.0  0.66396  0.09323  0.17659  1.0000
  C   C1098     1.0  0.84684  0.13715  0.98479  1.0000
  H   H1786     1.0  0.66103  0.36960  0.10403  1.0000
  C   C1099     1.0  0.66176  0.15365  0.07612  1.0000
  H   H1787     1.0  0.76083  0.41750  0.23428  1.0000
  H   H1788     1.0  0.75090  0.31114  0.32057  1.0000
  H   H1789     1.0  0.69741  0.41102  0.44105  1.0000
  H   H1790     1.0  0.73744  0.14183  0.36635  1.0000
  S   S449      1.0  0.90835  0.46489  0.37170  1.0000
  H   H1791     1.0  0.68884  0.30065  0.31975  1.0000
  S   S450      1.0  0.88568  0.46262  0.33832  1.0000
  C   C1100     1.0  0.81896  0.48760  0.30093  1.0000
  C   C1101     1.0  0.71758  0.14864  0.36869  1.0000
  Fe  Fe228     1.0  0.79765  0.03207  0.46064  1.0000
  S   S451      1.0  0.78430  0.06791  0.46790  1.0000
  S   S452      1.0  0.83564  0.02872  0.44835  1.0000
  S   S453      1.0  0.69528  0.33089  0.41122  1.0000
  Fe  Fe229     1.0  0.74901  0.06690  0.46141  1.0000
  S   S454      1.0  0.73509  0.10364  0.44952  1.0000
  C   C1102     1.0  0.76212  0.36467  0.37123  1.0000
  S   S455      1.0  0.76342  0.03232  0.45279  1.0000
  S   S456      1.0  0.93677  0.03087  0.34544  1.0000
  H   H1792     1.0  0.88553  0.00897  0.26996  1.0000
  S   S457      1.0  0.90897  0.03475  0.37658  1.0000
  H   H1793     1.0  0.67403  0.15102  0.38376  1.0000
  Fe  Fe230     1.0  0.90114  0.04976  0.35554  1.0000
  S   S458      1.0  0.88373  0.08904  0.35119  1.0000
  Fe  Fe231     1.0  0.94249  0.01276  0.36640  1.0000
  C   C1103     1.0  0.82902  0.00170  0.42994  1.0000
  S   S459      1.0  0.87983  0.02111  0.35447  1.0000
  H   H1794     1.0  0.93850  0.45880  0.34537  1.0000
  N   N114      1.0  0.72175  0.29057  0.32837  1.0000
  S   S460      1.0  0.70368  0.06632  0.24748  1.0000
  Fe  Fe232     1.0  0.79740  0.13913  0.29793  1.0000
  S   S461      1.0  0.76426  0.12527  0.29579  1.0000
  S   S462      1.0  0.83266  0.11303  0.29934  1.0000
  Fe  Fe233     1.0  0.77480  0.19238  0.29061  1.0000
  S   S463      1.0  0.74001  0.18279  0.28742  1.0000
  S   S464      1.0  0.78168  0.23129  0.28467  1.0000
  Fe  Fe234     1.0  0.74371  0.15608  0.30660  1.0000
  S   S465      1.0  0.71124  0.15069  0.32290  1.0000
  Fe  Fe235     1.0  0.76341  0.15289  0.27687  1.0000
  S   S466      1.0  0.76307  0.14400  0.25613  1.0000
  S   S467      1.0  0.77704  0.16751  0.31053  1.0000
  S   S468      1.0  0.79789  0.16495  0.27835  1.0000
  Fe  Fe236     1.0  0.74773  0.37425  0.32105  1.0000
  S   S469      1.0  0.77242  0.35349  0.33530  1.0000
  S   S470      1.0  0.70874  0.37015  0.32895  1.0000
  Fe  Fe237     1.0  0.78967  0.39000  0.30004  1.0000
  S   S471      1.0  0.81777  0.36953  0.31286  1.0000
  S   S472      1.0  0.80466  0.41224  0.28030  1.0000
  Fe  Fe238     1.0  0.79531  0.33943  0.31706  1.0000
  S   S473      1.0  0.80730  0.29853  0.32106  1.0000
  Fe  Fe239     1.0  0.79217  0.38537  0.32987  1.0000
  S   S474      1.0  0.79952  0.40197  0.34689  1.0000
  S   S475      1.0  0.76937  0.35853  0.30292  1.0000
  S   S476      1.0  0.76544  0.40753  0.31690  1.0000
  C   C1104     1.0  0.77506  0.47073  0.41112  1.0000
  C   C1105     1.0  0.69592  0.38802  0.34165  1.0000
  C   C1106     1.0  0.70471  0.40925  0.34182  1.0000
  H   H1795     1.0  0.78403  0.47829  0.32282  1.0000
  H   H1796     1.0  0.69678  0.09849  0.36510  1.0000
  C   C1107     1.0  0.71577  0.43083  0.45089  1.0000
  H   H1797     1.0  0.67007  0.14863  0.36711  1.0000
  H   H1798     1.0  0.71887  0.41519  0.33387  1.0000
  H   H1799     1.0  0.84036  0.44145  0.30616  1.0000
  H   H1800     1.0  0.75878  0.37183  0.39687  1.0000
  C   C1108     1.0  0.78716  0.43742  0.27163  1.0000
  C   C1109     1.0  0.79927  0.45298  0.26125  1.0000
  H   H1801     1.0  0.91025  0.99142  0.39700  1.0000
  Fe  Fe240     1.0  0.91600  0.00072  0.34608  1.0000
  H   H1802     1.0  0.72121  0.00909  0.26249  1.0000
  C   C1110     1.0  0.76179  0.44250  0.27490  1.0000
  H   H1803     1.0  0.81892  0.44934  0.25878  1.0000
  H   H1804     1.0  0.71900  0.22150  0.34169  1.0000
  S   S477      1.0  0.97826  0.99985  0.37415  1.0000
  H   H1805     1.0  0.75226  0.43065  0.28291  1.0000
  C   C1111     1.0  0.70060  0.17449  0.33240  1.0000
  C   C1112     1.0  0.71506  0.19177  0.33241  1.0000
  C   C1113     1.0  0.70737  0.20876  0.34137  1.0000
  H   H1806     1.0  0.76041  0.37151  0.36042  1.0000
  C   C1114     1.0  0.74099  0.00142  0.26105  1.0000
  H   H1807     1.0  0.66364  0.14169  0.44819  1.0000
  H   H1808     1.0  0.73245  0.19161  0.32582  1.0000
  H   H1809     1.0  0.66948  0.20777  0.44232  1.0000
  H   H1810     1.0  0.79498  0.47005  0.40743  1.0000
  C   C1115     1.0  0.78782  0.24958  0.29532  1.0000
  C   C1116     1.0  0.78775  0.27444  0.29042  1.0000
  C   C1117     1.0  0.79321  0.28968  0.29834  1.0000
  C   C1118     1.0  0.79936  0.28004  0.31112  1.0000
  C   C1119     1.0  0.79943  0.25515  0.31607  1.0000
  C   C1120     1.0  0.79335  0.23999  0.30828  1.0000
  H   H1811     1.0  0.78355  0.28196  0.28039  1.0000
  H   H1812     1.0  0.79331  0.30876  0.29437  1.0000
  H   H1813     1.0  0.80409  0.24763  0.32600  1.0000
  H   H1814     1.0  0.79309  0.22096  0.31225  1.0000
  C   C1121     1.0  0.72074  0.08739  0.24999  1.0000
  C   C1122     1.0  0.71326  0.09914  0.26138  1.0000
  C   C1123     1.0  0.72664  0.11585  0.26371  1.0000
  C   C1124     1.0  0.74747  0.12102  0.25458  1.0000
  C   C1125     1.0  0.75526  0.10883  0.24337  1.0000
  C   C1126     1.0  0.87712  0.99606  0.27839  1.0000
  H   H1815     1.0  0.69692  0.09550  0.26838  1.0000
  H   H1816     1.0  0.72047  0.12523  0.27236  1.0000
  C   C1127     1.0  0.76079  0.47823  0.25709  1.0000
  H   H1817     1.0  0.84494  0.47522  0.43178  1.0000
  C   C1128     1.0  0.86870  0.09520  0.33711  1.0000
  C   C1129     1.0  0.87563  0.08048  0.32705  1.0000
  C   C1130     1.0  0.86421  0.08608  0.31558  1.0000
  C   C1131     1.0  0.84533  0.10597  0.31429  1.0000
  C   C1132     1.0  0.83791  0.12037  0.32452  1.0000
  C   C1133     1.0  0.84989  0.11521  0.33582  1.0000
  H   H1818     1.0  0.89017  0.06508  0.32799  1.0000
  H   H1819     1.0  0.87005  0.07497  0.30766  1.0000
  H   H1820     1.0  0.82317  0.13555  0.32370  1.0000
  H   H1821     1.0  0.84444  0.12652  0.34365  1.0000
  C   C1134     1.0  0.71358  0.11044  0.43841  1.0000
  C   C1135     1.0  0.71065  0.13369  0.43055  1.0000
  S   S478      1.0  0.66503  0.43314  0.37552  1.0000
  H   H1822     1.0  0.69529  0.32340  0.32795  1.0000
  H   H1823     1.0  0.75541  0.28927  0.33542  1.0000
  C   C1136     1.0  0.69918  0.09380  0.43736  1.0000
  H   H1824     1.0  0.72199  0.14653  0.43118  1.0000
  C   C1137     1.0  0.74197  0.09205  0.24107  1.0000
  H   H1825     1.0  0.70135  0.07578  0.44333  1.0000
  S   S479      1.0  0.73975  0.45564  0.46316  1.0000
  H   H1826     1.0  0.82975  0.44574  0.29024  1.0000
  H   H1827     1.0  0.70150  0.29300  0.34838  1.0000
  H   H1828     1.0  0.94244  0.44918  0.32935  1.0000
  H   H1829     1.0  0.88170  0.02310  0.30460  1.0000
  H   H1830     1.0  0.73578  0.46608  0.43003  1.0000
  C   C1138     1.0  0.86212  0.44513  0.34120  1.0000
  C   C1139     1.0  0.86152  0.43052  0.33167  1.0000
  C   C1140     1.0  0.84271  0.41678  0.33344  1.0000
  C   C1141     1.0  0.82425  0.41774  0.34472  1.0000
  C   C1142     1.0  0.82503  0.43210  0.35434  1.0000
  C   C1143     1.0  0.84390  0.44575  0.35261  1.0000
  H   H1831     1.0  0.87567  0.42980  0.32287  1.0000
  H   H1832     1.0  0.84247  0.40547  0.32608  1.0000
  H   H1833     1.0  0.81085  0.43287  0.36312  1.0000
  H   H1834     1.0  0.84422  0.45690  0.36003  1.0000
  H   H1835     1.0  0.75621  0.04418  0.25662  1.0000
  H   H1836     1.0  0.93193  0.39381  0.35447  1.0000
  C   C1144     1.0  0.82380  0.44432  0.30141  1.0000
  S   S480      1.0  0.78641  0.01051  0.48109  1.0000
  C   C1145     1.0  0.69276  0.46857  0.45737  1.0000
  H   H1837     1.0  0.80005  0.46938  0.43074  1.0000
  H   H1838     1.0  0.87072  0.03935  0.42486  1.0000
  C   C1146     1.0  0.68432  0.28753  0.40803  1.0000
  H   H1839     1.0  0.73107  0.10508  0.38350  1.0000
  H   H1840     1.0  0.78978  0.44591  0.32340  1.0000
  H   H1841     1.0  0.81321  0.46117  0.32548  1.0000
  H   H1842     1.0  0.72672  0.37124  0.40167  1.0000
  C   C1147     1.0  0.73222  0.27164  0.31978  1.0000
  H   H1843     1.0  0.74605  0.25759  0.32449  1.0000
  S   S481      1.0  0.86642  0.48128  0.40393  1.0000
  H   H1844     1.0  0.77168  0.11240  0.23648  1.0000
  C   C1148     1.0  0.70374  0.30897  0.32165  1.0000
  H   H1845     1.0  0.73027  0.04476  0.26986  1.0000
  S   S482      1.0  0.67715  0.22796  0.36251  1.0000
  H   H1846     1.0  0.96787  0.40042  0.36315  1.0000
  C   C1149     1.0  0.95081  0.44689  0.33860  1.0000
  N   N115      1.0  0.70347  0.12843  0.37314  1.0000
  H   H1847     1.0  0.75031  0.40829  0.37963  1.0000
  H   H1848     1.0  0.91741  0.42433  0.35629  1.0000
  C   C1150     1.0  0.97044  0.40597  0.33608  1.0000
  H   H1849     1.0  0.96834  0.45401  0.33574  1.0000
  C   C1151     1.0  0.71146  0.11307  0.38544  1.0000
  H   H1850     1.0  0.71800  0.40808  0.38383  1.0000
  H   H1851     1.0  0.88486  0.03557  0.28689  1.0000
  C   C1152     1.0  0.86624  0.01870  0.41014  1.0000
  C   C1153     1.0  0.84200  0.01817  0.43270  1.0000
  H   H1852     1.0  0.74668  0.34482  0.39689  1.0000
  Fe  Fe241     1.0  0.89076  0.48419  0.35388  1.0000
  H   H1853     1.0  0.79218  0.05602  0.40370  1.0000
  C   C1154     1.0  0.70742  0.11371  0.36218  1.0000
  H   H1854     1.0  0.83488  0.48534  0.30621  1.0000
  C   C1155     1.0  0.78001  0.47138  0.43398  1.0000
  H   H1855     1.0  0.71221  0.16036  0.35934  1.0000
  H   H1856     1.0  0.92049  0.00295  0.28195  1.0000
  H   H1857     1.0  0.98089  0.04653  0.35656  1.0000
  C   C1156     1.0  0.93024  0.41305  0.34929  1.0000
  H   H1858     1.0  0.70126  0.43993  0.35201  1.0000
  H   H1859     1.0  0.72137  0.34403  0.38025  1.0000
  C   C1157     1.0  0.73516  0.40052  0.37757  1.0000
  N   N116      1.0  0.76689  0.48398  0.42276  1.0000
  C   C1158     1.0  0.70967  0.27924  0.34164  1.0000
  C   C1159     1.0  0.74866  0.46280  0.26759  1.0000
  H   H1860     1.0  0.81539  0.42758  0.30479  1.0000
  C   C1160     1.0  0.83521  0.99320  0.41742  1.0000
  C   C1161     1.0  0.74135  0.30249  0.33039  1.0000
  C   C1162     1.0  0.78619  0.47340  0.25413  1.0000
  H   H1861     1.0  0.73231  0.41756  0.45047  1.0000
  H   H1862     1.0  0.82012  0.04923  0.41025  1.0000
  C   C1163     1.0  0.67283  0.46458  0.45225  1.0000
  C   C1164     1.0  0.67023  0.19211  0.34975  1.0000
  S   S483      1.0  0.68168  0.40225  0.40935  1.0000
  H   H1863     1.0  0.72696  0.10583  0.35955  1.0000
  H   H1864     1.0  0.76596  0.34445  0.37262  1.0000
  H   H1865     1.0  0.69083  0.15864  0.41618  1.0000
  H   H1866     1.0  0.70855  0.12379  0.39386  1.0000
  H   H1867     1.0  0.74840  0.00685  0.25020  1.0000
  C   C1165     1.0  0.67793  0.12435  0.42134  1.0000
  H   H1868     1.0  0.98296  0.42587  0.35514  1.0000
  C   C1166     1.0  0.78557  0.46989  0.29783  1.0000
  C   C1167     1.0  0.71421  0.45154  0.45686  1.0000
  C   C1168     1.0  0.74324  0.36507  0.39454  1.0000
  H   H1869     1.0  0.77834  0.37111  0.37299  1.0000
  H   H1870     1.0  0.92133  0.41458  0.34029  1.0000
  H   H1871     1.0  0.72900  0.46645  0.27001  1.0000
  H   H1872     1.0  0.71799  0.26211  0.31809  1.0000
  C   C1169     1.0  0.86071  0.02650  0.42280  1.0000
  H   H1873     1.0  0.79259  0.04260  0.42115  1.0000
  H   H1874     1.0  0.76545  0.47965  0.40248  1.0000
  C   C1170     1.0  0.79800  0.46275  0.31980  1.0000
  N   N117      1.0  0.73986  0.37363  0.38029  1.0000
  H   H1875     1.0  0.71664  0.36947  0.36693  1.0000
  H   H1876     1.0  0.66220  0.19141  0.46708  1.0000
  H   H1877     1.0  0.70168  0.37147  0.38401  1.0000
  C   C1171     1.0  0.67633  0.41576  0.36247  1.0000
  C   C1172     1.0  0.69605  0.42712  0.44550  1.0000
  Fe  Fe242     1.0  0.88964  0.00493  0.37504  1.0000
  H   H1878     1.0  0.69479  0.26999  0.34050  1.0000
  C   C1173     1.0  0.69295  0.14062  0.42205  1.0000
  C   C1174     1.0  0.68142  0.10076  0.42882  1.0000
  H   H1879     1.0  0.73327  0.40741  0.36678  1.0000
  C   C1175     1.0  0.67796  0.17505  0.34087  1.0000
  C   C1176     1.0  0.71900  0.36423  0.37774  1.0000
  C   C1177     1.0  0.67438  0.44386  0.44631  1.0000
  C   C1178     1.0  0.67711  0.38078  0.35185  1.0000
  H   H1880     1.0  0.77796  0.43140  0.24273  1.0000
  H   H1881     1.0  0.77646  0.45358  0.30019  1.0000
  H   H1882     1.0  0.78793  0.00714  0.25633  1.0000
  C   C1179     1.0  0.74044  0.48471  0.42731  1.0000
  H   H1883     1.0  0.74139  0.27956  0.30965  1.0000
  H   H1884     1.0  0.75981  0.04442  0.27370  1.0000
  H   H1885     1.0  0.79048  0.00683  0.27362  1.0000
  N   N118      1.0  0.95413  0.42131  0.34543  1.0000
  H   H1886     1.0  0.79240  0.40537  0.23490  1.0000
  N   N119      1.0  0.80656  0.46613  0.30500  1.0000
  H   H1887     1.0  0.85633  0.02736  0.29583  1.0000
  N   N120      1.0  0.75385  0.01015  0.26996  1.0000
  Fe  Fe243     1.0  0.75069  0.01336  0.47394  1.0000
  H   H1888     1.0  0.69901  0.28765  0.39948  1.0000
  N   N121      1.0  0.85795  0.18329  0.29301  1.0000
  C   C1180     1.0  0.85855  0.17695  0.27955  1.0000
  C   C1181     1.0  0.83368  0.18169  0.30118  1.0000
  C   C1182     1.0  0.86275  0.20842  0.29142  1.0000
  C   C1183     1.0  0.87650  0.16604  0.29994  1.0000
  H   H1889     1.0  0.87662  0.17785  0.27306  1.0000
  H   H1890     1.0  0.84459  0.18953  0.27411  1.0000
  H   H1891     1.0  0.85467  0.15813  0.28047  1.0000
  H   H1892     1.0  0.82947  0.16302  0.30246  1.0000
  H   H1893     1.0  0.83238  0.18621  0.31146  1.0000
  H   H1894     1.0  0.81922  0.19437  0.29621  1.0000
  H   H1895     1.0  0.86232  0.21378  0.30142  1.0000
  H   H1896     1.0  0.84873  0.22179  0.28639  1.0000
  H   H1897     1.0  0.88086  0.21049  0.28520  1.0000
  H   H1898     1.0  0.87322  0.14693  0.30123  1.0000
  H   H1899     1.0  0.87624  0.16998  0.31025  1.0000
  H   H1900     1.0  0.89515  0.16676  0.29412  1.0000
  C   C1184     1.0  0.66718  0.18965  0.44058  1.0000
  H   H1901     1.0  0.88019  0.02586  0.40252  1.0000
  C   C1185     1.0  0.96506  0.41943  0.35769  1.0000
  N   N122      1.0  0.88433  0.99703  0.29141  1.0000
  C   C1186     1.0  0.69464  0.42331  0.35206  1.0000
  H   H1902     1.0  0.73407  0.31710  0.33670  1.0000
  H   H1903     1.0  0.79130  0.47333  0.28664  1.0000
  C   C1187     1.0  0.78018  0.00073  0.26705  1.0000
  H   H1904     1.0  0.70090  0.09784  0.38920  1.0000
  H   H1905     1.0  0.66999  0.08796  0.42825  1.0000
  C   C1188     1.0  0.67879  0.30659  0.41563  1.0000
  H   H1906     1.0  0.95332  0.43094  0.36492  1.0000
  H   H1907     1.0  0.85705  0.00059  0.27888  1.0000
  C   C1189     1.0  0.68520  0.20854  0.35029  1.0000
  H   H1908     1.0  0.69136  0.48459  0.46192  1.0000
  C   C1190     1.0  0.67733  0.13838  0.37628  1.0000
  H   H1909     1.0  0.71238  0.31829  0.31175  1.0000
  N   N123      1.0  0.79585  0.08053  0.41658  1.0000
  C   C1191     1.0  0.80783  0.09733  0.40552  1.0000
  C   C1192     1.0  0.76938  0.08941  0.41906  1.0000
  C   C1193     1.0  0.80586  0.07931  0.42907  1.0000
  C   C1194     1.0  0.80032  0.05605  0.41275  1.0000
  H   H1910     1.0  0.82789  0.09109  0.40351  1.0000
  H   H1911     1.0  0.80476  0.11599  0.40808  1.0000
  H   H1912     1.0  0.80093  0.09855  0.39589  1.0000
  H   H1913     1.0  0.76527  0.10767  0.42223  1.0000
  H   H1914     1.0  0.76107  0.09080  0.40989  1.0000
  H   H1915     1.0  0.75991  0.07696  0.42734  1.0000
  H   H1916     1.0  0.79758  0.06644  0.43756  1.0000
  H   H1917     1.0  0.80226  0.09730  0.43251  1.0000
  H   H1918     1.0  0.82587  0.07290  0.42762  1.0000
  H   H1919     1.0  0.70177  0.12494  0.35271  1.0000
  H   H1920     1.0  0.71457  0.16058  0.37654  1.0000
  H   H1921     1.0  0.77543  0.45284  0.43787  1.0000
  H   H1922     1.0  0.72271  0.26525  0.34701  1.0000
  H   H1923     1.0  0.77162  0.45163  0.41394  1.0000
  C   C1195     1.0  0.87644  0.02186  0.29481  1.0000
  H   H1924     1.0  0.72436  0.00813  0.28670  1.0000
  C   C1196     1.0  0.85389  0.00162  0.40748  1.0000
  C   C1197     1.0  0.74992  0.03702  0.26745  1.0000
  H   H1925     1.0  0.96271  0.40706  0.32672  1.0000
  H   H1926     1.0  0.91873  0.00069  0.41104  1.0000
  S   S484      1.0  0.73355  0.04812  0.48200  1.0000
  H   H1927     1.0  0.81464  0.99508  0.43756  1.0000
  H   H1928     1.0  0.77525  0.48153  0.44270  1.0000
  H   H1929     1.0  0.66078  0.19263  0.43067  1.0000
  H   H1930     1.0  0.67457  0.25413  0.40528  1.0000
  H   H1931     1.0  0.66650  0.16204  0.34068  1.0000
  H   H1932     1.0  0.67014  0.36446  0.35172  1.0000
  C   C1198     1.0  0.74426  0.00146  0.28427  1.0000
  H   H1933     1.0  0.79585  0.48549  0.24643  1.0000
  H   H1934     1.0  0.68544  0.17805  0.43961  1.0000
  C   C1199     1.0  0.67053  0.26856  0.41131  1.0000
  H   H1935     1.0  0.97336  0.38652  0.34090  1.0000
  C   C1200     1.0  0.66755  0.39446  0.36236  1.0000
  H   H1936     1.0  0.75335  0.00797  0.29128  1.0000
  H   H1937     1.0  0.77167  0.48563  0.30063  1.0000
  H   H1938     1.0  0.66622  0.12377  0.38069  1.0000
  H   H1939     1.0  0.91719  0.99184  0.29980  1.0000
  C   C1201     1.0  0.91108  0.99060  0.29027  1.0000
  H   H1940     1.0  0.98859  0.41181  0.33296  1.0000
  Fe  Fe244     1.0  0.66966  0.36575  0.41399  1.0000
  S   S485      1.0  0.97598  0.47851  0.36049  1.0000
  H   H1941     1.0  0.67726  0.16165  0.46386  1.0000
  S   S486      1.0  0.66658  0.20039  0.40031  1.0000
  H   H1942     1.0  0.94147  0.99256  0.39703  1.0000
  H   H1943     1.0  0.99362  0.00934  0.33469  1.0000
  Fe  Fe245     1.0  0.72507  0.07708  0.70538  1.0000
  S   S487      1.0  0.75090  0.06777  0.72030  1.0000
  S   S488      1.0  0.69265  0.10749  0.70495  1.0000
  Fe  Fe246     1.0  0.75033  0.03529  0.69012  1.0000
  S   S489      1.0  0.77806  0.02178  0.70411  1.0000
  Fe  Fe247     1.0  0.74662  0.02907  0.72090  1.0000
  Fe  Fe248     1.0  0.78040  0.06139  0.70254  1.0000
  S   S490      1.0  0.81778  0.07138  0.70038  1.0000
  S   S491      1.0  0.71864  0.03891  0.70707  1.0000
  S   S492      1.0  0.75507  0.07441  0.68748  1.0000
  H   H1944     1.0  0.69307  0.22578  0.73356  1.0000
  H   H1945     1.0  0.84816  0.99740  0.72421  1.0000
  C   C1202     1.0  0.83399  0.45126  0.69558  1.0000
  C   C1203     1.0  0.97755  0.14580  0.58241  1.0000
  Fe  Fe249     1.0  0.87598  0.17811  0.65306  1.0000
  S   S493      1.0  0.90923  0.14937  0.65167  1.0000
  S   S494      1.0  0.83803  0.16969  0.66138  1.0000
  Fe  Fe250     1.0  0.90360  0.21886  0.63799  1.0000
  S   S495      1.0  0.93878  0.19288  0.63491  1.0000
  S   S496      1.0  0.90731  0.25817  0.62952  1.0000
  Fe  Fe251     1.0  0.91738  0.16761  0.63012  1.0000
  S   S497      1.0  0.93496  0.14296  0.61475  1.0000
  Fe  Fe252     1.0  0.92785  0.17707  0.65659  1.0000
  S   S498      1.0  0.95649  0.16684  0.67001  1.0000
  S   S499      1.0  0.88288  0.19486  0.63100  1.0000
  S   S500      1.0  0.89388  0.20447  0.66012  1.0000
  Fe  Fe253     1.0  0.87549  0.43034  0.66404  1.0000
  S   S501      1.0  0.87340  0.40817  0.64842  1.0000
  S   S502      1.0  0.84709  0.46337  0.66779  1.0000
  Fe  Fe254     1.0  0.92644  0.40434  0.66789  1.0000
  S   S503      1.0  0.92895  0.38015  0.65249  1.0000
  S   S504      1.0  0.95553  0.39969  0.68085  1.0000
  Fe  Fe255     1.0  0.91172  0.41406  0.64013  1.0000
  S   S505      1.0  0.92490  0.42432  0.61784  1.0000
  Fe  Fe256     1.0  0.89060  0.37603  0.66199  1.0000
  S   S506      1.0  0.87685  0.33990  0.66710  1.0000
  S   S507      1.0  0.91277  0.43856  0.65461  1.0000
  S   S508      1.0  0.88917  0.39779  0.67852  1.0000
  S   S509      1.0  0.77234  0.05711  0.50789  1.0000
  Fe  Fe257     1.0  0.90710  0.04371  0.57148  1.0000
  S   S510      1.0  0.89974  0.07515  0.55499  1.0000
  S   S511      1.0  0.94491  0.02387  0.57418  1.0000
  Fe  Fe258     1.0  0.85286  0.04369  0.58228  1.0000
  S   S512      1.0  0.84153  0.07513  0.56647  1.0000
  S   S513      1.0  0.82308  0.02971  0.59821  1.0000
  Fe  Fe259     1.0  0.87056  0.05601  0.55194  1.0000
  S   S514      1.0  0.87023  0.04582  0.53152  1.0000
  Fe  Fe260     1.0  0.87177  0.09087  0.57119  1.0000
  S   S515      1.0  0.86771  0.12934  0.57503  1.0000
  S   S516      1.0  0.87976  0.02336  0.56753  1.0000
  S   S517      1.0  0.88102  0.06067  0.58796  1.0000
  C   C1204     1.0  0.97014  0.03909  0.56816  1.0000
  H   H1946     1.0  0.86765  0.47250  0.70493  1.0000
  C   C1205     1.0  0.81749  0.00032  0.59856  1.0000
  C   C1206     1.0  0.96835  0.06102  0.55911  1.0000
  H   H1947     1.0  0.88187  0.40012  0.59050  1.0000
  H   H1948     1.0  0.78524  0.05009  0.55097  1.0000
  H   H1949     1.0  0.95103  0.06974  0.55627  1.0000
  C   C1207     1.0  0.80037  0.05591  0.51328  1.0000
  C   C1208     1.0  0.82185  0.04193  0.50778  1.0000
  C   C1209     1.0  0.84328  0.03949  0.51325  1.0000
  C   C1210     1.0  0.84343  0.05097  0.52425  1.0000
  C   C1211     1.0  0.82214  0.06554  0.52949  1.0000
  C   C1212     1.0  0.80071  0.06796  0.52402  1.0000
  H   H1950     1.0  0.82182  0.03262  0.49947  1.0000
  H   H1951     1.0  0.85971  0.02835  0.50905  1.0000
  H   H1952     1.0  0.82213  0.07486  0.53778  1.0000
  H   H1953     1.0  0.78424  0.07909  0.52818  1.0000
  C   C1213     1.0  0.68664  0.10170  0.73275  1.0000
  H   H1954     1.0  0.95999  0.44434  0.66143  1.0000
  C   C1214     1.0  0.91650  0.13968  0.60347  1.0000
  C   C1215     1.0  0.89731  0.15802  0.60009  1.0000
  C   C1216     1.0  0.88281  0.15498  0.59106  1.0000
  C   C1217     1.0  0.88731  0.13352  0.58546  1.0000
  C   C1218     1.0  0.90679  0.11536  0.58868  1.0000
  C   C1219     1.0  0.92133  0.11845  0.59767  1.0000
  H   H1955     1.0  0.89376  0.17466  0.60431  1.0000
  H   H1956     1.0  0.86789  0.16917  0.58850  1.0000
  H   H1957     1.0  0.91063  0.09891  0.58427  1.0000
  H   H1958     1.0  0.93608  0.10415  0.60030  1.0000
  C   C1220     1.0  0.89861  0.28080  0.63999  1.0000
  C   C1221     1.0  0.88036  0.27874  0.65135  1.0000
  C   C1222     1.0  0.87350  0.29731  0.65936  1.0000
  C   C1223     1.0  0.88525  0.31772  0.65632  1.0000
  C   C1224     1.0  0.90376  0.31961  0.64508  1.0000
  C   C1225     1.0  0.91014  0.30139  0.63682  1.0000
  H   H1959     1.0  0.87116  0.26311  0.65378  1.0000
  H   H1960     1.0  0.85905  0.29580  0.66800  1.0000
  H   H1961     1.0  0.91333  0.33495  0.64285  1.0000
  H   H1962     1.0  0.92441  0.30296  0.62810  1.0000
  H   H1963     1.0  0.66703  0.02933  0.67968  1.0000
  C   C1226     1.0  0.68342  0.03831  0.67708  1.0000
  H   H1964     1.0  0.84457  0.43347  0.69461  1.0000
  C   C1227     1.0  0.89720  0.47930  0.59047  1.0000
  H   H1965     1.0  0.92931  0.25159  0.65905  1.0000
  N   N124      1.0  0.93035  0.25395  0.67974  1.0000
  H   H1966     1.0  0.95704  0.21307  0.65261  1.0000
  C   C1228     1.0  0.67830  0.11474  0.72100  1.0000
  H   H1967     1.0  0.93133  0.21674  0.67769  1.0000
  C   C1229     1.0  0.92872  0.99928  0.54348  1.0000
  C   C1230     1.0  0.90641  0.45010  0.61042  1.0000
  C   C1231     1.0  0.88483  0.46042  0.61794  1.0000
  H   H1968     1.0  0.95731  0.25844  0.66180  1.0000
  H   H1969     1.0  0.89451  0.24983  0.67769  1.0000
  C   C1232     1.0  0.74068  0.99901  0.66689  1.0000
  H   H1970     1.0  0.88000  0.45342  0.62857  1.0000
  C   C1233     1.0  0.99313  0.13798  0.64311  1.0000
  C   C1234     1.0  0.91267  0.45967  0.59670  1.0000
  H   H1971     1.0  0.90214  0.35343  0.61891  1.0000
  C   C1235     1.0  0.69930  0.07595  0.67282  1.0000
  H   H1972     1.0  0.74540  0.01047  0.64524  1.0000
  C   C1236     1.0  0.83174  0.46881  0.68401  1.0000
  H   H1973     1.0  0.92208  0.04624  0.53175  1.0000
  H   H1974     1.0  0.76076  0.03299  0.55641  1.0000
  H   H1975     1.0  0.94317  0.44155  0.69878  1.0000
  C   C1237     1.0  0.82219  0.45669  0.70840  1.0000
  C   C1238     1.0  0.66196  0.07476  0.66532  1.0000
  C   C1239     1.0  0.99289  0.22128  0.65077  1.0000
  H   H1976     1.0  0.98925  0.23824  0.64396  1.0000
  H   H1977     1.0  0.93066  0.28139  0.66197  1.0000
  H   H1978     1.0  0.88499  0.46969  0.71821  1.0000
  C   C1240     1.0  0.97476  0.20684  0.65550  1.0000
  H   H1979     1.0  0.94068  0.04177  0.54464  1.0000
  C   C1241     1.0  0.88611  0.47273  0.70701  1.0000
  C   C1242     1.0  0.90463  0.45843  0.68598  1.0000
  H   H1980     1.0  0.78378  0.99856  0.57928  1.0000
  C   C1243     1.0  0.82335  0.09873  0.68953  1.0000
  C   C1244     1.0  0.84725  0.10364  0.68569  1.0000
  C   C1245     1.0  0.85206  0.12537  0.67712  1.0000
  C   C1246     1.0  0.83293  0.14246  0.67246  1.0000
  C   C1247     1.0  0.80905  0.13758  0.67636  1.0000
  C   C1248     1.0  0.80428  0.11577  0.68480  1.0000
  H   H1981     1.0  0.86209  0.09059  0.68935  1.0000
  H   H1982     1.0  0.87051  0.12898  0.67425  1.0000
  H   H1983     1.0  0.79415  0.15074  0.67283  1.0000
  H   H1984     1.0  0.78578  0.11234  0.68780  1.0000
  C   C1249     1.0  0.94053  0.03843  0.53430  1.0000
  H   H1985     1.0  0.93386  0.22099  0.69430  1.0000
  C   C1250     1.0  0.81974  0.01628  0.56102  1.0000
  H   H1986     1.0  0.90203  0.48655  0.57986  1.0000
  H   H1987     1.0  0.84944  0.37506  0.60075  1.0000
  H   H1988     1.0  0.98851  0.11980  0.64324  1.0000
  S   S518      1.0  0.79390  0.48623  0.72592  1.0000
  C   C1251     1.0  0.98724  0.10275  0.58156  1.0000
  H   H1989     1.0  0.93537  0.28760  0.68461  1.0000
  H   H1990     1.0  0.98622  0.09908  0.59276  1.0000
  C   C1252     1.0  0.77855  0.03510  0.55864  1.0000
  N   N125      1.0  0.87556  0.38276  0.61131  1.0000
  C   C1253     1.0  0.89000  0.37008  0.62195  1.0000
  C   C1254     1.0  0.85945  0.40446  0.61589  1.0000
  C   C1255     1.0  0.89213  0.39039  0.59875  1.0000
  S   S519      1.0  0.74945  0.02549  0.66969  1.0000
  H   H1991     1.0  0.90177  0.38194  0.62406  1.0000
  H   H1992     1.0  0.87020  0.41719  0.61806  1.0000
  H   H1993     1.0  0.84666  0.39947  0.62535  1.0000
  H   H1994     1.0  0.84849  0.41474  0.60806  1.0000
  H   H1995     1.0  0.90357  0.40302  0.60042  1.0000
  H   H1996     1.0  0.99186  0.47065  0.65585  1.0000
  H   H1997     1.0  0.92939  0.45182  0.59085  1.0000
  H   H1998     1.0  0.82791  0.02070  0.71538  1.0000
  H   H1999     1.0  0.89655  0.27891  0.68146  1.0000
  N   N126      1.0  0.84724  0.12372  0.63127  1.0000
  C   C1256     1.0  0.82768  0.11430  0.64158  1.0000
  C   C1257     1.0  0.83909  0.14967  0.62615  1.0000
  C   C1258     1.0  0.85296  0.10967  0.61994  1.0000
  C   C1259     1.0  0.86922  0.12132  0.63743  1.0000
  H   H2000     1.0  0.83340  0.09497  0.64600  1.0000
  H   H2001     1.0  0.81096  0.11538  0.63722  1.0000
  H   H2002     1.0  0.82258  0.12494  0.65010  1.0000
  H   H2003     1.0  0.82261  0.15223  0.62136  1.0000
  H   H2004     1.0  0.83461  0.16078  0.63447  1.0000
  H   H2005     1.0  0.85345  0.15746  0.61844  1.0000
  H   H2006     1.0  0.86816  0.11582  0.61221  1.0000
  H   H2007     1.0  0.83709  0.11176  0.61467  1.0000
  H   H2008     1.0  0.85853  0.08991  0.62348  1.0000
  H   H2009     1.0  0.86541  0.13153  0.64610  1.0000
  H   H2010     1.0  0.88428  0.12858  0.62999  1.0000
  H   H2011     1.0  0.87604  0.10199  0.64134  1.0000
  C   C1260     1.0  0.80777  0.47954  0.70968  1.0000
  H   H2012     1.0  0.89871  0.42561  0.71770  1.0000
  C   C1261     1.0  0.99302  0.13186  0.56100  1.0000
  H   H2013     1.0  0.79760  0.04949  0.72807  1.0000
  C   C1262     1.0  0.90359  0.25904  0.68352  1.0000
  N   N127      1.0  0.67688  0.06505  0.67611  1.0000
  H   H2014     1.0  0.87806  0.36447  0.63167  1.0000
  H   H2015     1.0  0.78224  0.00680  0.61096  1.0000
  C   C1263     1.0  0.93906  0.22760  0.68330  1.0000
  H   H2016     1.0  0.84811  0.35992  0.61803  1.0000
  H   H2017     1.0  0.82398  0.44311  0.71734  1.0000
  C   C1264     1.0  0.79539  0.99381  0.60567  1.0000
  H   H2018     1.0  0.69523  0.09610  0.67218  1.0000
  N   N128      1.0  0.94662  0.01216  0.53365  1.0000
  C   C1265     1.0  0.93722  0.26166  0.66501  1.0000
  H   H2019     1.0  0.95901  0.01794  0.51214  1.0000
  C   C1266     1.0  0.87515  0.48892  0.59788  1.0000
  C   C1267     1.0  0.92893  0.45562  0.70328  1.0000
  C   C1268     1.0  0.94156  0.26761  0.68712  1.0000
  H   H2020     1.0  0.95924  0.22316  0.68080  1.0000
  H   H2021     1.0  0.92737  0.01533  0.51709  1.0000
  N   N129      1.0  0.90458  0.45413  0.70074  1.0000
  H   H2022     1.0  0.90986  0.00632  0.54139  1.0000
  C   C1269     1.0  0.97931  0.18492  0.66428  1.0000
  H   H2023     1.0  0.93423  0.47366  0.69873  1.0000
  H   H2024     1.0  0.95378  0.04882  0.52718  1.0000
  H   H2025     1.0  0.82772  0.03002  0.55294  1.0000
  H   H2026     1.0  0.90843  0.47692  0.68120  1.0000
  H   H2027     1.0  0.97784  0.14246  0.59349  1.0000
  H   H2028     1.0  0.70057  0.18139  0.73197  1.0000
  H   H2029     1.0  0.89764  0.25269  0.69448  1.0000
  N   N130      1.0  0.79626  0.01225  0.55844  1.0000
  H   H2030     1.0  0.98775  0.08812  0.54617  1.0000
  H   H2031     1.0  0.71087  0.06891  0.68076  1.0000
  H   H2032     1.0  0.98171  0.16085  0.61890  1.0000
  H   H2033     1.0  0.69398  0.03305  0.66736  1.0000
  H   H2034     1.0  0.84088  0.05173  0.72496  1.0000
  H   H2035     1.0  0.97441  0.13163  0.55915  1.0000
  H   H2036     1.0  0.88043  0.42788  0.70491  1.0000
  H   H2037     1.0  0.88675  0.45679  0.68363  1.0000
  C   C1270     1.0  0.86905  0.47950  0.61162  1.0000
  H   H2038     1.0  0.98236  0.16416  0.57825  1.0000
  H   H2039     1.0  0.93673  0.26233  0.69828  1.0000
  H   H2040     1.0  0.77523  0.04120  0.56869  1.0000
  H   H2041     1.0  0.83335  0.99924  0.56144  1.0000
  H   H2042     1.0  0.91216  0.41521  0.70190  1.0000
  H   H2043     1.0  0.67365  0.06421  0.69758  1.0000
  H   H2044     1.0  0.87231  0.34950  0.60524  1.0000
  H   H2045     1.0  0.90472  0.37452  0.59505  1.0000
  H   H2046     1.0  0.69697  0.00701  0.49335  1.0000
  H   H2047     1.0  0.71053  0.07150  0.66309  1.0000
  H   H2048     1.0  0.92955  0.45271  0.71432  1.0000
  C   C1271     1.0  0.86068  0.36610  0.60870  1.0000
  H   H2049     1.0  0.91878  0.44503  0.68096  1.0000
  H   H2050     1.0  0.95840  0.14642  0.58112  1.0000
  H   H2051     1.0  0.80725  0.01831  0.53682  1.0000
  C   C1272     1.0  0.99276  0.02840  0.57200  1.0000
  C   C1273     1.0  0.89872  0.42963  0.70659  1.0000
  H   H2052     1.0  0.69508  0.03038  0.68496  1.0000
  H   H2053     1.0  0.81650  0.99526  0.72635  1.0000
  H   H2054     1.0  0.67206  0.07047  0.65532  1.0000
  C   C1274     1.0  0.98919  0.07154  0.55347  1.0000
  C   C1275     1.0  0.97124  0.00278  0.53706  1.0000
  Fe  Fe261     1.0  0.77033  0.04653  0.48775  1.0000
  H   H2055     1.0  0.70167  0.08678  0.73208  1.0000
  H   H2056     1.0  0.85207  0.48695  0.61742  1.0000
  C   C1276     1.0  0.74043  0.99632  0.65352  1.0000
  H   H2057     1.0  0.78237  0.00194  0.54257  1.0000
  H   H2058     1.0  0.81755  0.02309  0.57078  1.0000
  C   C1277     1.0  0.97539  0.43979  0.66672  1.0000
  H   H2059     1.0  0.96178  0.26419  0.68447  1.0000
  C   C1278     1.0  0.79981  0.00451  0.54506  1.0000
  H   H2060     1.0  0.98521  0.01229  0.52994  1.0000
  H   H2061     1.0  0.96916  0.10144  0.57935  1.0000
  C   C1279     1.0  0.66293  0.07125  0.68919  1.0000
  C   C1280     1.0  0.82946  0.00814  0.72515  1.0000
  C   C1281     1.0  0.94585  0.00830  0.51983  1.0000
  H   H2062     1.0  0.97572  0.15101  0.64393  1.0000
  H   H2063     1.0  0.92905  0.00164  0.55404  1.0000
  C   C1282     1.0  0.78693  0.99312  0.56909  1.0000
  C   C1283     1.0  0.97740  0.41912  0.67670  1.0000
  H   H2064     1.0  0.97219  0.00556  0.54747  1.0000
  H   H2065     1.0  0.99358  0.12941  0.61821  1.0000
  H   H2066     1.0  0.86089  0.02864  0.73403  1.0000
  C   C1284     1.0  0.99348  0.45463  0.66355  1.0000
  H   H2067     1.0  0.66699  0.48051  0.77840  1.0000
  S   S520      1.0  0.74903  0.09664  0.95992  1.0000
  H   H2068     1.0  0.76167  0.16738  0.97599  1.0000
  Fe  Fe262     1.0  0.78194  0.03004  0.96450  1.0000
  S   S521      1.0  0.79202  0.05782  0.94656  1.0000
  C   C1285     1.0  0.84667  0.45488  0.97855  1.0000
  Fe  Fe263     1.0  0.78837  0.08301  0.96155  1.0000
  S   S522      1.0  0.81563  0.10827  0.96016  1.0000
  Fe  Fe264     1.0  0.75167  0.06824  0.94685  1.0000
  S   S523      1.0  0.74067  0.07381  0.92606  1.0000
  N   N131      1.0  0.67840  0.19788  0.74856  1.0000
  S   S524      1.0  0.74154  0.03902  0.96425  1.0000
  H   H2069     1.0  0.81767  0.99675  0.91681  1.0000
  C   C1286     1.0  0.69608  0.17773  0.74322  1.0000
  C   C1287     1.0  0.67550  0.10782  0.74545  1.0000
  H   H2070     1.0  0.75108  0.46582  0.93933  1.0000
  H   H2071     1.0  0.69743  0.43663  0.75045  1.0000
  C   C1288     1.0  0.89364  0.03076  0.94548  1.0000
  H   H2072     1.0  0.86494  0.00838  0.93568  1.0000
  C   C1289     1.0  0.68283  0.45205  0.75094  1.0000
  H   H2073     1.0  0.80181  0.44176  0.91393  1.0000
  H   H2074     1.0  0.71912  0.99520  0.87282  1.0000
  H   H2075     1.0  0.70582  0.21886  0.74893  1.0000
  H   H2076     1.0  0.79909  0.41631  0.92737  1.0000
  Fe  Fe265     1.0  0.74164  0.06670  0.97745  1.0000
  C   C1290     1.0  0.68694  0.47513  0.74388  1.0000
  C   C1291     1.0  0.82623  0.00451  0.74943  1.0000
  S   S525      1.0  0.73617  0.00903  0.74202  1.0000
  H   H2077     1.0  0.86502  0.07269  0.95169  1.0000
  H   H2078     1.0  0.69605  0.48738  0.76965  1.0000
  H   H2079     1.0  0.78147  0.45360  0.95505  1.0000
  H   H2080     1.0  0.78727  0.42320  0.95130  1.0000
  S   S526      1.0  0.78105  0.05450  0.97953  1.0000
  H   H2081     1.0  0.89892  0.01058  0.94711  1.0000
  H   H2082     1.0  0.87106  0.07329  0.93364  1.0000
  H   H2083     1.0  0.84456  0.99304  0.74913  1.0000
  H   H2084     1.0  0.87023  0.03589  0.92431  1.0000
  H   H2085     1.0  0.81555  0.47498  0.93071  1.0000
  C   C1292     1.0  0.79252  0.44154  0.94790  1.0000
  H   H2086     1.0  0.69406  0.06892  0.94354  1.0000
  H   H2087     1.0  0.70464  0.47744  0.73801  1.0000
  H   H2088     1.0  0.78497  0.48842  0.93640  1.0000
  H   H2089     1.0  0.68920  0.18978  0.76823  1.0000
  C   C1293     1.0  0.71857  0.99320  0.86224  1.0000
  H   H2090     1.0  0.85658  0.15213  0.98379  1.0000
  H   H2091     1.0  0.90435  0.03798  0.93567  1.0000
  H   H2092     1.0  0.79438  0.04577  0.74617  1.0000
  H   H2093     1.0  0.68521  0.11439  0.89958  1.0000
  H   H2094     1.0  0.86019  0.45373  0.96950  1.0000
  C   C1294     1.0  0.71363  0.06571  0.92348  1.0000
  C   C1295     1.0  0.69316  0.06531  0.93364  1.0000
  C   C1296     1.0  0.69035  0.05635  0.90792  1.0000
  C   C1297     1.0  0.71215  0.06114  0.91063  1.0000
  C   C1298     1.0  0.86094  0.06490  0.94333  1.0000
  H   H2095     1.0  0.68955  0.05264  0.89804  1.0000
  H   H2096     1.0  0.72798  0.06132  0.90276  1.0000
  H   H2097     1.0  0.79665  0.00975  0.93854  1.0000
  C   C1299     1.0  0.80409  0.43484  0.92467  1.0000
  H   H2098     1.0  0.82375  0.43297  0.92524  1.0000
  H   H2099     1.0  0.78553  0.02381  0.73845  1.0000
  H   H2100     1.0  0.66516  0.17474  0.76669  1.0000
  C   C1300     1.0  0.82615  0.11308  0.97455  1.0000
  H   H2101     1.0  0.83379  0.03324  0.95903  1.0000
  H   H2102     1.0  0.72850  0.12924  0.98048  1.0000
  N   N132      1.0  0.78896  0.45132  0.93377  1.0000
  S   S527      1.0  0.80561  0.99288  0.96611  1.0000
  C   C1301     1.0  0.66504  0.11950  0.90066  1.0000
  N   N133      1.0  0.86720  0.03805  0.94545  1.0000
  N   N134      1.0  0.82424  0.02173  0.73666  1.0000
  H   H2103     1.0  0.77109  0.13659  0.97294  1.0000
  C   C1302     1.0  0.85378  0.02790  0.95861  1.0000
  C   C1303     1.0  0.82348  0.46870  0.97763  1.0000
  H   H2104     1.0  0.84119  0.07106  0.94298  1.0000
  H   H2105     1.0  0.84269  0.14385  0.96370  1.0000
  H   H2106     1.0  0.71338  0.17470  0.74732  1.0000
  C   C1304     1.0  0.79934  0.03580  0.73739  1.0000
  C   C1305     1.0  0.83897  0.13238  0.97341  1.0000
  H   H2107     1.0  0.75680  0.43544  0.93552  1.0000
  H   H2108     1.0  0.68547  0.09436  0.88046  1.0000
  C   C1306     1.0  0.84188  0.03861  0.73459  1.0000
  H   H2109     1.0  0.81184  0.44009  0.94914  1.0000
  H   H2110     1.0  0.68231  0.09767  0.75445  1.0000
  H   H2111     1.0  0.71903  0.15996  0.98368  1.0000
  H   H2112     1.0  0.68610  0.13903  0.87610  1.0000
  H   H2113     1.0  0.73786  0.99250  0.83593  1.0000
  C   C1307     1.0  0.67117  0.06123  0.93080  1.0000
  H   H2114     1.0  0.85849  0.03448  0.96720  1.0000
  H   H2115     1.0  0.69210  0.47496  0.78742  1.0000
  H   H2116     1.0  0.67572  0.23609  0.74874  1.0000
  H   H2117     1.0  0.85762  0.00764  0.96047  1.0000
  H   H2118     1.0  0.84066  0.03365  0.93410  1.0000
  C   C1308     1.0  0.79623  0.47561  0.92980  1.0000
  C   C1309     1.0  0.76789  0.14846  0.98084  1.0000
  C   C1310     1.0  0.86050  0.02860  0.93441  1.0000
  C   C1311     1.0  0.68876  0.22065  0.74476  1.0000
  C   C1312     1.0  0.76304  0.45338  0.93266  1.0000
  C   C1313     1.0  0.68322  0.48781  0.77942  1.0000
  C   C1314     1.0  0.66583  0.14204  0.87794  1.0000
  C   C1315     1.0  0.66959  0.05696  0.91792  1.0000
  H   H2119     1.0  0.71698  0.01167  0.85603  1.0000
  S   S528      1.0  0.81686  0.48445  0.96173  1.0000
  H   H2120     1.0  0.79364  0.48374  0.91922  1.0000
  H   H2121     1.0  0.89936  0.03768  0.95365  1.0000
  C   C1316     1.0  0.67272  0.19200  0.76348  1.0000
  C   C1317     1.0  0.81232  0.99542  0.93844  1.0000
  H   H2122     1.0  0.76224  0.00506  0.85025  1.0000
  H   H2123     1.0  0.68869  0.16032  0.74600  1.0000
  H   H2124     1.0  0.75965  0.46112  0.92216  1.0000
  C   C1318     1.0  0.66526  0.09893  0.88200  1.0000
  H   H2125     1.0  0.82283  0.01419  0.75829  1.0000
  H   H2126     1.0  0.83828  0.04947  0.74296  1.0000
  S   S529      1.0  0.66164  0.03591  0.87708  1.0000
  H   H2127     1.0  0.81266  0.99200  0.75147  1.0000
  H   H2128     1.0  0.78583  0.14801  0.98381  1.0000
  H   H2129     1.0  0.66776  0.62524  0.07722  1.0000
  H   H2130     1.0  0.80543  0.60903  0.22036  1.0000
  C   C1319     1.0  0.68471  0.71411  0.19074  1.0000
  Fe  Fe266     1.0  0.80459  0.55159  0.21682  1.0000
  H   H2131     1.0  0.66541  0.49344  0.07406  1.0000
  H   H2132     1.0  0.90189  0.62476  0.21225  1.0000
  Fe  Fe267     1.0  0.78922  0.51794  0.20030  1.0000
  S   S530      1.0  0.74970  0.52808  0.20843  1.0000
  S   S531      1.0  0.80145  0.51182  0.22049  1.0000
  Fe  Fe268     1.0  0.75742  0.56634  0.20496  1.0000
  S   S532      1.0  0.74000  0.59882  0.19131  1.0000
  H   H2133     1.0  0.66807  0.67210  0.19380  1.0000
  S   S533      1.0  0.79667  0.55631  0.19566  1.0000
  C   C1320     1.0  0.87873  0.88537  0.22943  1.0000
  H   H2134     1.0  0.77387  0.55005  0.15912  1.0000
  H   H2135     1.0  0.69460  0.96627  0.20708  1.0000
  C   C1321     1.0  0.68594  0.55749  0.00080  1.0000
  H   H2136     1.0  0.96080  0.65784  0.21646  1.0000
  H   H2137     1.0  0.81856  0.90944  0.23144  1.0000
  H   H2138     1.0  0.72925  0.58873  0.16499  1.0000
  C   C1322     1.0  0.68175  0.96643  0.20051  1.0000
  C   C1323     1.0  0.82294  0.63305  0.22793  1.0000
  H   H2139     1.0  0.67374  0.64844  0.16959  1.0000
  C   C1324     1.0  0.72827  0.57507  0.15871  1.0000
  C   C1325     1.0  0.66801  0.98841  0.19552  1.0000
  S   S534      1.0  0.83721  0.56147  0.22323  1.0000
  H   H2140     1.0  0.71905  0.55807  0.18548  1.0000
  H   H2141     1.0  0.82837  0.53322  0.99114  1.0000
  C   C1326     1.0  0.68584  0.53250  0.00242  1.0000
  H   H2142     1.0  0.74026  0.51334  0.16173  1.0000
  C   C1327     1.0  0.70887  0.60842  0.19027  1.0000
  C   C1328     1.0  0.70263  0.62642  0.17944  1.0000
  H   H2143     1.0  0.91374  0.64659  0.19864  1.0000
  H   H2144     1.0  0.66812  0.65924  0.05790  1.0000
  H   H2145     1.0  0.71680  0.63398  0.17207  1.0000
  C   C1329     1.0  0.91231  0.66083  0.22243  1.0000
  H   H2146     1.0  0.94793  0.66619  0.20113  1.0000
  C   C1330     1.0  0.67828  0.70264  0.17032  1.0000
  H   H2147     1.0  0.69386  0.72940  0.18482  1.0000
  H   H2148     1.0  0.95002  0.60620  0.22356  1.0000
  H   H2149     1.0  0.67316  0.59016  0.00970  1.0000
  H   H2150     1.0  0.90686  0.67623  0.21446  1.0000
  H   H2151     1.0  0.89536  0.65422  0.22799  1.0000
  H   H2152     1.0  0.69930  0.54814  0.17674  1.0000
  N   N135      1.0  0.92991  0.64118  0.21660  1.0000
  C   C1331     1.0  0.82078  0.61054  0.22477  1.0000
  H   H2153     1.0  0.69508  0.58491  0.20817  1.0000
  S   S535      1.0  0.80348  0.49132  0.18538  1.0000
  C   C1332     1.0  0.71844  0.54548  0.17849  1.0000
  H   H2154     1.0  0.68858  0.92744  0.20152  1.0000
  H   H2155     1.0  0.67845  0.61678  0.05338  1.0000
  H   H2156     1.0  0.74044  0.57905  0.14887  1.0000
  C   C1333     1.0  0.73467  0.53242  0.15686  1.0000
  C   C1334     1.0  0.66587  0.60741  0.19844  1.0000
  H   H2157     1.0  0.68705  0.71768  0.16376  1.0000
  H   H2158     1.0  0.80911  0.64876  0.22595  1.0000
  C   C1335     1.0  0.83847  0.90805  0.22760  1.0000
  S   S536      1.0  0.69902  0.51551  0.98925  1.0000
  H   H2159     1.0  0.76174  0.56050  0.17500  1.0000
  H   H2160     1.0  0.71603  0.53386  0.15457  1.0000
  H   H2161     1.0  0.69240  0.68606  0.17136  1.0000
  H   H2162     1.0  0.84386  0.92522  0.22885  1.0000
  S   S537      1.0  0.76587  0.56390  0.22595  1.0000
  C   C1336     1.0  0.91883  0.63196  0.20707  1.0000
  C   C1337     1.0  0.85863  0.59250  0.23276  1.0000
  C   C1338     1.0  0.69045  0.59873  0.19974  1.0000
  C   C1339     1.0  0.67342  0.57075  0.01113  1.0000
  N   N136      1.0  0.73545  0.55003  0.16565  1.0000
  H   H2163     1.0  0.72298  0.52658  0.18386  1.0000
  C   C1340     1.0  0.93639  0.62114  0.22757  1.0000
  C   C1341     1.0  0.84267  0.63525  0.23378  1.0000
  H   H2164     1.0  0.93149  0.61695  0.20253  1.0000
  H   H2165     1.0  0.92018  0.61311  0.23312  1.0000
  H   H2166     1.0  0.69517  0.56668  0.99148  1.0000
  Fe  Fe269     1.0  0.76234  0.52428  0.22853  1.0000
  H   H2167     1.0  0.69907  0.69784  0.19232  1.0000
  H   H2168     1.0  0.66485  0.69898  0.16471  1.0000
  H   H2169     1.0  0.74720  0.53538  0.14705  1.0000
  N   N137      1.0  0.66632  0.70922  0.18365  1.0000
  H   H2170     1.0  0.76628  0.52874  0.17406  1.0000
  H   H2171     1.0  0.92008  0.66829  0.22964  1.0000
  H   H2172     1.0  0.70926  0.57816  0.15667  1.0000
  C   C1342     1.0  0.67372  0.52080  0.01454  1.0000
  C   C1343     1.0  0.76041  0.54721  0.16857  1.0000
  C   C1344     1.0  0.67835  0.94445  0.19731  1.0000
  C   C1345     1.0  0.67820  0.63463  0.17798  1.0000
  H   H2173     1.0  0.84132  0.90747  0.21655  1.0000
  C   C1346     1.0  0.83869  0.59016  0.22714  1.0000
  C   C1347     1.0  0.95211  0.65086  0.20940  1.0000
  H   H2174     1.0  0.88528  0.90211  0.23037  1.0000
  H   H2175     1.0  0.67632  0.71905  0.20086  1.0000
  H   H2176     1.0  0.84730  0.86206  0.22245  1.0000
  H   H2177     1.0  0.67380  0.50142  0.01589  1.0000
  H   H2178     1.0  0.96586  0.63658  0.20484  1.0000
  H   H2179     1.0  0.88269  0.88348  0.21853  1.0000
  C   C1348     1.0  0.84454  0.86412  0.23330  1.0000
  C   C1349     1.0  0.66155  0.94428  0.18892  1.0000
  C   C1350     1.0  0.66141  0.53400  0.02490  1.0000
  C   C1351     1.0  0.66091  0.55909  0.02314  1.0000
  Fe  Fe270     1.0  0.76867  0.53440  0.45830  1.0000
  S   S538      1.0  0.79031  0.55184  0.43900  1.0000
  S   S539      1.0  0.73148  0.52722  0.45750  1.0000
  H   H2180     1.0  0.94217  0.75517  0.29273  1.0000
  H   H2181     1.0  0.91684  0.72217  0.27167  1.0000
  H   H2182     1.0  0.85575  0.90406  0.25112  1.0000
  Fe  Fe271     1.0  0.89521  0.53400  0.35953  1.0000
  H   H2183     1.0  0.85168  0.61083  0.26758  1.0000
  S   S540      1.0  0.89294  0.57434  0.35236  1.0000
  C   C1352     1.0  0.86050  0.61483  0.23619  1.0000
  H   H2184     1.0  0.91917  0.94872  0.39382  1.0000
  S   S541      1.0  0.76337  0.96183  0.23534  1.0000
  S   S542      1.0  0.91324  0.51820  0.37775  1.0000
  Fe  Fe272     1.0  0.89295  0.89381  0.29373  1.0000
  S   S543      1.0  0.90707  0.92547  0.27987  1.0000
  S   S544      1.0  0.88175  0.89781  0.31580  1.0000
  Fe  Fe273     1.0  0.89602  0.86525  0.27085  1.0000
  S   S545      1.0  0.91006  0.89554  0.25543  1.0000
  S   S546      1.0  0.89482  0.83414  0.25990  1.0000
  Fe  Fe274     1.0  0.93402  0.89709  0.27008  1.0000
  S   S547      1.0  0.97327  0.89978  0.26152  1.0000
  Fe  Fe275     1.0  0.88172  0.92114  0.26660  1.0000
  S   S548      1.0  0.86267  0.95633  0.25588  1.0000
  S   S549      1.0  0.92207  0.86528  0.28489  1.0000
  S   S550      1.0  0.86549  0.89113  0.28102  1.0000
  Fe  Fe276     1.0  0.88371  0.64102  0.27929  1.0000
  S   S551      1.0  0.89879  0.63726  0.25768  1.0000
  S   S552      1.0  0.87692  0.60473  0.29137  1.0000
  Fe  Fe277     1.0  0.87713  0.69661  0.27313  1.0000
  S   S553      1.0  0.89044  0.69692  0.25088  1.0000
  S   S554      1.0  0.86628  0.72950  0.28398  1.0000
  Fe  Fe278     1.0  0.86840  0.66708  0.25269  1.0000
  H   H2185     1.0  0.85256  0.98348  0.30324  1.0000
  Fe  Fe279     1.0  0.91964  0.66673  0.25778  1.0000
  H   H2186     1.0  0.89850  0.96985  0.42680  1.0000
  S   S555      1.0  0.85209  0.66971  0.27436  1.0000
  S   S556      1.0  0.90759  0.66776  0.28000  1.0000
  H   H2187     1.0  0.76704  0.51936  0.42733  1.0000
  C   C1353     1.0  0.95767  0.59254  0.34882  1.0000
  C   C1354     1.0  0.83878  0.49380  0.42737  1.0000
  S   S557      1.0  0.75627  0.55154  0.47725  1.0000
  N   N138      1.0  0.96538  0.56802  0.35625  1.0000
  H   H2188     1.0  0.94289  0.96993  0.42635  1.0000
  S   S558      1.0  0.74380  0.50301  0.24769  1.0000
  C   C1355     1.0  0.94726  0.95794  0.41847  1.0000
  H   H2189     1.0  0.76199  0.51943  0.41049  1.0000
  H   H2190     1.0  0.87570  0.61615  0.24071  1.0000
  H   H2191     1.0  0.95003  0.70978  0.30065  1.0000
  C   C1356     1.0  0.97564  0.65769  0.27034  1.0000
  C   C1357     1.0  0.84834  0.88836  0.24945  1.0000
  H   H2192     1.0  0.95898  0.65095  0.27500  1.0000
  C   C1358     1.0  0.84737  0.50215  0.41375  1.0000
  C   C1359     1.0  0.83459  0.95808  0.25065  1.0000
  C   C1360     1.0  0.81884  0.94162  0.25681  1.0000
  C   C1361     1.0  0.79704  0.94286  0.25198  1.0000
  H   H2193     1.0  0.98017  0.98847  0.31888  1.0000
  H   H2194     1.0  0.82343  0.92796  0.26531  1.0000
  H   H2195     1.0  0.78505  0.92985  0.25664  1.0000
  C   C1362     1.0  0.89604  0.91907  0.32046  1.0000
  C   C1363     1.0  0.88517  0.93098  0.33154  1.0000
  C   C1364     1.0  0.89534  0.94980  0.33434  1.0000
  C   C1365     1.0  0.91637  0.95672  0.32602  1.0000
  C   C1366     1.0  0.92778  0.94400  0.31538  1.0000
  C   C1367     1.0  0.91771  0.92521  0.31267  1.0000
  H   H2196     1.0  0.86848  0.92615  0.33770  1.0000
  H   H2197     1.0  0.88642  0.95953  0.34259  1.0000
  C   C1368     1.0  0.87273  0.97957  0.30224  1.0000
  H   H2198     1.0  0.92664  0.91546  0.30449  1.0000
  C   C1369     1.0  0.88631  0.80538  0.26686  1.0000
  C   C1370     1.0  0.89012  0.78775  0.25837  1.0000
  C   C1371     1.0  0.88364  0.76462  0.26339  1.0000
  C   C1372     1.0  0.87311  0.75893  0.27696  1.0000
  C   C1373     1.0  0.86897  0.77668  0.28541  1.0000
  C   C1374     1.0  0.87572  0.79976  0.28042  1.0000
  H   H2199     1.0  0.89818  0.79200  0.24785  1.0000
  H   H2200     1.0  0.88672  0.75123  0.25675  1.0000
  H   H2201     1.0  0.86080  0.77245  0.29592  1.0000
  H   H2202     1.0  0.87257  0.81321  0.28705  1.0000
  C   C1375     1.0  0.88864  0.58295  0.33540  1.0000
  C   C1376     1.0  0.88329  0.56621  0.32849  1.0000
  C   C1377     1.0  0.87984  0.57318  0.31496  1.0000
  C   C1378     1.0  0.88191  0.59684  0.30824  1.0000
  C   C1379     1.0  0.88741  0.61361  0.31508  1.0000
  C   C1380     1.0  0.89069  0.60666  0.32870  1.0000
  H   H2203     1.0  0.88150  0.54797  0.33362  1.0000
  H   H2204     1.0  0.87558  0.56017  0.30970  1.0000
  H   H2205     1.0  0.88888  0.63193  0.30996  1.0000
  H   H2206     1.0  0.89469  0.61969  0.33405  1.0000
  H   H2207     1.0  0.93726  0.92670  0.40454  1.0000
  C   C1381     1.0  0.82289  0.54181  0.41618  1.0000
  C   C1382     1.0  0.81361  0.53312  0.42970  1.0000
  H   H2208     1.0  0.85496  0.84758  0.23873  1.0000
  C   C1383     1.0  0.80591  0.97801  0.23540  1.0000
  H   H2209     1.0  0.81660  0.56036  0.41178  1.0000
  H   H2210     1.0  0.82490  0.86423  0.23750  1.0000
  H   H2211     1.0  0.96662  0.53078  0.35434  1.0000
  C   C1384     1.0  0.99140  0.56482  0.35740  1.0000
  C   C1385     1.0  0.92438  0.98788  0.40358  1.0000
  H   H2212     1.0  0.97970  0.96161  0.33137  1.0000
  H   H2213     1.0  0.95293  0.57887  0.37586  1.0000
  Fe  Fe280     1.0  0.93514  0.49081  0.36508  1.0000
  H   H2214     1.0  0.95030  0.93876  0.42368  1.0000
  C   C1386     1.0  0.95062  0.56522  0.36994  1.0000
  H   H2215     1.0  0.98138  0.72991  0.28478  1.0000
  H   H2216     1.0  0.88290  0.97756  0.27555  1.0000
  C   C1387     1.0  0.93404  0.94622  0.39991  1.0000
  Fe  Fe281     1.0  0.74320  0.49087  0.46955  1.0000
  H   H2217     1.0  0.93831  0.73866  0.26007  1.0000
  H   H2218     1.0  0.98262  0.71096  0.27249  1.0000
  N   N139      1.0  0.92757  0.96229  0.41031  1.0000
  H   H2219     1.0  0.91451  0.75043  0.28860  1.0000
  H   H2220     1.0  0.95139  0.68958  0.28893  1.0000
  H   H2221     1.0  0.96824  0.59523  0.33839  1.0000
  H   H2222     1.0  0.96013  0.60703  0.35412  1.0000
  H   H2223     1.0  0.94437  0.62759  0.23511  1.0000
  H   H2224     1.0  0.96476  0.96175  0.41198  1.0000
  H   H2225     1.0  0.77938  0.59666  0.28264  1.0000
  Fe  Fe282     1.0  0.88468  0.49407  0.38271  1.0000
  H   H2226     1.0  0.82580  0.49056  0.28983  1.0000
  C   C1388     1.0  0.93409  0.75090  0.28456  1.0000
  S   S559      1.0  0.84442  0.66368  0.23797  1.0000
  S   S560      1.0  0.92374  0.98151  0.36646  1.0000
  C   C1389     1.0  0.83930  0.59707  0.27012  1.0000
  C   C1390     1.0  0.97286  0.72802  0.27618  1.0000
  H   H2227     1.0  0.96928  0.50011  0.38494  1.0000
  C   C1391     1.0  0.96173  0.54948  0.34883  1.0000
  H   H2228     1.0  0.97299  0.55062  0.33857  1.0000
  H   H2229     1.0  0.83938  0.58997  0.26069  1.0000
  H   H2230     1.0  0.81723  0.64320  0.26433  1.0000
  H   H2231     1.0  0.98882  0.65317  0.28926  1.0000
  H   H2232     1.0  0.82229  0.59949  0.29633  1.0000
  C   C1392     1.0  0.79831  0.58930  0.27824  1.0000
  S   S561      1.0  0.86493  0.51173  0.36528  1.0000
  H   H2233     1.0  0.80485  0.57285  0.28531  1.0000
  N   N140      1.0  0.81445  0.60766  0.27596  1.0000
  N   N141      1.0  0.94651  0.72751  0.28031  1.0000
  H   H2234     1.0  0.94421  0.94903  0.30901  1.0000
  H   H2235     1.0  0.82698  0.62897  0.28761  1.0000
  C   C1393     1.0  0.94252  0.70754  0.29177  1.0000
  C   C1394     1.0  0.83967  0.52634  0.40819  1.0000
  H   H2236     1.0  0.79654  0.62311  0.29377  1.0000
  H   H2237     1.0  0.80453  0.62406  0.25654  1.0000
  H   H2238     1.0  0.92274  0.70677  0.29512  1.0000
  H   H2239     1.0  0.80646  0.50440  0.30346  1.0000
  S   S562      1.0  0.91908  0.50842  0.34651  1.0000
  H   H2240     1.0  0.95581  0.54686  0.37582  1.0000
  H   H2241     1.0  0.84629  0.53299  0.39770  1.0000
  C   C1395     1.0  0.99163  0.97137  0.32293  1.0000
  H   H2242     1.0  0.84746  0.58177  0.27734  1.0000
  C   C1396     1.0  0.82789  0.97651  0.24009  1.0000
  H   H2243     1.0  0.88987  0.86961  0.23498  1.0000
  H   H2244     1.0  0.78665  0.63779  0.27054  1.0000
  H   H2245     1.0  0.96155  0.91397  0.28824  1.0000
  C   C1397     1.0  0.80527  0.62910  0.26645  1.0000
  H   H2246     1.0  0.79752  0.58334  0.26856  1.0000
  H   H2247     1.0  0.74295  0.98121  0.26286  1.0000
  H   H2248     1.0  0.88957  0.95976  0.41323  1.0000
  H   H2249     1.0  0.91766  0.97165  0.28821  1.0000
  C   C1398     1.0  0.81496  0.61512  0.28899  1.0000
  C   C1399     1.0  0.77211  0.50907  0.41865  1.0000
  C   C1400     1.0  0.98798  0.49979  0.37997  1.0000
  H   H2250     1.0  0.82863  0.89058  0.25379  1.0000
  S   S563      1.0  0.92747  0.98279  0.32739  1.0000
  S   S564      1.0  0.73547  0.97829  0.47661  1.0000
  C   C1401     1.0  0.98021  0.66535  0.25635  1.0000
  C   C1402     1.0  0.93647  0.72353  0.26876  1.0000
  C   C1403     1.0  0.79057  0.96103  0.24126  1.0000
  C   C1404     1.0  0.99268  0.65872  0.27839  1.0000
  H   H2251     1.0  0.93504  0.76632  0.27596  1.0000
  H   H2252     1.0  0.85739  0.87183  0.25544  1.0000
  H   H2253     1.0  0.93805  0.59543  0.34785  1.0000
  H   H2254     1.0  0.90644  0.93831  0.42475  1.0000
  C   C1405     1.0  0.98014  0.91606  0.28406  1.0000
  H   H2255     1.0  0.70976  0.60096  0.47864  1.0000
  C   C1406     1.0  0.82196  0.50917  0.43530  1.0000
  C   C1407     1.0  0.90459  0.95729  0.41920  1.0000
  S   S565      1.0  0.95792  0.66654  0.24630  1.0000
  Fe  Fe283     1.0  0.72030  0.54055  0.47758  1.0000
  C   C1408     1.0  0.99001  0.91096  0.27104  1.0000
  H   H2256     1.0  0.97641  0.74333  0.26783  1.0000
  H   H2257     1.0  0.94241  0.55171  0.34751  1.0000
  H   H2258     1.0  0.93086  0.56758  0.36944  1.0000
  H   H2259     1.0  0.87875  0.96051  0.30027  1.0000
  H   H2260     1.0  0.81545  0.50238  0.44572  1.0000
  H   H2261     1.0  0.87737  0.98025  0.31224  1.0000
  H   H2262     1.0  0.74712  0.98122  0.28652  1.0000
  H   H2263     1.0  0.71388  0.93528  0.48282  1.0000
  H   H2264     1.0  0.82555  0.97996  0.41547  1.0000
  H   H2265     1.0  0.79181  0.50910  0.41476  1.0000
  H   H2266     1.0  0.94588  0.70636  0.26506  1.0000
  H   H2267     1.0  0.98700  0.92683  0.30194  1.0000
  H   H2268     1.0  0.95078  0.95024  0.39268  1.0000
  H   H2269     1.0  0.78381  0.98050  0.26868  1.0000
  S   S566      1.0  0.78118  0.49723  0.46931  1.0000
  H   H2270     1.0  0.73399  0.49359  0.43650  1.0000
  H   H2271     1.0  0.72980  0.49490  0.41933  1.0000
  H   H2272     1.0  0.99306  0.98248  0.34721  1.0000
  H   H2273     1.0  0.83993  0.98944  0.23536  1.0000
  S   S567      1.0  0.86220  0.98945  0.39222  1.0000
  N   N142      1.0  0.85251  0.88648  0.23492  1.0000
  H   H2274     1.0  0.87256  0.57683  0.23462  1.0000
  C   C1409     1.0  0.81043  0.51506  0.52419  1.0000
  Fe  Fe284     1.0  0.72946  0.91820  0.63755  1.0000
  S   S568      1.0  0.76463  0.89332  0.63229  1.0000
  S   S569      1.0  0.72072  0.92976  0.65829  1.0000
  Fe  Fe285     1.0  0.71245  0.91511  0.61142  1.0000
  S   S570      1.0  0.74631  0.89013  0.60415  1.0000
  Fe  Fe286     1.0  0.74223  0.87075  0.62563  1.0000
  S   S571      1.0  0.74849  0.83003  0.63274  1.0000
  Fe  Fe287     1.0  0.76551  0.91495  0.61138  1.0000
  S   S572      1.0  0.80078  0.92480  0.59901  1.0000
  S   S573      1.0  0.70679  0.89395  0.63249  1.0000
  S   S574      1.0  0.73191  0.94164  0.61704  1.0000
  Fe  Fe288     1.0  0.70811  0.66864  0.63068  1.0000
  S   S575      1.0  0.73266  0.69585  0.62932  1.0000
  S   S576      1.0  0.69017  0.64617  0.64951  1.0000
  Fe  Fe289     1.0  0.71249  0.67346  0.60016  1.0000
  S   S577      1.0  0.73812  0.70034  0.59609  1.0000
  H   H2275     1.0  0.69331  0.59251  0.60566  1.0000
  Fe  Fe290     1.0  0.75597  0.67662  0.61279  1.0000
  S   S578      1.0  0.79620  0.67139  0.61283  1.0000
  Fe  Fe291     1.0  0.71315  0.71788  0.61270  1.0000
  S   S579      1.0  0.70385  0.75886  0.60748  1.0000
  S   S580      1.0  0.73303  0.64777  0.61537  1.0000
  S   S581      1.0  0.68590  0.69269  0.61553  1.0000
  H   H2276     1.0  0.83126  0.52379  0.53770  1.0000
  Fe  Fe292     1.0  0.74223  0.56892  0.71387  1.0000
  H   H2277     1.0  0.70800  0.94812  0.55290  1.0000
  S   S582      1.0  0.75069  0.60070  0.69741  1.0000
  Fe  Fe293     1.0  0.76366  0.51886  0.72707  1.0000
  H   H2278     1.0  0.81172  0.97791  0.63232  1.0000
  C   C1410     1.0  0.90541  0.52620  0.51182  1.0000
  S   S583      1.0  0.73836  0.53119  0.71175  1.0000
  C   C1411     1.0  0.71423  0.94599  0.54207  1.0000
  C   C1412     1.0  0.84320  0.59379  0.61582  1.0000
  S   S584      1.0  0.85455  0.51218  0.59017  1.0000
  Fe  Fe294     1.0  0.87786  0.58784  0.56244  1.0000
  S   S585      1.0  0.89764  0.58079  0.54192  1.0000
  S   S586      1.0  0.87566  0.62458  0.56823  1.0000
  Fe  Fe295     1.0  0.87108  0.53553  0.57150  1.0000
  S   S587      1.0  0.89014  0.52394  0.55172  1.0000
  Fe  Fe296     1.0  0.91746  0.54706  0.55292  1.0000
  S   S588      1.0  0.95791  0.53424  0.54672  1.0000
  Fe  Fe297     1.0  0.86867  0.55863  0.54228  1.0000
  S   S589      1.0  0.85362  0.56527  0.52255  1.0000
  S   S590      1.0  0.89999  0.55570  0.57348  1.0000
  S   S591      1.0  0.84733  0.56854  0.56203  1.0000
  Fe  Fe298     1.0  0.70899  0.53345  0.73009  1.0000
  C   C1413     1.0  0.82747  0.55338  0.50565  1.0000
  C   C1414     1.0  0.97078  0.56903  0.55831  1.0000
  H   H2279     1.0  0.95150  0.57505  0.56127  1.0000
  C   C1415     1.0  0.80325  0.52092  0.51137  1.0000
  H   H2280     1.0  0.76362  0.56194  0.50374  1.0000
  C   C1416     1.0  0.82598  0.52836  0.52777  1.0000
  C   C1417     1.0  0.83443  0.54768  0.51852  1.0000
  C   C1418     1.0  0.70189  0.94866  0.48835  1.0000
  C   C1419     1.0  0.81201  0.54002  0.50205  1.0000
  C   C1420     1.0  0.67621  0.91013  0.58905  1.0000
  H   H2281     1.0  0.74770  0.60495  0.72933  1.0000
  H   H2282     1.0  0.93251  0.97941  0.54319  1.0000
  S   S592      1.0  0.68276  0.56036  0.48502  1.0000
  H   H2283     1.0  0.67902  0.81932  0.63585  1.0000
  H   H2284     1.0  0.82907  0.93855  0.62478  1.0000
  H   H2285     1.0  0.92303  0.58077  0.49791  1.0000
  H   H2286     1.0  0.85528  0.60602  0.60912  1.0000
  H   H2287     1.0  0.72258  0.68076  0.72923  1.0000
  H   H2288     1.0  0.72932  0.64707  0.70814  1.0000
  Fe  Fe299     1.0  0.76628  0.51362  0.48822  1.0000
  H   H2289     1.0  0.68777  0.65455  0.55862  1.0000
  S   S593      1.0  0.68176  0.92915  0.59939  1.0000
  H   H2290     1.0  0.72962  0.91916  0.52183  1.0000
  H   H2291     1.0  0.68285  0.84342  0.60682  1.0000
  H   H2292     1.0  0.70108  0.65703  0.71862  1.0000
  C   C1421     1.0  0.69417  0.60485  0.48638  1.0000
  H   H2293     1.0  0.92224  0.53697  0.48529  1.0000
  C   C1422     1.0  0.69011  0.88702  0.58849  1.0000
  C   C1423     1.0  0.73404  0.97532  0.65075  1.0000
  H   H2294     1.0  0.83046  0.53777  0.61570  1.0000
  C   C1424     1.0  0.81712  0.65801  0.60012  1.0000
  C   C1425     1.0  0.81019  0.64563  0.59124  1.0000
  C   C1426     1.0  0.82798  0.63487  0.58142  1.0000
  C   C1427     1.0  0.85253  0.63682  0.58044  1.0000
  C   C1428     1.0  0.85915  0.64950  0.58922  1.0000
  C   C1429     1.0  0.84163  0.65970  0.59913  1.0000
  H   H2295     1.0  0.79122  0.64439  0.59193  1.0000
  H   H2296     1.0  0.82271  0.62551  0.57445  1.0000
  H   H2297     1.0  0.87803  0.65124  0.58842  1.0000
  H   H2298     1.0  0.84713  0.66909  0.60599  1.0000
  H   H2299     1.0  0.75982  0.53989  0.52751  1.0000
  H   H2300     1.0  0.67945  0.59776  0.64249  1.0000
  H   H2301     1.0  0.87675  0.55321  0.61936  1.0000
  H   H2302     1.0  0.94540  0.51652  0.49348  1.0000
  H   H2303     1.0  0.84832  0.59016  0.62609  1.0000
  C   C1430     1.0  0.70739  0.63301  0.66261  1.0000
  C   C1431     1.0  0.73013  0.63913  0.66240  1.0000
  C   C1432     1.0  0.74319  0.62893  0.67309  1.0000
  C   C1433     1.0  0.73389  0.61222  0.68398  1.0000
  C   C1434     1.0  0.71128  0.60581  0.68413  1.0000
  C   C1435     1.0  0.69803  0.61631  0.67351  1.0000
  H   H2304     1.0  0.73756  0.65194  0.65407  1.0000
  H   H2305     1.0  0.76065  0.63399  0.67290  1.0000
  H   H2306     1.0  0.70389  0.59302  0.69249  1.0000
  H   H2307     1.0  0.68043  0.61151  0.67378  1.0000
  N   N143      1.0  0.73108  0.64213  0.72942  1.0000
  H   H2308     1.0  0.72244  0.94569  0.68304  1.0000
  H   H2309     1.0  0.88339  0.56972  0.60250  1.0000
  H   H2310     1.0  0.79998  0.97567  0.56946  1.0000
  C   C1436     1.0  0.73708  0.81015  0.62527  1.0000
  C   C1437     1.0  0.73577  0.78636  0.63210  1.0000
  C   C1438     1.0  0.72626  0.77018  0.62656  1.0000
  C   C1439     1.0  0.71782  0.77780  0.61419  1.0000
  C   C1440     1.0  0.71963  0.80140  0.60722  1.0000
  C   C1441     1.0  0.72928  0.81754  0.61272  1.0000
  H   H2311     1.0  0.74183  0.78055  0.64181  1.0000
  H   H2312     1.0  0.72481  0.75206  0.63204  1.0000
  H   H2313     1.0  0.71337  0.80725  0.59756  1.0000
  H   H2314     1.0  0.73056  0.83573  0.60729  1.0000
  C   C1442     1.0  0.82910  0.96035  0.59190  1.0000
  C   C1443     1.0  0.68471  0.61081  0.60812  1.0000
  H   H2315     1.0  0.70749  0.54114  0.52376  1.0000
  C   C1444     1.0  0.72765  0.95694  0.66137  1.0000
  C   C1445     1.0  0.69242  0.98909  0.49425  1.0000
  H   H2316     1.0  0.87295  0.54112  0.60506  1.0000
  H   H2317     1.0  0.93238  0.54588  0.52430  1.0000
  H   H2318     1.0  0.76503  0.62626  0.71847  1.0000
  H   H2319     1.0  0.95107  0.52155  0.51646  1.0000
  C   C1446     1.0  0.93554  0.53560  0.49221  1.0000
  H   H2320     1.0  0.75876  0.59020  0.50999  1.0000
  H   H2321     1.0  0.70271  0.59597  0.51518  1.0000
  H   H2322     1.0  0.84227  0.94733  0.58664  1.0000
  C   C1447     1.0  0.87072  0.55822  0.60931  1.0000
  S   S594      1.0  0.71044  0.57237  0.73066  1.0000
  C   C1448     1.0  0.73860  0.66593  0.72851  1.0000
  C   C1449     1.0  0.83800  0.57688  0.59687  1.0000
  N   N144      1.0  0.84526  0.57101  0.61041  1.0000
  H   H2323     1.0  0.69739  0.57966  0.63019  1.0000
  S   S595      1.0  0.76960  0.55639  0.72815  1.0000
  H   H2324     1.0  0.83398  0.56827  0.49842  1.0000
  N   N145      1.0  0.79703  0.74705  0.60318  1.0000
  C   C1450     1.0  0.78985  0.76584  0.61206  1.0000
  C   C1451     1.0  0.81628  0.72798  0.60835  1.0000
  C   C1452     1.0  0.80621  0.75831  0.58926  1.0000
  C   C1453     1.0  0.77570  0.73597  0.60301  1.0000
  H   H2325     1.0  0.77532  0.78046  0.60842  1.0000
  H   H2326     1.0  0.80546  0.77463  0.61249  1.0000
  H   H2327     1.0  0.78263  0.75795  0.62262  1.0000
  H   H2328     1.0  0.82228  0.71369  0.60175  1.0000
  H   H2329     1.0  0.83256  0.73563  0.60890  1.0000
  H   H2330     1.0  0.80963  0.71854  0.61867  1.0000
  H   H2331     1.0  0.81168  0.74455  0.58231  1.0000
  H   H2332     1.0  0.82237  0.76683  0.58898  1.0000
  H   H2333     1.0  0.79203  0.77270  0.58506  1.0000
  H   H2334     1.0  0.78066  0.72143  0.59657  1.0000
  H   H2335     1.0  0.76074  0.74965  0.59906  1.0000
  H   H2336     1.0  0.76819  0.72741  0.61336  1.0000
  C   C1454     1.0  0.82846  0.94135  0.65110  1.0000
  H   H2337     1.0  0.75072  0.67066  0.71872  1.0000
  C   C1455     1.0  0.68869  0.59845  0.63174  1.0000
  H   H2338     1.0  0.90171  0.57420  0.51301  1.0000
  C   C1456     1.0  0.66519  0.87927  0.57344  1.0000
  C   C1457     1.0  0.83441  0.98353  0.59171  1.0000
  H   H2339     1.0  0.97651  0.98295  0.53673  1.0000
  H   H2340     1.0  0.89554  0.57006  0.49718  1.0000
  H   H2341     1.0  0.73474  0.53300  0.51219  1.0000
  H   H2342     1.0  0.69519  0.85361  0.58046  1.0000
  H   H2343     1.0  0.85097  0.58712  0.58942  1.0000
  H   H2344     1.0  0.67616  0.74398  0.53968  1.0000
  H   H2345     1.0  0.80676  0.54459  0.49211  1.0000
  H   H2346     1.0  0.78121  0.94114  0.66274  1.0000
  H   H2347     1.0  0.69944  0.62194  0.60636  1.0000
  H   H2348     1.0  0.83403  0.55032  0.62990  1.0000
  H   H2349     1.0  0.80976  0.56416  0.62052  1.0000
  H   H2350     1.0  0.77290  0.96594  0.61120  1.0000
  C   C1458     1.0  0.80520  0.49688  0.69807  1.0000
  H   H2351     1.0  0.89068  0.52812  0.50572  1.0000
  C   C1459     1.0  0.67862  0.58776  0.49144  1.0000
  H   H2352     1.0  0.79478  0.91207  0.65779  1.0000
  H   H2353     1.0  0.69314  0.84561  0.62911  1.0000
  H   H2354     1.0  0.82318  0.95085  0.66008  1.0000
  C   C1460     1.0  0.78817  0.93146  0.65388  1.0000
  C   C1461     1.0  0.70565  0.90495  0.54660  1.0000
  H   H2355     1.0  0.72520  0.89661  0.54491  1.0000
  H   H2356     1.0  0.69993  0.58037  0.53231  1.0000
  C   C1462     1.0  0.79785  0.96873  0.63974  1.0000
  C   C1463     1.0  0.74568  0.55544  0.53040  1.0000
  H   H2357     1.0  0.67440  0.64581  0.62353  1.0000
  S   S596      1.0  0.72945  0.50342  0.48964  1.0000
  H   H2358     1.0  0.70349  0.60934  0.63053  1.0000
  H   H2359     1.0  0.71119  0.96439  0.53583  1.0000
  C   C1464     1.0  0.98780  0.58055  0.56191  1.0000
  C   C1465     1.0  0.66460  0.95996  0.50369  1.0000
  H   H2360     1.0  0.71212  0.62517  0.71849  1.0000
  H   H2361     1.0  0.70036  0.90625  0.55756  1.0000
  H   H2362     1.0  0.79942  0.93048  0.62733  1.0000
  C   C1466     1.0  0.80688  0.95393  0.59890  1.0000
  C   C1467     1.0  0.71776  0.64298  0.71821  1.0000
  N   N146      1.0  0.73226  0.56696  0.51914  1.0000
  H   H2363     1.0  0.66753  0.94072  0.55087  1.0000
  H   H2364     1.0  0.79204  0.97905  0.64840  1.0000
  H   H2365     1.0  0.83616  0.92210  0.65466  1.0000
  H   H2366     1.0  0.72115  0.60131  0.52633  1.0000
  C   C1468     1.0  0.70806  0.97185  0.48712  1.0000
  H   H2367     1.0  0.73402  0.97335  0.64042  1.0000
  H   H2368     1.0  0.66651  0.76405  0.56029  1.0000
  H   H2369     1.0  0.77233  0.93171  0.64892  1.0000
  C   C1469     1.0  0.72742  0.95986  0.67477  1.0000
  H   H2370     1.0  0.70493  0.88084  0.59417  1.0000
  H   H2371     1.0  0.82268  0.91057  0.63546  1.0000
  C   C1470     1.0  0.70992  0.92687  0.52371  1.0000
  H   H2372     1.0  0.83760  0.56019  0.59285  1.0000
  S   S597      1.0  0.70397  0.65977  0.58251  1.0000
  H   H2373     1.0  0.89637  0.53042  0.52198  1.0000
  N   N147      1.0  0.92316  0.54257  0.50539  1.0000
  H   H2374     1.0  0.73333  0.54819  0.53952  1.0000
  H   H2375     1.0  0.81953  0.58805  0.59709  1.0000
  H   H2376     1.0  0.73420  0.93931  0.54069  1.0000
  C   C1471     1.0  0.68451  0.87158  0.58077  1.0000
  N   N148      1.0  0.70115  0.92911  0.53812  1.0000
  H   H2377     1.0  0.75515  0.56852  0.53333  1.0000
  H   H2378     1.0  0.82430  0.60417  0.61658  1.0000
  C   C1472     1.0  0.82914  0.55515  0.61956  1.0000
  H   H2379     1.0  0.79418  0.51453  0.69894  1.0000
  H   H2380     1.0  0.78174  0.97057  0.63473  1.0000
  H   H2381     1.0  0.73403  0.98274  0.68788  1.0000
  C   C1473     1.0  0.74933  0.57673  0.50740  1.0000
  C   C1474     1.0  0.67447  0.66465  0.57839  1.0000
  C   C1475     1.0  0.71319  0.58702  0.52346  1.0000
  C   C1476     1.0  0.79004  0.97070  0.60578  1.0000
  C   C1477     1.0  0.75289  0.62309  0.72843  1.0000
  H   H2382     1.0  0.71125  0.55640  0.50654  1.0000
  C   C1478     1.0  0.97876  0.54978  0.55094  1.0000
  C   C1479     1.0  0.73399  0.98080  0.67754  1.0000
  H   H2383     1.0  0.94906  0.54758  0.48706  1.0000
  H   H2384     1.0  0.66429  0.92635  0.53731  1.0000
  H   H2385     1.0  0.70743  0.94492  0.51707  1.0000
  C   C1480     1.0  0.68880  0.62756  0.49084  1.0000
  H   H2386     1.0  0.69501  0.89206  0.54441  1.0000
  H   H2387     1.0  0.73978  0.58588  0.49876  1.0000
  H   H2388     1.0  0.84325  0.94990  0.64412  1.0000
  H   H2389     1.0  0.66714  0.81833  0.61398  1.0000
  N   N149      1.0  0.80740  0.94289  0.64430  1.0000
  C   C1481     1.0  0.94126  0.54051  0.51433  1.0000
  H   H2390     1.0  0.81526  0.50515  0.67638  1.0000
  C   C1482     1.0  0.91038  0.56800  0.50322  1.0000
  C   C1483     1.0  0.72090  0.54861  0.51527  1.0000
  S   S598      1.0  0.78226  0.50485  0.50774  1.0000
  C   C1484     1.0  0.67179  0.66010  0.56577  1.0000
  H   H2391     1.0  0.95504  0.55255  0.50988  1.0000
  C   C1485     1.0  0.81506  0.93007  0.63248  1.0000
  H   H2392     1.0  0.80376  0.50027  0.53144  1.0000
  H   H2393     1.0  0.69988  0.91486  0.52026  1.0000
  C   C1486     1.0  0.68029  0.94268  0.49663  1.0000
  H   H2394     1.0  0.70038  0.64109  0.48654  1.0000
  H   H2395     1.0  0.67242  0.61948  0.60063  1.0000
  C   C1487     1.0  0.67477  0.93868  0.54012  1.0000
  C   C1488     1.0  0.67545  0.83958  0.63375  1.0000
  H   H2396     1.0  0.66974  0.84632  0.64363  1.0000
  N   N150      1.0  0.67150  0.60943  0.62220  1.0000
  H   H2397     1.0  0.85165  0.98830  0.58638  1.0000
  C   C1489     1.0  0.66804  0.63315  0.50046  1.0000
  H   H2398     1.0  0.98145  0.59532  0.56770  1.0000
  C   C1490     1.0  0.66499  0.83857  0.61207  1.0000
  H   H2399     1.0  0.67165  0.88178  0.61674  1.0000
  H   H2400     1.0  0.81283  0.98715  0.54463  1.0000
  H   H2401     1.0  0.67573  0.92479  0.49743  1.0000
  C   C1491     1.0  0.67068  0.98319  0.50244  1.0000
  H   H2402     1.0  0.67063  0.95676  0.53372  1.0000
  H   H2403     1.0  0.89021  0.49139  0.70299  1.0000
  C   C1492     1.0  0.81721  0.49154  0.68530  1.0000
  S   S599      1.0  0.67143  0.52346  0.73419  1.0000
  H   H2404     1.0  0.91424  0.50680  0.51324  1.0000
  H   H2405     1.0  0.95029  0.98865  0.51894  1.0000
  H   H2406     1.0  0.78105  0.97639  0.73356  1.0000
  H   H2407     1.0  0.76934  0.98941  0.56741  1.0000
  H   H2408     1.0  0.77675  0.58218  0.75653  1.0000
  H   H2409     1.0  0.75468  0.96221  0.83826  1.0000
  Fe  Fe300     1.0  0.78084  0.50977  0.96084  1.0000
  S   S600      1.0  0.76280  0.53743  0.97423  1.0000
  H   H2410     1.0  0.86258  0.74832  0.79674  1.0000
  Fe  Fe301     1.0  0.74380  0.52652  0.94126  1.0000
  S   S601      1.0  0.72253  0.55583  0.95304  1.0000
  S   S602      1.0  0.74201  0.51596  0.92112  1.0000
  Fe  Fe302     1.0  0.75934  0.56341  0.95472  1.0000
  S   S603      1.0  0.76905  0.60110  0.95212  1.0000
  Fe  Fe303     1.0  0.72764  0.52769  0.97167  1.0000
  S   S604      1.0  0.77992  0.53651  0.94161  1.0000
  H   H2411     1.0  0.97669  0.73969  0.92300  1.0000
  Fe  Fe304     1.0  0.88974  0.88240  0.89117  1.0000
  S   S605      1.0  0.85657  0.89463  0.90561  1.0000
  S   S606      1.0  0.88557  0.87023  0.87203  1.0000
  Fe  Fe305     1.0  0.92427  0.88381  0.91047  1.0000
  S   S607      1.0  0.89343  0.89613  0.92651  1.0000
  H   H2412     1.0  0.72259  0.84977  0.80414  1.0000
  Fe  Fe306     1.0  0.87470  0.86865  0.92147  1.0000
  S   S608      1.0  0.85208  0.84672  0.93811  1.0000
  Fe  Fe307     1.0  0.87797  0.92121  0.90934  1.0000
  S   S609      1.0  0.85766  0.95951  0.91022  1.0000
  S   S610      1.0  0.90643  0.85409  0.90689  1.0000
  S   S611      1.0  0.91027  0.91115  0.89340  1.0000
  Fe  Fe308     1.0  0.87624  0.66570  0.91242  1.0000
  S   S612      1.0  0.89275  0.67909  0.89096  1.0000
  S   S613      1.0  0.86924  0.62677  0.91749  1.0000
  Fe  Fe309     1.0  0.87263  0.71478  0.92100  1.0000
  S   S614      1.0  0.88768  0.73229  0.90032  1.0000
  S   S615      1.0  0.86274  0.73342  0.93929  1.0000
  Fe  Fe310     1.0  0.86405  0.71207  0.89289  1.0000
  S   S616      1.0  0.83904  0.73023  0.87784  1.0000
  Fe  Fe311     1.0  0.91513  0.69785  0.90037  1.0000
  S   S617      1.0  0.95403  0.70351  0.89223  1.0000
  S   S618      1.0  0.84622  0.69768  0.91376  1.0000
  S   S619      1.0  0.90138  0.68138  0.92162  1.0000
  H   H2413     1.0  0.68430  0.92491  0.86943  1.0000
  C   C1493     1.0  0.71647  0.51807  0.90054  1.0000
  H   H2414     1.0  0.66355  0.85068  0.83733  1.0000
  H   H2415     1.0  0.71391  0.58439  0.80633  1.0000
  Fe  Fe312     1.0  0.73796  0.91815  0.81779  1.0000
  S   S620      1.0  0.76751  0.94079  0.81085  1.0000
  S   S621      1.0  0.69869  0.93614  0.81981  1.0000
  Fe  Fe313     1.0  0.77358  0.87054  0.81998  1.0000
  S   S622      1.0  0.80635  0.88920  0.81306  1.0000
  S   S623      1.0  0.77513  0.83074  0.82909  1.0000
  Fe  Fe314     1.0  0.78646  0.91565  0.82686  1.0000
  S   S624      1.0  0.80026  0.93190  0.84182  1.0000
  Fe  Fe315     1.0  0.78460  0.91273  0.79756  1.0000
  S   S625      1.0  0.80067  0.92316  0.77550  1.0000
  S   S626      1.0  0.75520  0.89548  0.83492  1.0000
  S   S627      1.0  0.75353  0.89163  0.80335  1.0000
  Fe  Fe316     1.0  0.74161  0.66889  0.82925  1.0000
  S   S628      1.0  0.77658  0.64395  0.82375  1.0000
  S   S629      1.0  0.71540  0.65352  0.84687  1.0000
  Fe  Fe317     1.0  0.75799  0.71220  0.80971  1.0000
  S   S630      1.0  0.79421  0.69040  0.80268  1.0000
  S   S631      1.0  0.75086  0.75184  0.79996  1.0000
  Fe  Fe318     1.0  0.77314  0.66099  0.80227  1.0000
  S   S632      1.0  0.78597  0.63899  0.78501  1.0000
  Fe  Fe319     1.0  0.79433  0.67537  0.82471  1.0000
  S   S633      1.0  0.82861  0.66918  0.83402  1.0000
  S   S634      1.0  0.73665  0.68388  0.80766  1.0000
  S   S635      1.0  0.75963  0.69918  0.83179  1.0000
  C   C1494     1.0  0.76689  0.80989  0.82087  1.0000
  C   C1495     1.0  0.76624  0.81461  0.80696  1.0000
  C   C1496     1.0  0.76068  0.79689  0.80067  1.0000
  C   C1497     1.0  0.75593  0.77440  0.80824  1.0000
  C   C1498     1.0  0.75602  0.77002  0.82219  1.0000
  C   C1499     1.0  0.76165  0.78763  0.82845  1.0000
  H   H2416     1.0  0.77050  0.83166  0.80101  1.0000
  H   H2417     1.0  0.76061  0.80038  0.78986  1.0000
  H   H2418     1.0  0.75195  0.75294  0.82814  1.0000
  H   H2419     1.0  0.76210  0.78391  0.83923  1.0000
  C   C1500     1.0  0.74282  0.59327  0.76914  1.0000
  C   C1501     1.0  0.76742  0.59360  0.76395  1.0000
  C   C1502     1.0  0.78024  0.60807  0.76875  1.0000
  C   C1503     1.0  0.76857  0.62247  0.77868  1.0000
  C   C1504     1.0  0.74373  0.62284  0.78349  1.0000
  C   C1505     1.0  0.73097  0.60812  0.77882  1.0000
  H   H2420     1.0  0.79946  0.60777  0.76495  1.0000
  H   H2421     1.0  0.73445  0.63426  0.79092  1.0000
  H   H2422     1.0  0.71180  0.60828  0.78270  1.0000
  C   C1506     1.0  0.69535  0.52222  0.89456  1.0000
  H   H2423     1.0  0.82146  0.88129  0.96126  1.0000
  C   C1507     1.0  0.76079  0.95889  0.77234  1.0000
  C   C1508     1.0  0.78242  0.94642  0.76601  1.0000
  C   C1509     1.0  0.78976  0.95283  0.75198  1.0000
  C   C1510     1.0  0.77566  0.97186  0.74438  1.0000
  C   C1511     1.0  0.67124  0.96768  0.83622  1.0000
  H   H2424     1.0  0.75478  0.95393  0.78308  1.0000
  H   H2425     1.0  0.80628  0.94294  0.74700  1.0000
  H   H2426     1.0  0.79874  0.74065  0.81009  1.0000
  C   C1512     1.0  0.83613  0.71306  0.86577  1.0000
  C   C1513     1.0  0.85518  0.69523  0.86135  1.0000
  C   C1514     1.0  0.85256  0.68186  0.85164  1.0000
  C   C1515     1.0  0.83085  0.68612  0.84635  1.0000
  C   C1516     1.0  0.81171  0.70383  0.85085  1.0000
  C   C1517     1.0  0.81446  0.71745  0.86042  1.0000
  H   H2427     1.0  0.87209  0.69194  0.86525  1.0000
  H   H2428     1.0  0.86746  0.66822  0.84819  1.0000
  H   H2429     1.0  0.79479  0.70705  0.84700  1.0000
  H   H2430     1.0  0.79963  0.73123  0.86381  1.0000
  H   H2431     1.0  0.71191  0.52196  0.77460  1.0000
  C   C1518     1.0  0.66599  0.95971  0.86077  1.0000
  H   H2432     1.0  0.95801  0.67326  0.91860  1.0000
  C   C1519     1.0  0.86240  0.88798  0.86340  1.0000
  C   C1520     1.0  0.84836  0.90885  0.86798  1.0000
  C   C1521     1.0  0.82944  0.92223  0.86122  1.0000
  C   C1522     1.0  0.82422  0.91467  0.84996  1.0000
  C   C1523     1.0  0.83824  0.89380  0.84537  1.0000
  C   C1524     1.0  0.85749  0.88070  0.85196  1.0000
  H   H2433     1.0  0.85225  0.91488  0.87662  1.0000
  H   H2434     1.0  0.81885  0.93850  0.86475  1.0000
  H   H2435     1.0  0.83453  0.88801  0.83660  1.0000
  H   H2436     1.0  0.86858  0.86486  0.84819  1.0000
  C   C1525     1.0  0.85517  0.81547  0.93768  1.0000
  C   C1526     1.0  0.86607  0.80536  0.92600  1.0000
  C   C1527     1.0  0.86790  0.78020  0.92612  1.0000
  C   C1528     1.0  0.85921  0.76521  0.93800  1.0000
  C   C1529     1.0  0.84850  0.77544  0.94960  1.0000
  C   C1530     1.0  0.84625  0.80046  0.94940  1.0000
  H   H2437     1.0  0.87295  0.81694  0.91693  1.0000
  H   H2438     1.0  0.87639  0.77240  0.91716  1.0000
  H   H2439     1.0  0.84187  0.76395  0.95882  1.0000
  H   H2440     1.0  0.83784  0.80814  0.95845  1.0000
  H   H2441     1.0  0.76364  0.62204  0.73660  1.0000
  H   H2442     1.0  0.81272  0.52377  0.97992  1.0000
  H   H2443     1.0  0.72749  0.86066  0.82559  1.0000
  H   H2444     1.0  0.85126  0.71987  0.80144  1.0000
  H   H2445     1.0  0.81943  0.92779  0.93040  1.0000
  H   H2446     1.0  0.86749  0.94270  0.93781  1.0000
  C   C1531     1.0  0.92518  0.74316  0.94657  1.0000
  H   H2447     1.0  0.83409  0.74571  0.79242  1.0000
  H   H2448     1.0  0.81300  0.78055  0.80407  1.0000
  H   H2449     1.0  0.71341  0.82175  0.81315  1.0000
  H   H2450     1.0  0.73014  0.98749  0.76980  1.0000
  C   C1532     1.0  0.79674  0.60818  0.94225  1.0000
  C   C1533     1.0  0.80254  0.63139  0.94137  1.0000
  C   C1534     1.0  0.82474  0.63737  0.93386  1.0000
  C   C1535     1.0  0.84139  0.62004  0.92726  1.0000
  C   C1536     1.0  0.83565  0.59680  0.92820  1.0000
  C   C1537     1.0  0.81335  0.59097  0.93555  1.0000
  H   H2451     1.0  0.78984  0.64480  0.94658  1.0000
  H   H2452     1.0  0.82904  0.65527  0.93333  1.0000
  H   H2453     1.0  0.84841  0.58334  0.92307  1.0000
  H   H2454     1.0  0.80910  0.57313  0.93606  1.0000
  C   C1538     1.0  0.74682  0.97790  0.76478  1.0000
  H   H2455     1.0  0.73654  0.54562  0.81671  1.0000
  S   S636      1.0  0.73379  0.51852  0.74528  1.0000
  C   C1539     1.0  0.69220  0.64088  0.84310  1.0000
  C   C1540     1.0  0.68530  0.64693  0.83029  1.0000
  H   H2456     1.0  0.75759  0.93960  0.86130  1.0000
  H   H2457     1.0  0.70156  0.98613  0.86247  1.0000
  H   H2458     1.0  0.92624  0.72336  0.95057  1.0000
  H   H2459     1.0  0.69344  0.66044  0.82273  1.0000
  H   H2460     1.0  0.84809  0.55221  0.94822  1.0000
  H   H2461     1.0  0.72463  0.63589  0.75122  1.0000
  C   C1541     1.0  0.71513  0.52222  0.91385  1.0000
  C   C1542     1.0  0.69249  0.53054  0.92115  1.0000
  H   H2462     1.0  0.66222  0.64035  0.81738  1.0000
  C   C1543     1.0  0.74147  0.95250  0.86523  1.0000
  H   H2463     1.0  0.81575  0.78020  0.82132  1.0000
  H   H2464     1.0  0.75159  0.54505  0.83074  1.0000
  C   C1544     1.0  0.68638  0.94509  0.83561  1.0000
  C   C1545     1.0  0.69125  0.92978  0.84760  1.0000
  H   H2465     1.0  0.94047  0.73856  0.91311  1.0000
  H   H2466     1.0  0.84697  0.95633  0.95959  1.0000
  H   H2467     1.0  0.70272  0.91224  0.84720  1.0000
  H   H2468     1.0  0.93164  0.75173  0.95383  1.0000
  C   C1546     1.0  0.85206  0.95730  0.93796  1.0000
  C   C1547     1.0  0.84385  0.96867  0.92586  1.0000
  N   N151      1.0  0.85166  0.80693  0.88346  1.0000
  C   C1548     1.0  0.83879  0.83059  0.87746  1.0000
  C   C1549     1.0  0.87598  0.80992  0.88535  1.0000
  C   C1550     1.0  0.85440  0.78903  0.87428  1.0000
  C   C1551     1.0  0.83750  0.79825  0.89670  1.0000
  H   H2469     1.0  0.83721  0.84486  0.88384  1.0000
  H   H2470     1.0  0.82017  0.82929  0.87610  1.0000
  H   H2471     1.0  0.84879  0.83726  0.86734  1.0000
  H   H2472     1.0  0.88616  0.79255  0.89004  1.0000
  H   H2473     1.0  0.88718  0.81630  0.87551  1.0000
  H   H2474     1.0  0.87463  0.82383  0.89192  1.0000
  H   H2475     1.0  0.86432  0.77102  0.87840  1.0000
  H   H2476     1.0  0.86472  0.79513  0.86413  1.0000
  H   H2477     1.0  0.83640  0.78598  0.87278  1.0000
  H   H2478     1.0  0.83547  0.81111  0.90397  1.0000
  H   H2479     1.0  0.84640  0.78015  0.90136  1.0000
  H   H2480     1.0  0.81893  0.79616  0.89564  1.0000
  N   N152      1.0  0.81030  0.64530  0.89110  1.0000
  C   C1552     1.0  0.82474  0.62060  0.89120  1.0000
  C   C1553     1.0  0.78983  0.64498  0.90257  1.0000
  C   C1554     1.0  0.80074  0.65331  0.87820  1.0000
  C   C1555     1.0  0.82600  0.66227  0.89246  1.0000
  H   H2481     1.0  0.81337  0.60714  0.89055  1.0000
  H   H2482     1.0  0.83283  0.61432  0.90062  1.0000
  H   H2483     1.0  0.84010  0.62013  0.88253  1.0000
  H   H2484     1.0  0.77746  0.63250  0.90186  1.0000
  H   H2485     1.0  0.79644  0.63869  0.91245  1.0000
  H   H2486     1.0  0.77878  0.66342  0.90293  1.0000
  H   H2487     1.0  0.79036  0.67218  0.87757  1.0000
  H   H2488     1.0  0.78835  0.64125  0.87696  1.0000
  H   H2489     1.0  0.81571  0.65311  0.86934  1.0000
  H   H2490     1.0  0.81609  0.68133  0.89189  1.0000
  H   H2491     1.0  0.84223  0.66214  0.88434  1.0000
  H   H2492     1.0  0.83280  0.65721  0.90230  1.0000
  N   N153      1.0  0.83283  0.74734  0.81342  1.0000
  C   C1556     1.0  0.81093  0.73572  0.81784  1.0000
  C   C1557     1.0  0.84888  0.73940  0.82379  1.0000
  C   C1558     1.0  0.82552  0.77408  0.81165  1.0000
  C   C1559     1.0  0.84583  0.74002  0.80042  1.0000
  H   H2493     1.0  0.94355  0.78366  0.93441  1.0000
  H   H2494     1.0  0.81579  0.71559  0.81954  1.0000
  H   H2495     1.0  0.86550  0.74802  0.82090  1.0000
  H   H2496     1.0  0.83938  0.74415  0.83381  1.0000
  H   H2497     1.0  0.85484  0.71929  0.82526  1.0000
  H   H2498     1.0  0.84151  0.78358  0.80814  1.0000
  H   H2499     1.0  0.66743  0.50042  0.80422  1.0000
  H   H2500     1.0  0.76180  0.91019  0.95058  1.0000
  H   H2501     1.0  0.77929  0.89703  0.93626  1.0000
  H   H2502     1.0  0.73391  0.51161  0.89482  1.0000
  C   C1560     1.0  0.84050  0.96512  0.95026  1.0000
  N   N154      1.0  0.67641  0.51270  0.78278  1.0000
  S   S637      1.0  0.74623  0.49782  0.95969  1.0000
  C   C1561     1.0  0.83057  0.52773  0.98102  1.0000
  H   H2503     1.0  0.69654  0.58856  0.82265  1.0000
  C   C1562     1.0  0.97369  0.68236  0.91535  1.0000
  H   H2504     1.0  0.69656  0.51887  0.88435  1.0000
  H   H2505     1.0  0.75885  0.57833  0.80283  1.0000
  C   C1563     1.0  0.73565  0.55415  0.82578  1.0000
  C   C1564     1.0  0.93689  0.77391  0.92776  1.0000
  H   H2506     1.0  0.80031  0.74114  0.82748  1.0000
  H   H2507     1.0  0.81896  0.57603  0.98033  1.0000
  H   H2508     1.0  0.97310  0.74632  0.93988  1.0000
  C   C1565     1.0  0.71371  0.59187  0.81566  1.0000
  H   H2509     1.0  0.71892  0.55003  0.83298  1.0000
  H   H2510     1.0  0.81479  0.92631  0.96111  1.0000
  H   H2511     1.0  0.78245  0.92741  0.96495  1.0000
  H   H2512     1.0  0.70961  0.61830  0.74372  1.0000
  C   C1566     1.0  0.66782  0.49486  0.74391  1.0000
  C   C1567     1.0  0.66488  0.52906  0.77183  1.0000
  H   H2513     1.0  0.80314  0.56746  0.96890  1.0000
  C   C1568     1.0  0.67335  0.84178  0.82853  1.0000
  C   C1569     1.0  0.75428  0.98460  0.75083  1.0000
  C   C1570     1.0  0.82051  0.98410  0.95053  1.0000
  C   C1571     1.0  0.79820  0.92792  0.95653  1.0000
  H   H2514     1.0  0.79552  0.94626  0.95020  1.0000
  H   H2515     1.0  0.72218  0.96710  0.84238  1.0000
  H   H2516     1.0  0.80530  0.86938  0.95139  1.0000
  H   H2517     1.0  0.72507  0.94441  0.86551  1.0000
  C   C1572     1.0  0.84096  0.53874  0.95679  1.0000
  N   N155      1.0  0.69420  0.85371  0.82133  1.0000
  Fe  Fe320     1.0  0.73720  0.55740  0.74487  1.0000
  H   H2518     1.0  0.67651  0.88971  0.82480  1.0000
  H   H2519     1.0  0.94731  0.77784  0.91736  1.0000
  H   H2520     1.0  0.91085  0.74198  0.92340  1.0000
  N   N156      1.0  0.73533  0.58067  0.82204  1.0000
  H   H2521     1.0  0.71273  0.61193  0.81278  1.0000
  H   H2522     1.0  0.91751  0.78213  0.92738  1.0000
  H   H2523     1.0  0.82740  0.58452  0.96236  1.0000
  N   N157      1.0  0.74028  0.97678  0.85670  1.0000
  H   H2524     1.0  0.86993  0.56511  0.96338  1.0000
  N   N158      1.0  0.93952  0.74746  0.93282  1.0000
  C   C1573     1.0  0.67136  0.53439  0.91524  1.0000
  H   H2525     1.0  0.96802  0.71750  0.93729  1.0000
  H   H2526     1.0  0.96796  0.91667  0.89666  1.0000
  H   H2527     1.0  0.75019  0.58324  0.83948  1.0000
  C   C1574     1.0  0.97593  0.69820  0.90300  1.0000
  C   C1575     1.0  0.75763  0.58547  0.81242  1.0000
  H   H2528     1.0  0.83880  0.90804  0.94136  1.0000
  H   H2529     1.0  0.93263  0.71534  0.92707  1.0000
  H   H2530     1.0  0.78900  0.88276  0.96587  1.0000
  C   C1576     1.0  0.71142  0.85209  0.83072  1.0000
  H   H2531     1.0  0.67943  0.82223  0.83243  1.0000
  C   C1577     1.0  0.71517  0.63644  0.74256  1.0000
  C   C1578     1.0  0.73422  0.59121  0.83434  1.0000
  N   N159      1.0  0.80047  0.90846  0.94841  1.0000
  C   C1579     1.0  0.80413  0.88446  0.95715  1.0000
  H   H2532     1.0  0.71752  0.58811  0.84180  1.0000
  S   S638      1.0  0.96227  0.87179  0.91582  1.0000
  H   H2533     1.0  0.69401  0.54043  0.78650  1.0000
  H   H2534     1.0  0.84355  0.51024  0.98104  1.0000
  H   H2535     1.0  0.75812  0.60536  0.80963  1.0000
  H   H2536     1.0  0.77434  0.57700  0.81680  1.0000
  C   C1580     1.0  0.77808  0.91136  0.94254  1.0000
  C   C1581     1.0  0.82152  0.91006  0.93736  1.0000
  H   H2537     1.0  0.77490  0.92934  0.93588  1.0000
  H   H2538     1.0  0.82382  0.89540  0.93118  1.0000
  H   H2539     1.0  0.73393  0.61123  0.83188  1.0000
  C   C1582     1.0  0.66761  0.63561  0.82729  1.0000
  H   H2540     1.0  0.67212  0.88159  0.80935  1.0000
  H   H2541     1.0  0.85322  0.52092  0.95629  1.0000
  H   H2542     1.0  0.82292  0.53634  0.95505  1.0000
  H   H2543     1.0  0.67741  0.52960  0.76193  1.0000
  H   H2544     1.0  0.86227  0.55681  0.98144  1.0000
  C   C1583     1.0  0.68136  0.62354  0.85289  1.0000
  C   C1584     1.0  0.68543  0.87957  0.81633  1.0000
  C   C1585     1.0  0.98409  0.89140  0.91236  1.0000
  H   H2545     1.0  0.69121  0.53375  0.93139  1.0000
  C   C1586     1.0  0.69845  0.52155  0.78415  1.0000
  C   C1587     1.0  0.68074  0.93694  0.86016  1.0000
  C   C1588     1.0  0.66425  0.61166  0.84976  1.0000
  H   H2546     1.0  0.99057  0.66504  0.93277  1.0000
  S   S639      1.0  0.72634  0.57410  0.76419  1.0000
  C   C1589     1.0  0.96546  0.73735  0.93328  1.0000
  C   C1590     1.0  0.93051  0.73535  0.92368  1.0000
  H   H2547     1.0  0.70285  0.86147  0.83952  1.0000
  H   H2548     1.0  0.70759  0.50974  0.79237  1.0000
  H   H2549     1.0  0.68666  0.61882  0.86282  1.0000
  N   N160      1.0  0.83899  0.54674  0.96996  1.0000
  H   H2550     1.0  0.69426  0.84230  0.80238  1.0000
  H   H2551     1.0  0.69830  0.65017  0.74363  1.0000
  H   H2552     1.0  0.66743  0.97952  0.82695  1.0000
  C   C1591     1.0  0.70662  0.84135  0.80974  1.0000
  H   H2553     1.0  0.90555  0.75083  0.94660  1.0000
  C   C1592     1.0  0.82140  0.56966  0.97043  1.0000
  H   H2554     1.0  0.74284  0.95339  0.87585  1.0000
  C   C1593     1.0  0.67266  0.53025  0.90194  1.0000
  C   C1594     1.0  0.73865  0.97460  0.84271  1.0000
  H   H2555     1.0  0.71850  0.83283  0.83470  1.0000
  C   C1595     1.0  0.98317  0.91172  0.90213  1.0000
  C   C1596     1.0  0.86308  0.55081  0.97157  1.0000
  C   C1597     1.0  0.76243  0.98680  0.85664  1.0000
  H   H2556     1.0  0.70066  0.88903  0.81064  1.0000
  C   C1598     1.0  0.99220  0.67764  0.92333  1.0000
  H   H2557     1.0  0.77916  0.97483  0.85252  1.0000
  H   H2558     1.0  0.87679  0.53388  0.97119  1.0000
  S   S640      1.0  0.66162  0.53992  0.85272  1.0000
  H   H2559     1.0  0.74874  0.66583  0.73683  1.0000
  C   C1599     1.0  0.82412  0.98789  0.92614  1.0000
  C   C1600     1.0  0.66138  0.97518  0.84878  1.0000
  H   H2560     1.0  0.76434  0.98857  0.86704  1.0000
