data_image0
_chemical_formula_structural       N2HSHCH3C6H6CH4CH2NC4HCSH3NS2HFeS2FeHSFeSCS2FeS2HFeS2HCH5CHCHCNCHC2H4C6H5CHCH2CFe2CHC2SH8CH2CH2CH2CH5FeHCHCH3SCHC6H5SH3S2H4C2H2CH2NH4NCHCH3CHFe2HSFeS2FeS3HSHCSFeSFeSH3NH5C6H4CH3CHC2HC2SC2HC2HC3HC2HCFeH7SHCH5C4H2CS2Fe2SC2H3C4HCH2S2C2HSH2CH2S3FeCSC2H4SHNHCFeHFeH2C3H3FeC3H2SH2FeCHSHCFeCHCHC2H3NH2CH2SHCH2CH3C2NC3H5SCH4SCH5SHCH3SFeS2FeSFeC2S2H3CH2NCH4C2HSHSHSCH5CHC3H5SHCFe2H2C5SH2C2NC2SFeH4FeH2CNFeSC2H2CH5SHSH2CHC2HC3HCHC3NHCH3CNH6FeH3CSH2SFeHCH2NH2CFeC2HCH3NCH2C3HCSH2C3H5SC2HCH2SH5FeSCSFeHFeHSC2H2C2SC3H5C2H2SHFeCS3FeHSCFeH2CH2CSH4CH3CH2C4NC2HCH2CNSCH2SH2C2H6CFeHFeCH2CSC2H3CH3FeSH2SCSCSCHSHCHSCFeH3SCFe2NSFeC2H2SC2HC2H5CHNCHSHSH6CH3C2H3C3HCH2NC2H2NHC2H2SHCH3SCSH2CFe2HC2HNSHSHCH3CFeHCHC2H2FeH2SCH3CH2C6H5CH2SHSH2FeCFeS2FeS2FeS3FeSFeSHNHSH6C2H3C2HSCHSC6H5C2H3CHCHC3NHC3FeCH2CH4SH5C2HNCH4SHCHCH2C2H4CH2C3H2CHCHNH2CH4CNHFeS2FeS3FeS2HFeHS2H4SC3HC8H4NH3CH2CH3C2H2CFe2CH4CSC2H2NH3S2C2HCH2C2HSH2CH3CH2CFeSCSFeSFeSH3SHSFeCFeSNCH4SHCNC6H5CH2CH2S2HCHCHCH2SH3C2H3CHFeC2H3C2H2CHC2HCHCH3CSNFeC2SH6C8H5CH3SCNH2SHCH5CH6CNHFeSFeSCFeSFeSCSCSH2CFeSC2HC6H4CH3CHC3H3C2H4CHCH2CSNH3CH4CHC2HCHNHFeCHFeHCH2CH2SH2CFeSHSCSC6H4CHCHS2H2SH2SFeHNCSH4NH7CFeCHSCSCHCH2CSH2C3SHCH2CSHCFeCSHCFeHSFeH2FeC2S2H5CH2S2C3H2FeSC2FeHS2HCFeH2CH3CH3NCH4CH2CHSHCHNHCHC2H2S2FeHCH2NCHCH2CHFeCH4C2HCH2C3H6CHNC3HC2H3CH2SFeCS2HFeCS2FeSFeH4NCHCHCHCHCH6SC2SCH4C2H4NC2HCH2CHC2H2CH2SHSCFeSFeSH4C2HC2H3C2NHC3HSCH5CNH4CHSH2SHSHC2HCHSCSH2CHC3HNH6C2H2C3HFeCH2CH2CFeSFeSCFeCS2CHSH2C2SH2NH4CS2FeHCH2CHCHC2H4FeS2HFeH2CH4CHCHCHSC5HFeH2NH2SCH3SH4CH3SCH2SH2CHFeC3HC2H3C3H2CH6CH2FeHFeSCFeS2HS2C3FeH3CSH2NC2H2C2HSH2NCHCNH8CH5FeSH3FeCHC4HCSH5CS2C5NH2CH3CH6S3FeSHCSFeS2HFeSHC3H2SC2H2FeH2C6H5CH3C2H2NHSHNH2CHCH2CNSHCH3SC2HCH3FeC2HCH4FeHSC2SNC6H4CH2FeHFeNH2SHC2H2CHSHCHCH2CH3C2H5CHFeHSFeS2FeSHS2FeSFeSHSH2CH2C4HC6FeH2CHSHCH5C2SC2HNC3H9SFeHCH2CH3SFeHSCSC6H4CH2FeHCNCSH2NC2H3CH4SH3CSH2CH3SC
_chemical_formula_sum              "N64 H1024 S256 C640 Fe128"
_cell_length_a       51.4234
_cell_length_b       51.7838
_cell_length_c       41.9434
_cell_angle_alpha    89.2639
_cell_angle_beta     89.353
_cell_angle_gamma    86.7827

_space_group_name_H-M_alt    "P 1"
_space_group_IT_number       1

loop_
  _space_group_symop_operation_xyz
  'x, y, z'

loop_
  _atom_site_type_symbol
  _atom_site_label
  _atom_site_symmetry_multiplicity
  _atom_site_fract_x
  _atom_site_fract_y
  _atom_site_fract_z
  _atom_site_occupancy
  N   N1        1.0  0.32270  0.25664  0.32497  1.0000
  N   N2        1.0  0.33071  0.11490  0.53013  1.0000
  H   H1        1.0  0.33553  0.22582  0.29362  1.0000
  S   S1        1.0  0.21299  0.26869  0.45095  1.0000
  H   H2        1.0  0.46942  0.26842  0.09541  1.0000
  C   C1        1.0  0.30637  0.06460  0.45406  1.0000
  H   H3        1.0  0.34545  0.14662  0.50332  1.0000
  H   H4        1.0  0.12711  0.24541  0.40089  1.0000
  H   H5        1.0  0.10571  0.23035  0.42822  1.0000
  C   C2        1.0  0.26309  0.21399  0.38860  1.0000
  C   C3        1.0  0.24354  0.23016  0.37456  1.0000
  C   C4        1.0  0.22843  0.24767  0.39337  1.0000
  C   C5        1.0  0.23236  0.24831  0.42631  1.0000
  C   C6        1.0  0.25156  0.23182  0.44029  1.0000
  C   C7        1.0  0.26715  0.21498  0.42142  1.0000
  H   H6        1.0  0.24043  0.22947  0.34912  1.0000
  H   H7        1.0  0.21369  0.26050  0.38244  1.0000
  H   H8        1.0  0.25454  0.23214  0.46575  1.0000
  H   H9        1.0  0.15271  0.26056  0.44573  1.0000
  H   H10       1.0  0.16527  0.23852  0.47550  1.0000
  H   H11       1.0  0.15824  0.19175  0.47077  1.0000
  C   C8        1.0  0.37370  0.17983  0.53675  1.0000
  H   H12       1.0  0.13993  0.18034  0.43806  1.0000
  H   H13       1.0  0.12194  0.21156  0.39723  1.0000
  H   H14       1.0  0.18802  0.21338  0.43292  1.0000
  H   H15       1.0  0.13060  0.24623  0.47289  1.0000
  C   C9        1.0  0.41146  0.26703  0.06669  1.0000
  H   H16       1.0  0.17470  0.23520  0.40323  1.0000
  H   H17       1.0  0.12369  0.19907  0.46897  1.0000
  N   N3        1.0  0.14646  0.22097  0.43624  1.0000
  C   C10       1.0  0.17082  0.21745  0.41733  1.0000
  C   C11       1.0  0.14883  0.24240  0.45873  1.0000
  C   C12       1.0  0.14186  0.19694  0.45431  1.0000
  C   C13       1.0  0.12437  0.22721  0.41468  1.0000
  H   H18       1.0  0.17002  0.20124  0.40027  1.0000
  C   C14       1.0  0.33629  0.08670  0.53367  1.0000
  S   S2        1.0  0.28327  0.19337  0.36511  1.0000
  H   H19       1.0  0.28218  0.20261  0.43243  1.0000
  H   H20       1.0  0.49253  0.24189  0.08816  1.0000
  H   H21       1.0  0.30825  0.24762  0.37186  1.0000
  N   N4        1.0  0.49957  0.27666  0.06156  1.0000
  S   S3        1.0  0.15910  0.29127  0.38610  1.0000
  S   S4        1.0  0.09228  0.28888  0.43248  1.0000
  H   H22       1.0  0.23081  0.26602  0.54027  1.0000
  Fe  Fe1       1.0  0.37601  0.19169  0.39604  1.0000
  S   S5        1.0  0.35432  0.16124  0.37189  1.0000
  S   S6        1.0  0.40703  0.21457  0.37214  1.0000
  Fe  Fe2       1.0  0.34389  0.18803  0.45771  1.0000
  H   H23       1.0  0.35026  0.11596  0.48452  1.0000
  S   S7        1.0  0.33237  0.20507  0.50542  1.0000
  Fe  Fe3       1.0  0.35735  0.14008  0.41889  1.0000
  S   S8        1.0  0.37120  0.09805  0.42202  1.0000
  C   C15       1.0  0.34999  0.12568  0.50800  1.0000
  S   S9        1.0  0.38203  0.16905  0.44177  1.0000
  S   S10       1.0  0.34016  0.21346  0.41423  1.0000
  Fe  Fe4       1.0  0.41856  0.26689  0.20154  1.0000
  S   S11       1.0  0.45493  0.28085  0.22279  1.0000
  S   S12       1.0  0.39419  0.23675  0.22429  1.0000
  H   H24       1.0  0.53128  0.29939  0.07550  1.0000
  Fe  Fe5       1.0  0.47194  0.27589  0.17363  1.0000
  S   S13       1.0  0.50891  0.25305  0.16051  1.0000
  S   S14       1.0  0.43659  0.25895  0.15349  1.0000
  H   H25       1.0  0.30263  0.22416  0.30807  1.0000
  C   C16       1.0  0.53813  0.26627  0.17174  1.0000
  H   H26       1.0  0.52960  0.26899  0.09630  1.0000
  H   H27       1.0  0.47152  0.22346  0.19714  1.0000
  H   H28       1.0  0.50296  0.24243  0.23315  1.0000
  H   H29       1.0  0.29570  0.27032  0.28894  1.0000
  H   H30       1.0  0.32930  0.21581  0.33398  1.0000
  C   C17       1.0  0.46448  0.21223  0.21800  1.0000
  H   H31       1.0  0.50689  0.29523  0.10594  1.0000
  C   C18       1.0  0.31543  0.27404  0.29790  1.0000
  H   H32       1.0  0.27170  0.25866  0.50889  1.0000
  C   C19       1.0  0.49564  0.23013  0.25298  1.0000
  N   N5        1.0  0.48563  0.20595  0.24085  1.0000
  C   C20       1.0  0.32306  0.08256  0.44092  1.0000
  H   H33       1.0  0.37009  0.12349  0.51762  1.0000
  C   C21       1.0  0.34907  0.26205  0.33585  1.0000
  C   C22       1.0  0.35030  0.19490  0.53924  1.0000
  H   H34       1.0  0.26114  0.30151  0.53220  1.0000
  H   H35       1.0  0.45901  0.20163  0.28030  1.0000
  H   H36       1.0  0.38229  0.17586  0.51357  1.0000
  H   H37       1.0  0.50008  0.17260  0.21469  1.0000
  C   C23       1.0  0.40460  0.21960  0.33073  1.0000
  C   C24       1.0  0.41753  0.23987  0.31625  1.0000
  C   C25       1.0  0.41449  0.24532  0.28357  1.0000
  C   C26       1.0  0.39895  0.23016  0.26509  1.0000
  C   C27       1.0  0.38666  0.20945  0.27938  1.0000
  C   C28       1.0  0.38930  0.20431  0.31214  1.0000
  H   H38       1.0  0.42926  0.25189  0.33058  1.0000
  H   H39       1.0  0.42363  0.26165  0.27300  1.0000
  H   H40       1.0  0.37481  0.19749  0.26513  1.0000
  H   H41       1.0  0.37959  0.18842  0.32291  1.0000
  H   H42       1.0  0.44827  0.22396  0.22935  1.0000
  C   C29       1.0  0.06374  0.30211  0.41455  1.0000
  H   H43       1.0  0.31526  0.10128  0.43282  1.0000
  C   C30       1.0  0.50696  0.19085  0.22451  1.0000
  H   H44       1.0  0.46768  0.17230  0.25954  1.0000
  H   H45       1.0  0.36368  0.25950  0.31621  1.0000
  C   C31       1.0  0.34971  0.07605  0.43792  1.0000
  Fe  Fe6       1.0  0.31877  0.18137  0.39349  1.0000
  Fe  Fe7       1.0  0.42408  0.29981  0.14121  1.0000
  C   C32       1.0  0.30427  0.12004  0.51718  1.0000
  H   H46       1.0  0.29956  0.14122  0.51421  1.0000
  C   C33       1.0  0.30377  0.26095  0.35140  1.0000
  C   C34       1.0  0.32255  0.22946  0.31464  1.0000
  S   S15       1.0  0.31949  0.15731  0.43835  1.0000
  H   H47       1.0  0.51508  0.20210  0.20418  1.0000
  H   H48       1.0  0.46828  0.25095  0.05881  1.0000
  H   H49       1.0  0.28064  0.23141  0.53423  1.0000
  H   H50       1.0  0.28572  0.06964  0.45641  1.0000
  H   H51       1.0  0.49067  0.18580  0.28577  1.0000
  H   H52       1.0  0.48020  0.24178  0.26608  1.0000
  H   H53       1.0  0.52329  0.18564  0.24100  1.0000
  H   H54       1.0  0.40780  0.25903  0.09014  1.0000
  C   C35       1.0  0.47536  0.19071  0.26779  1.0000
  H   H55       1.0  0.33553  0.07684  0.51030  1.0000
  H   H56       1.0  0.30244  0.11118  0.49336  1.0000
  C   C36       1.0  0.28157  0.25277  0.53155  1.0000
  H   H57       1.0  0.52005  0.29377  0.20442  1.0000
  H   H58       1.0  0.51205  0.22612  0.26972  1.0000
  C   C37       1.0  0.41262  0.29377  0.06239  1.0000
  H   H59       1.0  0.32945  0.27135  0.27758  1.0000
  H   H60       1.0  0.30255  0.25673  0.52871  1.0000
  C   C38       1.0  0.53819  0.28607  0.19407  1.0000
  H   H61       1.0  0.45607  0.19450  0.20873  1.0000
  H   H62       1.0  0.31521  0.29474  0.30487  1.0000
  H   H63       1.0  0.28363  0.25738  0.34380  1.0000
  H   H64       1.0  0.35557  0.24878  0.35571  1.0000
  H   H65       1.0  0.28916  0.11208  0.53312  1.0000
  Fe  Fe8       1.0  0.18629  0.29806  0.42622  1.0000
  H   H66       1.0  0.35609  0.08226  0.54343  1.0000
  C   C39       1.0  0.48167  0.25865  0.07660  1.0000
  H   H67       1.0  0.34988  0.28221  0.34449  1.0000
  C   C40       1.0  0.51764  0.28551  0.08579  1.0000
  H   H68       1.0  0.30366  0.28109  0.36034  1.0000
  H   H69       1.0  0.32188  0.07775  0.54976  1.0000
  H   H70       1.0  0.27538  0.26867  0.60981  1.0000
  S   S16       1.0  0.18272  0.27025  0.73394  1.0000
  C   C41       1.0  0.28344  0.25823  0.58854  1.0000
  H   H71       1.0  0.38335  0.29446  0.95214  1.0000
  C   C42       1.0  0.25363  0.23411  0.68173  1.0000
  C   C43       1.0  0.23546  0.25042  0.66562  1.0000
  C   C44       1.0  0.21325  0.26063  0.68148  1.0000
  C   C45       1.0  0.20898  0.25465  0.71361  1.0000
  C   C46       1.0  0.22678  0.23780  0.72971  1.0000
  C   C47       1.0  0.24923  0.22761  0.71379  1.0000
  H   H72       1.0  0.23853  0.25529  0.64081  1.0000
  H   H73       1.0  0.19940  0.27320  0.66869  1.0000
  H   H74       1.0  0.22346  0.23306  0.75457  1.0000
  H   H75       1.0  0.26317  0.21499  0.72634  1.0000
  H   H76       1.0  0.36658  0.06556  0.78892  1.0000
  S   S17       1.0  0.28189  0.22312  0.66114  1.0000
  H   H77       1.0  0.35530  0.14116  0.82912  1.0000
  H   H78       1.0  0.50145  0.25622  0.01713  1.0000
  H   H79       1.0  0.31833  0.11934  0.57911  1.0000
  S   S18       1.0  0.30524  0.17449  0.73339  1.0000
  S   S19       1.0  0.29992  0.10086  0.71477  1.0000
  H   H80       1.0  0.52116  0.25916  0.85672  1.0000
  H   H81       1.0  0.47104  0.29315  0.02917  1.0000
  H   H82       1.0  0.28190  0.23717  0.59345  1.0000
  H   H83       1.0  0.29818  0.12638  0.78126  1.0000
  C   C48       1.0  0.33984  0.20067  0.56943  1.0000
  C   C49       1.0  0.31356  0.12238  0.85993  1.0000
  H   H84       1.0  0.34903  0.10944  0.81518  1.0000
  H   H85       1.0  0.42417  0.29575  0.98245  1.0000
  C   C50       1.0  0.50871  0.21566  0.82902  1.0000
  H   H86       1.0  0.33091  0.05863  0.63761  1.0000
  H   H87       1.0  0.29116  0.27964  0.77508  1.0000
  N   N6        1.0  0.26950  0.26649  0.55917  1.0000
  H   H88       1.0  0.41350  0.22992  0.04355  1.0000
  H   H89       1.0  0.34315  0.13738  0.78985  1.0000
  H   H90       1.0  0.23987  0.23923  0.56641  1.0000
  H   H91       1.0  0.32192  0.21246  0.57159  1.0000
  N   N7        1.0  0.52856  0.23334  0.81776  1.0000
  C   C51       1.0  0.55449  0.22395  0.82940  1.0000
  H   H92       1.0  0.51260  0.19580  0.81967  1.0000
  C   C52       1.0  0.34171  0.13005  0.81484  1.0000
  H   H93       1.0  0.30250  0.09813  0.80626  1.0000
  H   H94       1.0  0.28620  0.16419  0.83712  1.0000
  H   H95       1.0  0.48881  0.22254  0.82128  1.0000
  C   C53       1.0  0.30635  0.16095  0.82754  1.0000
  H   H96       1.0  0.30678  0.16959  0.80313  1.0000
  Fe  Fe9       1.0  0.30922  0.19427  0.68595  1.0000
  Fe  Fe10      1.0  0.45583  0.27333  0.86891  1.0000
  H   H97       1.0  0.52637  0.24619  0.04506  1.0000
  S   S20       1.0  0.44897  0.26448  0.81729  1.0000
  Fe  Fe11      1.0  0.44610  0.26132  0.93889  1.0000
  S   S21       1.0  0.47574  0.28808  0.95505  1.0000
  S   S22       1.0  0.42459  0.24047  0.97726  1.0000
  Fe  Fe12      1.0  0.50059  0.27205  0.91516  1.0000
  S   S23       1.0  0.54177  0.25697  0.92456  1.0000
  S   S24       1.0  0.42645  0.28936  0.90455  1.0000
  S   S25       1.0  0.47245  0.24251  0.90202  1.0000
  H   H98       1.0  0.31958  0.17217  0.84221  1.0000
  S   S26       1.0  0.36175  0.14336  0.71667  1.0000
  H   H99       1.0  0.50936  0.24155  0.77327  1.0000
  C   C54       1.0  0.51456  0.26327  0.03574  1.0000
  S   S27       1.0  0.35068  0.20411  0.69309  1.0000
  Fe  Fe13      1.0  0.36025  0.16563  0.67030  1.0000
  S   S28       1.0  0.38752  0.15845  0.62867  1.0000
  Fe  Fe14      1.0  0.34782  0.18112  0.73877  1.0000
  S   S29       1.0  0.35794  0.19066  0.78940  1.0000
  H   H100      1.0  0.29345  0.12436  0.87002  1.0000
  H   H101      1.0  0.35217  0.12465  0.57174  1.0000
  H   H102      1.0  0.36372  0.29657  0.98762  1.0000
  N   N8        1.0  0.31469  0.13316  0.82718  1.0000
  H   H103      1.0  0.52812  0.27634  0.02359  1.0000
  H   H104      1.0  0.25437  0.28785  0.71762  1.0000
  H   H105      1.0  0.27654  0.12181  0.81444  1.0000
  H   H106      1.0  0.31981  0.10142  0.86044  1.0000
  H   H107      1.0  0.32756  0.14849  0.55976  1.0000
  C   C55       1.0  0.42362  0.24402  0.80968  1.0000
  C   C56       1.0  0.41779  0.23808  0.77809  1.0000
  C   C57       1.0  0.39767  0.22170  0.77150  1.0000
  C   C58       1.0  0.38335  0.21119  0.79655  1.0000
  C   C59       1.0  0.38925  0.21707  0.82813  1.0000
  C   C60       1.0  0.40934  0.23344  0.83471  1.0000
  H   H108      1.0  0.42878  0.24625  0.75865  1.0000
  H   H109      1.0  0.39325  0.21725  0.74709  1.0000
  H   H110      1.0  0.37826  0.20896  0.84759  1.0000
  H   H111      1.0  0.41377  0.23788  0.85912  1.0000
  C   C61       1.0  0.41930  0.26092  0.00993  1.0000
  H   H112      1.0  0.26689  0.28807  0.80500  1.0000
  H   H113      1.0  0.35615  0.08665  0.69161  1.0000
  H   H114      1.0  0.25894  0.26830  0.77196  1.0000
  C   C62       1.0  0.41449  0.25061  0.04033  1.0000
  H   H115      1.0  0.30455  0.26181  0.58684  1.0000
  C   C63       1.0  0.37452  0.17420  0.59449  1.0000
  C   C64       1.0  0.35192  0.19041  0.59694  1.0000
  H   H116      1.0  0.32660  0.13244  0.87613  1.0000
  C   C65       1.0  0.33226  0.12729  0.56157  1.0000
  C   C66       1.0  0.38572  0.16936  0.56436  1.0000
  S   S30       1.0  0.31901  0.15726  0.66042  1.0000
  C   C67       1.0  0.29721  0.11928  0.80644  1.0000
  C   C68       1.0  0.27012  0.28512  0.77898  1.0000
  H   H117      1.0  0.23208  0.27070  0.58254  1.0000
  C   C69       1.0  0.52220  0.25948  0.83023  1.0000
  C   C70       1.0  0.24185  0.26029  0.56219  1.0000
  H   H118      1.0  0.34615  0.10003  0.75411  1.0000
  C   C71       1.0  0.27109  0.29470  0.55446  1.0000
  C   C72       1.0  0.42045  0.28765  0.00581  1.0000
  C   C73       1.0  0.33719  0.08181  0.75688  1.0000
  H   H119      1.0  0.34347  0.19487  0.62006  1.0000
  C   C74       1.0  0.34869  0.06234  0.77660  1.0000
  C   C75       1.0  0.52876  0.23445  0.78254  1.0000
  H   H120      1.0  0.53348  0.21505  0.77220  1.0000
  C   C76       1.0  0.31436  0.07740  0.74047  1.0000
  Fe  Fe15      1.0  0.31943  0.13834  0.70854  1.0000
  H   H121      1.0  0.54342  0.24779  0.77330  1.0000
  H   H122      1.0  0.29167  0.30021  0.55281  1.0000
  H   H123      1.0  0.34899  0.29101  0.94976  1.0000
  H   H124      1.0  0.36379  0.09051  0.65016  1.0000
  H   H125      1.0  0.54521  0.30049  0.88064  1.0000
  H   H126      1.0  0.09212  0.30487  0.67903  1.0000
  H   H127      1.0  0.40344  0.15718  0.56236  1.0000
  S   S31       1.0  0.48582  0.30201  0.87962  1.0000
  H   H128      1.0  0.53705  0.27328  0.82287  1.0000
  C   C77       1.0  0.26634  0.30365  0.72605  1.0000
  H   H129      1.0  0.50307  0.26754  0.82142  1.0000
  H   H130      1.0  0.28709  0.29781  0.72079  1.0000
  H   H131      1.0  0.55469  0.22264  0.85595  1.0000
  H   H132      1.0  0.50823  0.21420  0.85553  1.0000
  H   H133      1.0  0.38924  0.08188  0.67792  1.0000
  C   C78       1.0  0.36866  0.07868  0.67184  1.0000
  C   C79       1.0  0.41685  0.30406  0.03193  1.0000
  C   C80       1.0  0.36412  0.30181  0.96178  1.0000
  C   C81       1.0  0.48431  0.29918  0.04810  1.0000
  H   H134      1.0  0.22184  0.29885  0.75966  1.0000
  H   H135      1.0  0.26149  0.30565  0.57454  1.0000
  C   C82       1.0  0.24591  0.35710  0.30882  1.0000
  S   S32       1.0  0.13289  0.34993  0.40123  1.0000
  S   S33       1.0  0.19678  0.33742  0.40910  1.0000
  Fe  Fe16      1.0  0.16294  0.35187  0.43925  1.0000
  Fe  Fe17      1.0  0.16630  0.33239  0.37199  1.0000
  S   S34       1.0  0.16877  0.34674  0.32115  1.0000
  C   C83       1.0  0.42033  0.38685  0.18583  1.0000
  C   C84       1.0  0.24624  0.37392  0.28231  1.0000
  H   H136      1.0  0.36268  0.31576  0.13711  1.0000
  H   H137      1.0  0.25922  0.53063  0.17276  1.0000
  H   H138      1.0  0.13401  0.34497  0.52975  1.0000
  C   C85       1.0  0.18033  0.36912  0.50827  1.0000
  C   C86       1.0  0.19881  0.35661  0.30630  1.0000
  C   C87       1.0  0.19488  0.34564  0.50531  1.0000
  C   C88       1.0  0.24654  0.54183  0.15550  1.0000
  H   H139      1.0  0.19965  0.33799  0.48201  1.0000
  C   C89       1.0  0.19916  0.37325  0.27967  1.0000
  H   H140      1.0  0.26403  0.35071  0.32004  1.0000
  H   H141      1.0  0.23601  0.41743  0.36767  1.0000
  S   S35       1.0  0.16612  0.38385  0.47426  1.0000
  S   S36       1.0  0.15483  0.31310  0.45924  1.0000
  C   C90       1.0  0.22224  0.34852  0.32088  1.0000
  C   C91       1.0  0.17517  0.37930  0.53861  1.0000
  H   H142      1.0  0.22215  0.33547  0.34120  1.0000
  S   S37       1.0  0.27624  0.38447  0.26817  1.0000
  H   H143      1.0  0.18107  0.37941  0.26818  1.0000
  H   H144      1.0  0.43821  0.38012  0.17397  1.0000
  C   C92       1.0  0.22280  0.38204  0.26780  1.0000
  H   H145      1.0  0.32377  0.36529  0.09040  1.0000
  H   H146      1.0  0.20680  0.45700  0.37133  1.0000
  S   S38       1.0  0.23921  0.43460  0.11817  1.0000
  S   S39       1.0  0.28957  0.46835  0.16580  1.0000
  S   S40       1.0  0.29065  0.40539  0.17960  1.0000
  Fe  Fe18      1.0  0.27566  0.47280  0.21629  1.0000
  C   C93       1.0  0.31362  0.52524  0.21170  1.0000
  S   S41       1.0  0.24505  0.44369  0.21296  1.0000
  C   C94       1.0  0.25932  0.42718  0.08496  1.0000
  C   C95       1.0  0.29290  0.53236  0.23220  1.0000
  H   H147      1.0  0.08358  0.31929  0.37477  1.0000
  H   H148      1.0  0.19933  0.39657  0.41857  1.0000
  H   H149      1.0  0.18916  0.44676  0.33743  1.0000
  H   H150      1.0  0.17755  0.42458  0.42133  1.0000
  S   S42       1.0  0.26740  0.51173  0.23844  1.0000
  H   H151      1.0  0.15345  0.41119  0.37433  1.0000
  N   N9        1.0  0.19440  0.41809  0.37461  1.0000
  H   H152      1.0  0.17209  0.45444  0.37407  1.0000
  C   C96       1.0  0.17230  0.40338  0.36411  1.0000
  Fe  Fe19      1.0  0.26177  0.43681  0.16366  1.0000
  H   H153      1.0  0.32457  0.34900  0.17721  1.0000
  Fe  Fe20      1.0  0.31743  0.43755  0.18542  1.0000
  H   H154      1.0  0.32323  0.41604  0.06458  1.0000
  H   H155      1.0  0.17057  0.40360  0.33764  1.0000
  C   C97       1.0  0.33279  0.54272  0.20468  1.0000
  C   C98       1.0  0.21887  0.40673  0.36057  1.0000
  C   C99       1.0  0.19043  0.44531  0.36392  1.0000
  H   H156      1.0  0.22290  0.39484  0.24722  1.0000
  H   H157      1.0  0.17475  0.38277  0.37167  1.0000
  H   H158      1.0  0.22250  0.38621  0.36829  1.0000
  Fe  Fe21      1.0  0.27684  0.41507  0.22928  1.0000
  C   C100      1.0  0.36930  0.36561  0.12138  1.0000
  C   C101      1.0  0.19596  0.41686  0.40979  1.0000
  C   C102      1.0  0.28637  0.42464  0.08822  1.0000
  H   H159      1.0  0.34148  0.37827  0.17396  1.0000
  H   H160      1.0  0.21214  0.42805  0.41876  1.0000
  S   S43       1.0  0.30628  0.44495  0.23628  1.0000
  H   H161      1.0  0.21824  0.40699  0.33401  1.0000
  H   H162      1.0  0.29500  0.42775  0.11112  1.0000
  Fe  Fe22      1.0  0.12820  0.30920  0.41829  1.0000
  C   C103      1.0  0.24832  0.42388  0.05493  1.0000
  H   H163      1.0  0.36857  0.38687  0.12517  1.0000
  S   S44       1.0  0.43596  0.35500  0.23524  1.0000
  H   H164      1.0  0.38682  0.37922  0.25536  1.0000
  C   C104      1.0  0.34251  0.35749  0.16760  1.0000
  Fe  Fe23      1.0  0.43996  0.31982  0.20477  1.0000
  C   C105      1.0  0.20294  0.33160  0.53250  1.0000
  H   H165      1.0  0.34861  0.32317  0.09913  1.0000
  C   C106      1.0  0.32258  0.36755  0.11675  1.0000
  H   H166      1.0  0.39941  0.46393  0.27475  1.0000
  C   C107      1.0  0.41456  0.37774  0.21647  1.0000
  C   C108      1.0  0.39140  0.38646  0.23174  1.0000
  H   H167      1.0  0.37270  0.36233  0.09546  1.0000
  H   H168      1.0  0.32175  0.38865  0.12161  1.0000
  H   H169      1.0  0.30382  0.36002  0.12518  1.0000
  N   N10       1.0  0.34510  0.35422  0.13273  1.0000
  H   H170      1.0  0.35949  0.34822  0.18042  1.0000
  H   H171      1.0  0.25422  0.53743  0.13116  1.0000
  C   C109      1.0  0.36611  0.47948  0.22890  1.0000
  H   H172      1.0  0.38372  0.52696  0.23327  1.0000
  H   H173      1.0  0.43096  0.47275  0.21216  1.0000
  S   S45       1.0  0.35816  0.43490  0.16536  1.0000
  H   H174      1.0  0.38962  0.49745  0.28038  1.0000
  C   C110      1.0  0.30231  0.41809  0.06183  1.0000
  H   H175      1.0  0.42240  0.48834  0.26789  1.0000
  H   H176      1.0  0.35303  0.49229  0.24391  1.0000
  C   C111      1.0  0.40321  0.40498  0.17070  1.0000
  H   H177      1.0  0.40375  0.46792  0.18669  1.0000
  H   H178      1.0  0.39108  0.51487  0.19409  1.0000
  H   H179      1.0  0.40795  0.41220  0.14713  1.0000
  C   C112      1.0  0.39647  0.51276  0.21967  1.0000
  C   C113      1.0  0.41018  0.46783  0.21199  1.0000
  N   N11       1.0  0.39361  0.48600  0.23141  1.0000
  C   C114      1.0  0.34602  0.32639  0.12520  1.0000
  C   C115      1.0  0.40164  0.48385  0.26511  1.0000
  C   C116      1.0  0.37975  0.41319  0.18558  1.0000
  H   H180      1.0  0.41686  0.51860  0.22183  1.0000
  H   H181      1.0  0.36342  0.45914  0.23658  1.0000
  H   H182      1.0  0.35918  0.48147  0.20388  1.0000
  H   H183      1.0  0.31462  0.50649  0.20075  1.0000
  H   H184      1.0  0.40933  0.44758  0.22108  1.0000
  S   S46       1.0  0.46083  0.31647  0.15759  1.0000
  C   C117      1.0  0.37378  0.40389  0.21611  1.0000
  H   H185      1.0  0.35561  0.40998  0.22768  1.0000
  H   H186      1.0  0.38666  0.35704  0.13416  1.0000
  H   H187      1.0  0.32790  0.31729  0.13310  1.0000
  H   H188      1.0  0.47203  0.30928  0.06670  1.0000
  S   S47       1.0  0.40224  0.30624  0.18713  1.0000
  C   C118      1.0  0.06493  0.31621  0.38598  1.0000
  H   H189      1.0  0.22738  0.42581  0.05233  1.0000
  H   H190      1.0  0.21337  0.31304  0.52987  1.0000
  H   H191      1.0  0.34827  0.53754  0.18792  1.0000
  H   H192      1.0  0.10198  0.35446  0.51597  1.0000
  H   H193      1.0  0.11058  0.32104  0.52471  1.0000
  S   S48       1.0  0.40854  0.31496  0.09443  1.0000
  H   H194      1.0  0.22678  0.53420  0.15768  1.0000
  C   C119      1.0  0.11302  0.34117  0.53269  1.0000
  H   H195      1.0  0.16423  0.39765  0.54097  1.0000
  H   H196      1.0  0.29579  0.50032  0.05588  1.0000
  H   H197      1.0  0.19314  0.35895  0.83611  1.0000
  S   S49       1.0  0.20654  0.32714  0.68754  1.0000
  Fe  Fe24      1.0  0.13366  0.34565  0.67684  1.0000
  S   S50       1.0  0.16500  0.36978  0.65641  1.0000
  S   S51       1.0  0.09255  0.36038  0.66604  1.0000
  Fe  Fe25      1.0  0.18438  0.33181  0.64222  1.0000
  S   S52       1.0  0.20525  0.32169  0.59620  1.0000
  Fe  Fe26      1.0  0.18430  0.36290  0.70378  1.0000
  C   C120      1.0  0.22940  0.37772  0.83194  1.0000
  C   C121      1.0  0.23394  0.31501  0.76636  1.0000
  S   S53       1.0  0.15134  0.34204  0.72572  1.0000
  S   S54       1.0  0.35596  0.40804  0.85263  1.0000
  H   H198      1.0  0.30075  0.52515  0.97236  1.0000
  H   H199      1.0  0.34700  0.32608  0.90835  1.0000
  H   H200      1.0  0.37411  0.41831  0.91583  1.0000
  C   C122      1.0  0.31829  0.54142  0.90744  1.0000
  H   H201      1.0  0.17886  0.37280  0.58934  1.0000
  H   H202      1.0  0.27132  0.34840  0.75647  1.0000
  N   N12       1.0  0.26191  0.30856  0.76040  1.0000
  C   C123      1.0  0.20630  0.36854  0.82015  1.0000
  H   H203      1.0  0.18169  0.36565  0.77910  1.0000
  H   H204      1.0  0.38128  0.33019  0.91219  1.0000
  H   H205      1.0  0.22987  0.31921  0.79195  1.0000
  H   H206      1.0  0.30566  0.53260  0.01343  1.0000
  C   C124      1.0  0.21631  0.38550  0.76744  1.0000
  C   C125      1.0  0.28335  0.49099  0.03834  1.0000
  H   H207      1.0  0.32804  0.48455  0.97815  1.0000
  S   S55       1.0  0.20785  0.39237  0.72771  1.0000
  H   H208      1.0  0.31814  0.32973  0.95600  1.0000
  S   S56       1.0  0.23599  0.37499  0.87297  1.0000
  H   H209      1.0  0.12774  0.37710  0.57400  1.0000
  S   S57       1.0  0.31763  0.44614  0.92320  1.0000
  C   C126      1.0  0.06756  0.33860  0.66703  1.0000
  H   H210      1.0  0.10020  0.37555  0.60022  1.0000
  H   H211      1.0  0.25573  0.48928  0.98452  1.0000
  H   H212      1.0  0.40004  0.33745  0.96505  1.0000
  H   H213      1.0  0.06384  0.35159  0.55344  1.0000
  H   H214      1.0  0.28302  0.47018  0.04518  1.0000
  C   C127      1.0  0.19979  0.37232  0.78790  1.0000
  H   H215      1.0  0.41065  0.39816  0.94737  1.0000
  C   C128      1.0  0.38194  0.39424  0.87495  1.0000
  C   C129      1.0  0.30331  0.51976  0.90448  1.0000
  C   C130      1.0  0.07643  0.33886  0.56918  1.0000
  H   H216      1.0  0.25564  0.41463  0.00545  1.0000
  H   H217      1.0  0.21026  0.49930  0.85562  1.0000
  H   H218      1.0  0.17219  0.44853  0.81888  1.0000
  H   H219      1.0  0.22123  0.42802  0.85520  1.0000
  H   H220      1.0  0.22445  0.45665  0.87789  1.0000
  S   S58       1.0  0.25766  0.42715  0.93319  1.0000
  H   H221      1.0  0.14098  0.33176  0.58612  1.0000
  C   C131      1.0  0.27624  0.48127  0.98315  1.0000
  Fe  Fe27      1.0  0.26608  0.40094  0.89155  1.0000
  Fe  Fe28      1.0  0.45788  0.31519  0.91837  1.0000
  H   H222      1.0  0.19997  0.43082  0.80247  1.0000
  H   H223      1.0  0.17817  0.48799  0.85064  1.0000
  C   C132      1.0  0.21200  0.44747  0.86025  1.0000
  C   C133      1.0  0.19667  0.34101  0.56286  1.0000
  C   C134      1.0  0.26430  0.41761  0.02839  1.0000
  C   C135      1.0  0.18320  0.36513  0.56596  1.0000
  C   C136      1.0  0.23495  0.46600  0.81570  1.0000
  S   S59       1.0  0.28322  0.43154  0.86108  1.0000
  H   H224      1.0  0.27622  0.46013  0.98827  1.0000
  H   H225      1.0  0.23352  0.47792  0.79346  1.0000
  C   C137      1.0  0.23966  0.39415  0.77908  1.0000
  C   C138      1.0  0.27620  0.52297  0.90260  1.0000
  N   N13       1.0  0.29321  0.49424  0.00536  1.0000
  C   C139      1.0  0.19758  0.48924  0.83890  1.0000
  C   C140      1.0  0.07244  0.31238  0.67446  1.0000
  S   S60       1.0  0.25693  0.49610  0.89976  1.0000
  Fe  Fe29      1.0  0.29782  0.41459  0.94953  1.0000
  H   H226      1.0  0.24421  0.44682  0.80917  1.0000
  H   H227      1.0  0.24842  0.47543  0.83201  1.0000
  H   H228      1.0  0.18980  0.46164  0.78563  1.0000
  H   H229      1.0  0.19506  0.50175  0.81725  1.0000
  Fe  Fe30      1.0  0.27785  0.45673  0.90384  1.0000
  H   H230      1.0  0.19287  0.44449  0.87196  1.0000
  H   H231      1.0  0.28292  0.48371  0.95808  1.0000
  C   C141      1.0  0.19198  0.45060  0.80848  1.0000
  N   N14       1.0  0.20911  0.46333  0.83082  1.0000
  Fe  Fe31      1.0  0.32099  0.41782  0.88324  1.0000
  S   S61       1.0  0.31206  0.40638  0.99951  1.0000
  C   C142      1.0  0.29320  0.52208  0.99704  1.0000
  C   C143      1.0  0.29132  0.41450  0.03190  1.0000
  H   H232      1.0  0.39459  0.36756  0.83817  1.0000
  H   H233      1.0  0.06917  0.34157  0.59415  1.0000
  C   C144      1.0  0.24636  0.38992  0.81111  1.0000
  H   H234      1.0  0.26471  0.39603  0.81956  1.0000
  H   H235      1.0  0.25265  0.40407  0.76322  1.0000
  H   H236      1.0  0.22696  0.33231  0.75227  1.0000
  H   H237      1.0  0.33928  0.53884  0.90881  1.0000
  H   H238      1.0  0.31281  0.50065  0.90332  1.0000
  S   S62       1.0  0.30431  0.38532  0.91085  1.0000
  H   H239      1.0  0.37761  0.36491  0.97000  1.0000
  S   S63       1.0  0.44698  0.35546  0.93467  1.0000
  H   H240      1.0  0.27318  0.53143  0.99808  1.0000
  H   H241      1.0  0.37919  0.33974  0.99974  1.0000
  C   C145      1.0  0.42266  0.37084  0.91106  1.0000
  H   H242      1.0  0.33066  0.36013  0.96635  1.0000
  C   C146      1.0  0.39798  0.37415  0.86207  1.0000
  C   C147      1.0  0.41808  0.36218  0.88029  1.0000
  H   H243      1.0  0.43018  0.34642  0.87039  1.0000
  C   C148      1.0  0.38635  0.40271  0.90586  1.0000
  C   C149      1.0  0.33397  0.33879  0.96897  1.0000
  C   C150      1.0  0.11998  0.32753  0.58735  1.0000
  H   H244      1.0  0.33179  0.33410  0.99479  1.0000
  C   C151      1.0  0.36171  0.33608  0.92215  1.0000
  H   H245      1.0  0.35847  0.35720  0.91740  1.0000
  C   C152      1.0  0.38009  0.34358  0.97364  1.0000
  C   C153      1.0  0.40702  0.39135  0.92365  1.0000
  C   C154      1.0  0.26415  0.54793  0.90347  1.0000
  N   N15       1.0  0.35998  0.33003  0.95662  1.0000
  H   H246      1.0  0.07346  0.31846  0.56273  1.0000
  C   C155      1.0  0.32004  0.48252  0.00279  1.0000
  H   H247      1.0  0.27397  0.33490  0.79593  1.0000
  H   H248      1.0  0.32071  0.46144  0.00868  1.0000
  H   H249      1.0  0.33345  0.49170  0.01930  1.0000
  C   C156      1.0  0.10704  0.37203  0.57527  1.0000
  N   N16       1.0  0.10412  0.34489  0.56607  1.0000
  H   H250      1.0  0.41816  0.32471  0.02868  1.0000
  H   H251      1.0  0.09570  0.38577  0.55944  1.0000
  H   H252      1.0  0.11849  0.30687  0.58104  1.0000
  H   H253      1.0  0.11348  0.32971  0.61262  1.0000
  H   H254      1.0  0.24318  0.55051  0.90196  1.0000
  H   H255      1.0  0.29838  0.32632  0.76623  1.0000
  Fe  Fe32      1.0  0.17234  0.30645  0.70590  1.0000
  H   H256      1.0  0.26106  0.32117  0.71133  1.0000
  H   H257      1.0  0.26308  0.49942  0.04111  1.0000
  H   H258      1.0  0.49714  0.31353  0.03712  1.0000
  C   C157      1.0  0.27712  0.33046  0.77020  1.0000
  S   S64       1.0  0.15168  0.30799  0.65907  1.0000
  H   H259      1.0  0.05713  0.36523  0.75444  1.0000
  H   H260      1.0  0.30652  0.76117  0.27006  1.0000
  S   S65       1.0  0.29243  0.63814  0.20609  1.0000
  Fe  Fe33      1.0  0.29244  0.65299  0.15545  1.0000
  H   H261      1.0  0.32235  0.74267  0.21892  1.0000
  C   C158      1.0  0.51767  0.75617  0.12181  1.0000
  H   H262      1.0  0.27580  0.56231  0.26231  1.0000
  H   H263      1.0  0.20548  0.80443  0.54944  1.0000
  N   N17       1.0  0.50336  0.77527  0.14230  1.0000
  H   H264      1.0  0.21973  0.62498  0.38790  1.0000
  H   H265      1.0  0.23829  0.69738  0.42692  1.0000
  C   C159      1.0  0.22219  0.68407  0.28666  1.0000
  Fe  Fe34      1.0  0.30516  0.67762  0.21839  1.0000
  C   C160      1.0  0.22948  0.58416  0.13825  1.0000
  C   C161      1.0  0.23902  0.67064  0.37255  1.0000
  H   H266      1.0  0.26007  0.66447  0.37162  1.0000
  C   C162      1.0  0.23963  0.67595  0.42969  1.0000
  H   H267      1.0  0.25298  0.66800  0.25601  1.0000
  H   H268      1.0  0.20976  0.66815  0.28354  1.0000
  H   H269      1.0  0.23034  0.67155  0.45312  1.0000
  N   N18       1.0  0.22672  0.66336  0.40317  1.0000
  C   C163      1.0  0.19879  0.67183  0.40290  1.0000
  H   H270      1.0  0.33164  0.74255  0.29037  1.0000
  H   H271      1.0  0.18885  0.66712  0.42578  1.0000
  C   C164      1.0  0.26303  0.70419  0.27595  1.0000
  C   C165      1.0  0.29169  0.55680  0.24622  1.0000
  C   C166      1.0  0.27060  0.65810  0.08266  1.0000
  H   H272      1.0  0.19615  0.69305  0.39928  1.0000
  C   C167      1.0  0.24663  0.68394  0.27113  1.0000
  S   S66       1.0  0.26478  0.64070  0.11798  1.0000
  H   H273      1.0  0.27306  0.59983  0.16472  1.0000
  H   H274      1.0  0.23745  0.69195  0.36851  1.0000
  C   C168      1.0  0.28061  0.69818  0.05589  1.0000
  C   C169      1.0  0.50097  0.76444  0.17491  1.0000
  C   C170      1.0  0.22935  0.63498  0.40753  1.0000
  H   H275      1.0  0.31732  0.79074  0.22631  1.0000
  H   H276      1.0  0.18836  0.66289  0.38308  1.0000
  H   H277      1.0  0.38609  0.76670  0.24150  1.0000
  H   H278      1.0  0.35569  0.74547  0.20663  1.0000
  H   H279      1.0  0.26065  0.66978  0.43101  1.0000
  S   S67       1.0  0.30104  0.69345  0.16858  1.0000
  C   C171      1.0  0.27564  0.68430  0.08397  1.0000
  C   C172      1.0  0.38154  0.73383  0.06249  1.0000
  H   H280      1.0  0.23772  0.58207  0.11371  1.0000
  C   C173      1.0  0.31073  0.57438  0.23896  1.0000
  H   H281      1.0  0.14528  0.78054  0.53833  1.0000
  H   H282      1.0  0.22940  0.66190  0.35196  1.0000
  S   S68       1.0  0.29453  0.70407  0.25922  1.0000
  H   H283      1.0  0.22010  0.78170  0.48427  1.0000
  H   H284      1.0  0.22024  0.62888  0.43043  1.0000
  H   H285      1.0  0.30965  0.59332  0.24966  1.0000
  H   H286      1.0  0.27525  0.69402  0.10662  1.0000
  H   H287      1.0  0.25019  0.62789  0.40777  1.0000
  Fe  Fe35      1.0  0.14980  0.77701  0.40041  1.0000
  S   S69       1.0  0.15617  0.73419  0.40880  1.0000
  C   C174      1.0  0.34264  0.74344  0.22773  1.0000
  S   S70       1.0  0.21763  0.74280  0.39203  1.0000
  Fe  Fe36      1.0  0.18168  0.73556  0.36489  1.0000
  H   H288      1.0  0.16250  0.75894  0.48953  1.0000
  Fe  Fe37      1.0  0.19172  0.74485  0.43494  1.0000
  H   H289      1.0  0.28579  0.56854  0.17727  1.0000
  S   S71       1.0  0.17204  0.77754  0.35382  1.0000
  C   C175      1.0  0.08100  0.76305  0.38659  1.0000
  C   C176      1.0  0.08305  0.78364  0.40753  1.0000
  H   H290      1.0  0.22381  0.74145  0.32492  1.0000
  H   H291      1.0  0.09808  0.75542  0.37379  1.0000
  C   C177      1.0  0.19417  0.73822  0.51367  1.0000
  C   C178      1.0  0.23017  0.72515  0.31044  1.0000
  S   S72       1.0  0.20766  0.72446  0.47878  1.0000
  C   C179      1.0  0.27274  0.57882  0.15981  1.0000
  C   C180      1.0  0.39853  0.74582  0.15508  1.0000
  C   C181      1.0  0.17211  0.75519  0.51207  1.0000
  H   H292      1.0  0.28419  0.71854  0.05710  1.0000
  H   H293      1.0  0.25420  0.78666  0.48576  1.0000
  H   H294      1.0  0.22799  0.60527  0.14333  1.0000
  H   H295      1.0  0.26713  0.74061  0.29917  1.0000
  H   H296      1.0  0.32842  0.77714  0.29540  1.0000
  C   C182      1.0  0.25468  0.72478  0.29552  1.0000
  C   C183      1.0  0.41992  0.71744  0.20653  1.0000
  H   H297      1.0  0.22342  0.72015  0.54434  1.0000
  H   H298      1.0  0.28144  0.57583  0.13565  1.0000
  S   S73       1.0  0.18500  0.70336  0.32907  1.0000
  H   H299      1.0  0.34781  0.72434  0.23917  1.0000
  Fe  Fe38      1.0  0.20640  0.78459  0.38442  1.0000
  C   C184      1.0  0.21409  0.70457  0.30667  1.0000
  S   S74       1.0  0.34792  0.66683  0.21354  1.0000
  S   S75       1.0  0.35442  0.58953  0.20753  1.0000
  S   S76       1.0  0.36843  0.70708  0.13627  1.0000
  Fe  Fe39      1.0  0.34292  0.68004  0.16284  1.0000
  H   H300      1.0  0.39695  0.68658  0.19079  1.0000
  S   S77       1.0  0.33409  0.64092  0.14534  1.0000
  C   C185      1.0  0.33795  0.78975  0.23421  1.0000
  Fe  Fe40      1.0  0.33498  0.62868  0.19676  1.0000
  H   H301      1.0  0.37787  0.74654  0.27463  1.0000
  H   H302      1.0  0.52033  0.75858  0.18502  1.0000
  C   C186      1.0  0.40205  0.70630  0.18658  1.0000
  H   H303      1.0  0.42821  0.70641  0.22640  1.0000
  H   H304      1.0  0.49139  0.77876  0.19144  1.0000
  C   C187      1.0  0.37209  0.76483  0.26171  1.0000
  S   S78       1.0  0.44774  0.75716  0.22738  1.0000
  H   H305      1.0  0.48901  0.74715  0.17550  1.0000
  H   H306      1.0  0.39019  0.75694  0.13534  1.0000
  H   H307      1.0  0.20936  0.57730  0.13828  1.0000
  H   H308      1.0  0.39519  0.71891  0.07350  1.0000
  C   C188      1.0  0.33122  0.56739  0.21805  1.0000
  H   H309      1.0  0.53768  0.75146  0.13085  1.0000
  H   H310      1.0  0.50745  0.73780  0.12082  1.0000
  H   H311      1.0  0.23575  0.59557  0.20057  1.0000
  C   C189      1.0  0.42663  0.74296  0.20120  1.0000
  H   H312      1.0  0.54038  0.78590  0.22243  1.0000
  H   H313      1.0  0.42121  0.77684  0.17110  1.0000
  C   C190      1.0  0.41598  0.75715  0.17543  1.0000
  C   C191      1.0  0.51779  0.79917  0.14324  1.0000
  C   C192      1.0  0.20634  0.73329  0.54304  1.0000
  C   C193      1.0  0.47710  0.78117  0.12911  1.0000
  N   N19       1.0  0.34497  0.76483  0.25037  1.0000
  C   C194      1.0  0.39129  0.72050  0.16091  1.0000
  C   C195      1.0  0.06087  0.79345  0.42394  1.0000
  H   H314      1.0  0.47818  0.78851  0.10412  1.0000
  C   C196      1.0  0.32717  0.76133  0.27782  1.0000
  H   H315      1.0  0.35040  0.79264  0.21275  1.0000
  H   H316      1.0  0.46534  0.76375  0.12921  1.0000
  C   C197      1.0  0.23568  0.78855  0.49972  1.0000
  N   N20       1.0  0.24599  0.56987  0.16194  1.0000
  S   S79       1.0  0.18367  0.78761  0.43020  1.0000
  C   C198      1.0  0.16233  0.76735  0.53973  1.0000
  H   H317      1.0  0.51960  0.76368  0.09692  1.0000
  H   H318      1.0  0.37082  0.74386  0.08240  1.0000
  S   S80       1.0  0.11206  0.79969  0.41083  1.0000
  H   H319      1.0  0.33640  0.71168  0.07751  1.0000
  H   H320      1.0  0.23737  0.77499  0.52049  1.0000
  C   C199      1.0  0.23521  0.57477  0.19427  1.0000
  C   C200      1.0  0.27068  0.64575  0.05310  1.0000
  H   H321      1.0  0.36162  0.68746  0.06926  1.0000
  H   H322      1.0  0.24644  0.56338  0.21263  1.0000
  H   H323      1.0  0.37478  0.78124  0.27809  1.0000
  H   H324      1.0  0.53753  0.79549  0.15364  1.0000
  H   H325      1.0  0.46597  0.79619  0.14317  1.0000
  H   H326      1.0  0.21468  0.56919  0.19637  1.0000
  C   C201      1.0  0.34849  0.70269  0.05796  1.0000
  Fe  Fe41      1.0  0.43969  0.80011  0.22848  1.0000
  H   H327      1.0  0.26695  0.62543  0.05204  1.0000
  Fe  Fe42      1.0  0.26429  0.67243  0.88575  1.0000
  C   C202      1.0  0.23970  0.67904  0.77348  1.0000
  H   H328      1.0  0.06331  0.77627  0.68253  1.0000
  H   H329      1.0  0.26976  0.58885  0.90674  1.0000
  C   C203      1.0  0.22676  0.71654  0.94760  1.0000
  S   S81       1.0  0.26859  0.64950  0.93146  1.0000
  C   C204      1.0  0.22326  0.69877  0.76032  1.0000
  C   C205      1.0  0.20745  0.70983  0.81343  1.0000
  H   H330      1.0  0.31965  0.74516  0.79977  1.0000
  H   H331      1.0  0.24197  0.70180  0.94008  1.0000
  H   H332      1.0  0.25304  0.65969  0.81658  1.0000
  C   C206      1.0  0.20725  0.71431  0.78032  1.0000
  H   H333      1.0  0.21948  0.72660  0.92553  1.0000
  H   H334      1.0  0.17758  0.67586  0.95691  1.0000
  H   H335      1.0  0.27728  0.64970  0.00240  1.0000
  Fe  Fe43      1.0  0.29272  0.68191  0.94620  1.0000
  S   S82       1.0  0.29902  0.65275  0.86132  1.0000
  H   H336      1.0  0.25196  0.66689  0.75801  1.0000
  H   H337      1.0  0.27248  0.75430  0.81166  1.0000
  S   S83       1.0  0.22369  0.70405  0.71895  1.0000
  C   C207      1.0  0.22415  0.69030  0.82660  1.0000
  S   S84       1.0  0.22459  0.68518  0.86806  1.0000
  C   C208      1.0  0.24042  0.67504  0.80661  1.0000
  S   S85       1.0  0.28634  0.70579  0.90184  1.0000
  C   C209      1.0  0.27916  0.56964  0.90621  1.0000
  H   H338      1.0  0.30599  0.77741  0.73834  1.0000
  S   S86       1.0  0.28840  0.70373  0.99201  1.0000
  H   H339      1.0  0.23652  0.73074  0.96245  1.0000
  C   C210      1.0  0.34520  0.74255  0.02744  1.0000
  H   H340      1.0  0.29656  0.78548  0.77868  1.0000
  S   S87       1.0  0.40614  0.76708  0.96394  1.0000
  C   C211      1.0  0.17483  0.76295  0.56896  1.0000
  Fe  Fe44      1.0  0.18641  0.77617  0.64770  1.0000
  H   H341      1.0  0.37220  0.62602  0.90679  1.0000
  H   H342      1.0  0.06814  0.78327  0.59446  1.0000
  H   H343      1.0  0.39338  0.74827  0.04992  1.0000
  S   S88       1.0  0.21726  0.77848  0.73192  1.0000
  C   C212      1.0  0.19361  0.68559  0.94447  1.0000
  Fe  Fe45      1.0  0.44132  0.78961  0.95274  1.0000
  Fe  Fe46      1.0  0.23238  0.79412  0.68572  1.0000
  N   N21       1.0  0.08381  0.78937  0.64093  1.0000
  S   S89       1.0  0.16824  0.75787  0.69064  1.0000
  Fe  Fe47      1.0  0.20900  0.74380  0.70304  1.0000
  C   C213      1.0  0.11754  0.77626  0.74918  1.0000
  C   C214      1.0  0.08718  0.78229  0.60704  1.0000
  H   H344      1.0  0.13545  0.76433  0.75073  1.0000
  H   H345      1.0  0.26674  0.72297  0.79639  1.0000
  S   S90       1.0  0.16327  0.78027  0.60238  1.0000
  C   C215      1.0  0.09347  0.76481  0.75100  1.0000
  C   C216      1.0  0.35605  0.72678  0.91429  1.0000
  H   H346      1.0  0.20643  0.74224  0.59318  1.0000
  C   C217      1.0  0.36756  0.74106  0.93776  1.0000
  C   C218      1.0  0.21664  0.69061  0.99373  1.0000
  H   H347      1.0  0.09607  0.76230  0.60454  1.0000
  H   H348      1.0  0.22647  0.70405  0.00962  1.0000
  H   H349      1.0  0.09292  0.74404  0.75366  1.0000
  H   H350      1.0  0.26368  0.74112  0.72556  1.0000
  H   H351      1.0  0.35588  0.75774  0.01458  1.0000
  C   C219      1.0  0.26846  0.74364  0.78956  1.0000
  H   H352      1.0  0.23157  0.67523  0.98684  1.0000
  N   N22       1.0  0.28901  0.74666  0.76507  1.0000
  C   C220      1.0  0.36868  0.72241  0.88507  1.0000
  H   H353      1.0  0.17734  0.73511  0.95442  1.0000
  S   S91       1.0  0.45515  0.80440  0.90528  1.0000
  H   H354      1.0  0.19439  0.72947  0.77024  1.0000
  S   S92       1.0  0.22639  0.75854  0.65749  1.0000
  H   H355      1.0  0.20816  0.67029  0.93620  1.0000
  H   H356      1.0  0.33017  0.73768  0.75971  1.0000
  H   H357      1.0  0.39182  0.69349  0.02330  1.0000
  H   H358      1.0  0.39030  0.72332  0.00103  1.0000
  H   H359      1.0  0.27243  0.78339  0.74846  1.0000
  H   H360      1.0  0.19440  0.73878  0.99112  1.0000
  C   C221      1.0  0.19680  0.74582  0.57065  1.0000
  H   H361      1.0  0.19476  0.72163  0.82880  1.0000
  H   H362      1.0  0.10763  0.79262  0.68234  1.0000
  H   H363      1.0  0.33726  0.71927  0.91899  1.0000
  C   C222      1.0  0.10947  0.78811  0.65654  1.0000
  C   C223      1.0  0.29118  0.77442  0.75743  1.0000
  H   H364      1.0  0.20134  0.68128  0.00804  1.0000
  H   H365      1.0  0.24903  0.75092  0.78078  1.0000
  H   H366      1.0  0.27962  0.71203  0.74073  1.0000
  C   C224      1.0  0.18584  0.72438  0.97538  1.0000
  C   C225      1.0  0.07020  0.78014  0.74911  1.0000
  C   C226      1.0  0.31411  0.73558  0.77741  1.0000
  H   H367      1.0  0.42360  0.75459  0.89885  1.0000
  C   C227      1.0  0.28226  0.73292  0.73587  1.0000
  H   H368      1.0  0.29748  0.73439  0.71697  1.0000
  H   H369      1.0  0.31312  0.71457  0.78309  1.0000
  N   N23       1.0  0.20567  0.70428  0.96533  1.0000
  C   C228      1.0  0.37832  0.70937  0.01423  1.0000
  C   C229      1.0  0.38647  0.63657  0.89211  1.0000
  H   H370      1.0  0.40537  0.63511  0.90485  1.0000
  H   H371      1.0  0.36462  0.62032  0.81924  1.0000
  N   N24       1.0  0.38902  0.62586  0.85967  1.0000
  H   H372      1.0  0.40000  0.58947  0.83776  1.0000
  C   C230      1.0  0.36349  0.62826  0.84376  1.0000
  C   C231      1.0  0.40806  0.64044  0.84110  1.0000
  H   H373      1.0  0.35614  0.64883  0.84180  1.0000
  H   H374      1.0  0.34860  0.61758  0.85722  1.0000
  S   S93       1.0  0.33013  0.66327  0.92829  1.0000
  H   H375      1.0  0.41044  0.63301  0.81640  1.0000
  C   C232      1.0  0.28139  0.68575  0.02645  1.0000
  H   H376      1.0  0.42756  0.63916  0.85245  1.0000
  H   H377      1.0  0.38371  0.58690  0.87569  1.0000
  H   H378      1.0  0.41706  0.59561  0.87385  1.0000
  S   S94       1.0  0.35417  0.70321  0.85675  1.0000
  C   C233      1.0  0.39790  0.59825  0.86180  1.0000
  S   S95       1.0  0.32565  0.59304  0.91203  1.0000
  H   H379      1.0  0.40169  0.66138  0.83928  1.0000
  H   H380      1.0  0.37975  0.65741  0.89139  1.0000
  C   C234      1.0  0.27649  0.65948  0.02502  1.0000
  Fe  Fe48      1.0  0.32152  0.68413  0.88227  1.0000
  Fe  Fe49      1.0  0.30562  0.63281  0.90876  1.0000
  H   H381      1.0  0.35738  0.74449  0.96003  1.0000
  C   C235      1.0  0.39199  0.75094  0.93250  1.0000
  C   C236      1.0  0.40465  0.74706  0.90304  1.0000
  H   H382      1.0  0.16957  0.71580  0.98880  1.0000
  N   N25       1.0  0.36339  0.72210  0.04054  1.0000
  S   S96       1.0  0.52992  0.77439  0.90428  1.0000
  H   H383      1.0  0.18547  0.69522  0.92254  1.0000
  S   S97       1.0  0.48112  0.77826  0.97120  1.0000
  H   H384      1.0  0.40283  0.72950  0.85664  1.0000
  C   C237      1.0  0.39292  0.73281  0.87923  1.0000
  H   H385      1.0  0.36514  0.70098  0.99669  1.0000
  H   H386      1.0  0.11938  0.76855  0.65441  1.0000
  H   H387      1.0  0.33142  0.73449  0.01039  1.0000
  C   C238      1.0  0.55452  0.79285  0.88797  1.0000
  Fe  Fe50      1.0  0.17811  0.79416  0.71518  1.0000
  H   H388      1.0  0.07535  0.75098  0.65653  1.0000
  C   C239      1.0  0.06670  0.77115  0.65708  1.0000
  H   H389      1.0  0.33522  0.69293  0.04182  1.0000
  C   C240      1.0  0.30627  0.56638  0.90823  1.0000
  C   C241      1.0  0.11841  0.80313  0.74622  1.0000
  H   H390      1.0  0.33330  0.75219  0.04667  1.0000
  H   H391      1.0  0.10035  0.79542  0.59429  1.0000
  Fe  Fe51      1.0  0.49528  0.79638  0.92577  1.0000
  H   H392      1.0  0.12269  0.80214  0.64561  1.0000
  H   H393      1.0  0.28128  0.84166  0.38180  1.0000
  S   S98       1.0  0.24301  0.90968  0.45074  1.0000
  C   C242      1.0  0.54301  0.80625  0.22552  1.0000
  H   H394      1.0  0.21168  0.82743  0.46586  1.0000
  H   H395      1.0  0.35541  0.04684  0.34731  1.0000
  H   H396      1.0  0.42407  0.86872  0.39763  1.0000
  C   C243      1.0  0.42894  0.83561  0.08395  1.0000
  H   H397      1.0  0.40886  0.90055  0.40071  1.0000
  H   H398      1.0  0.40893  0.83129  0.07968  1.0000
  C   C244      1.0  0.24027  0.83770  0.39002  1.0000
  C   C245      1.0  0.21745  0.84869  0.40380  1.0000
  C   C246      1.0  0.21825  0.87152  0.42132  1.0000
  C   C247      1.0  0.24191  0.88315  0.42539  1.0000
  C   C248      1.0  0.26454  0.87265  0.41065  1.0000
  C   C249      1.0  0.26369  0.84998  0.39286  1.0000
  H   H399      1.0  0.19922  0.83955  0.40106  1.0000
  H   H400      1.0  0.20063  0.87983  0.43233  1.0000
  H   H401      1.0  0.28270  0.88183  0.41308  1.0000
  H   H402      1.0  0.42372  0.91848  0.05826  1.0000
  H   H403      1.0  0.30035  0.03008  0.36483  1.0000
  C   C250      1.0  0.31726  0.02499  0.38043  1.0000
  H   H404      1.0  0.50743  0.81424  0.15811  1.0000
  H   H405      1.0  0.42259  0.83841  0.44483  1.0000
  S   S99       1.0  0.29010  0.94455  0.50199  1.0000
  H   H406      1.0  0.55261  0.87903  0.23871  1.0000
  S   S100      1.0  0.24013  0.80809  0.37044  1.0000
  H   H407      1.0  0.44430  0.88964  0.06294  1.0000
  H   H408      1.0  0.43525  0.86265  0.46981  1.0000
  Fe  Fe52      1.0  0.28244  0.92569  0.45552  1.0000
  C   C251      1.0  0.37866  0.86543  0.42856  1.0000
  Fe  Fe53      1.0  0.42243  0.84767  0.18952  1.0000
  S   S101      1.0  0.46129  0.82770  0.19833  1.0000
  S   S102      1.0  0.41059  0.85736  0.13922  1.0000
  Fe  Fe54      1.0  0.40521  0.84247  0.25887  1.0000
  S   S103      1.0  0.44296  0.82217  0.27364  1.0000
  S   S104      1.0  0.37019  0.84434  0.29176  1.0000
  Fe  Fe55      1.0  0.46137  0.85166  0.24231  1.0000
  S   S105      1.0  0.49907  0.86929  0.25363  1.0000
  S   S106      1.0  0.42376  0.87432  0.23124  1.0000
  S   S107      1.0  0.40058  0.81789  0.21599  1.0000
  Fe  Fe56      1.0  0.33503  0.93773  0.42756  1.0000
  S   S108      1.0  0.36489  0.93759  0.38787  1.0000
  Fe  Fe57      1.0  0.32969  0.92457  0.49761  1.0000
  S   S109      1.0  0.29507  0.01792  0.48005  1.0000
  H   H409      1.0  0.24684  0.84394  0.53869  1.0000
  N   N26       1.0  0.33883  0.01147  0.36261  1.0000
  H   H410      1.0  0.06313  0.86038  0.32220  1.0000
  S   S110      1.0  0.34711  0.95768  0.47176  1.0000
  H   H411      1.0  0.31017  0.01283  0.40049  1.0000
  H   H412      1.0  0.38253  0.89218  0.48236  1.0000
  H   H413      1.0  0.35061  0.01457  0.46806  1.0000
  H   H414      1.0  0.22393  0.85331  0.48826  1.0000
  H   H415      1.0  0.32353  0.04324  0.39091  1.0000
  H   H416      1.0  0.37640  0.99283  0.37243  1.0000
  C   C252      1.0  0.52555  0.84876  0.24121  1.0000
  C   C253      1.0  0.31623  0.03996  0.46359  1.0000
  H   H417      1.0  0.31333  0.99234  0.33130  1.0000
  H   H418      1.0  0.50375  0.81446  0.24247  1.0000
  H   H419      1.0  0.50059  0.85122  0.09911  1.0000
  C   C254      1.0  0.43532  0.84795  0.11204  1.0000
  C   C255      1.0  0.46128  0.85312  0.11777  1.0000
  H   H420      1.0  0.46624  0.86296  0.13930  1.0000
  S   S111      1.0  0.32092  0.90297  0.45349  1.0000
  C   C256      1.0  0.52225  0.82242  0.23678  1.0000
  H   H421      1.0  0.36889  0.02182  0.39449  1.0000
  S   S112      1.0  0.29570  0.95866  0.42538  1.0000
  C   C257      1.0  0.36808  0.87100  0.31735  1.0000
  C   C258      1.0  0.38770  0.88861  0.31747  1.0000
  C   C259      1.0  0.38607  0.90945  0.33858  1.0000
  C   C260      1.0  0.36494  0.91266  0.35981  1.0000
  C   C261      1.0  0.34507  0.89531  0.35942  1.0000
  C   C262      1.0  0.34671  0.87444  0.33827  1.0000
  H   H422      1.0  0.40423  0.88607  0.30140  1.0000
  H   H423      1.0  0.40148  0.92285  0.33874  1.0000
  H   H424      1.0  0.32858  0.89775  0.37557  1.0000
  H   H425      1.0  0.33140  0.86092  0.33811  1.0000
  H   H426      1.0  0.35367  0.99248  0.40508  1.0000
  C   C263      1.0  0.36039  0.00439  0.38461  1.0000
  C   C264      1.0  0.41902  0.88464  0.41461  1.0000
  H   H427      1.0  0.38320  0.84937  0.41162  1.0000
  H   H428      1.0  0.52030  0.80764  0.11894  1.0000
  H   H429      1.0  0.07220  0.85402  0.36289  1.0000
  C   C265      1.0  0.41705  0.85545  0.45989  1.0000
  H   H430      1.0  0.34541  0.97685  0.33506  1.0000
  C   C266      1.0  0.39535  0.89797  0.46222  1.0000
  H   H431      1.0  0.19938  0.83713  0.53546  1.0000
  C   C267      1.0  0.48068  0.84648  0.09503  1.0000
  C   C268      1.0  0.47424  0.83417  0.06689  1.0000
  C   C269      1.0  0.34283  0.03339  0.46030  1.0000
  N   N27       1.0  0.40255  0.87587  0.44132  1.0000
  H   H432      1.0  0.33250  0.03451  0.32010  1.0000
  C   C270      1.0  0.34825  0.02876  0.33719  1.0000
  C   C271      1.0  0.54996  0.85869  0.23513  1.0000
  C   C272      1.0  0.25072  0.82365  0.53069  1.0000
  Fe  Fe58      1.0  0.30654  0.97589  0.47178  1.0000
  C   C273      1.0  0.32950  0.98782  0.34821  1.0000
  H   H433      1.0  0.38461  0.91382  0.44881  1.0000
  H   H434      1.0  0.36691  0.88062  0.41539  1.0000
  C   C274      1.0  0.44843  0.82832  0.06171  1.0000
  H   H435      1.0  0.38025  0.04653  0.44572  1.0000
  H   H436      1.0  0.36465  0.01917  0.32341  1.0000
  H   H437      1.0  0.41281  0.90624  0.47266  1.0000
  H   H438      1.0  0.32222  0.97439  0.36674  1.0000
  S   S113      1.0  0.34945  0.90249  0.53776  1.0000
  H   H439      1.0  0.36599  0.85808  0.44797  1.0000
  H   H440      1.0  0.40515  0.84861  0.48036  1.0000
  H   H441      1.0  0.43750  0.89214  0.42326  1.0000
  H   H442      1.0  0.06249  0.80906  0.44059  1.0000
  H   H443      1.0  0.26985  0.82273  0.51791  1.0000
  C   C275      1.0  0.22778  0.83266  0.48161  1.0000
  C   C276      1.0  0.20470  0.81704  0.52771  1.0000
  H   H444      1.0  0.24601  0.83151  0.46696  1.0000
  N   N28       1.0  0.22973  0.81547  0.50995  1.0000
  C   C277      1.0  0.35957  0.05151  0.44774  1.0000
  H   H445      1.0  0.18849  0.81073  0.51277  1.0000
  H   H446      1.0  0.34038  0.80641  0.25033  1.0000
  H   H447      1.0  0.45850  0.91981  0.05421  1.0000
  H   H448      1.0  0.33618  0.95663  0.54622  1.0000
  S   S114      1.0  0.29757  0.89999  0.77423  1.0000
  H   H449      1.0  0.33328  0.89472  0.83521  1.0000
  C   C278      1.0  0.41716  0.88732  0.00875  1.0000
  H   H450      1.0  0.29727  0.91439  0.69979  1.0000
  C   C279      1.0  0.29117  0.87389  0.74971  1.0000
  H   H451      1.0  0.30485  0.89966  0.61356  1.0000
  H   H452      1.0  0.40217  0.04301  0.64527  1.0000
  C   C280      1.0  0.26075  0.84328  0.73077  1.0000
  C   C281      1.0  0.26668  0.86330  0.75129  1.0000
  H   H453      1.0  0.27371  0.91423  0.60229  1.0000
  H   H454      1.0  0.09574  0.83929  0.74241  1.0000
  H   H455      1.0  0.24156  0.83566  0.73150  1.0000
  H   H456      1.0  0.25202  0.87103  0.76785  1.0000
  C   C282      1.0  0.26866  0.88907  0.65832  1.0000
  H   H457      1.0  0.25148  0.88728  0.64279  1.0000
  H   H458      1.0  0.25468  0.93488  0.68458  1.0000
  C   C283      1.0  0.30341  0.91541  0.67427  1.0000
  C   C284      1.0  0.31005  0.86371  0.72842  1.0000
  C   C285      1.0  0.29005  0.91552  0.61927  1.0000
  H   H459      1.0  0.29925  0.93411  0.61424  1.0000
  H   H460      1.0  0.28251  0.87224  0.65339  1.0000
  C   C286      1.0  0.43650  0.92770  0.99652  1.0000
  H   H461      1.0  0.24467  0.93517  0.64361  1.0000
  C   C287      1.0  0.30420  0.84365  0.70805  1.0000
  H   H462      1.0  0.31831  0.89936  0.67000  1.0000
  N   N29       1.0  0.28099  0.91388  0.65279  1.0000
  H   H463      1.0  0.27068  0.95459  0.65568  1.0000
  H   H464      1.0  0.26186  0.88709  0.68351  1.0000
  C   C288      1.0  0.26188  0.93558  0.65943  1.0000
  H   H465      1.0  0.31314  0.93392  0.67077  1.0000
  H   H466      1.0  0.30611  0.01550  0.76518  1.0000
  H   H467      1.0  0.33705  0.98448  0.59358  1.0000
  H   H468      1.0  0.52937  0.82658  0.87796  1.0000
  C   C289      1.0  0.34945  0.88337  0.84737  1.0000
  N   N30       1.0  0.36457  0.05096  0.66700  1.0000
  H   H469      1.0  0.34969  0.87642  0.78384  1.0000
  Fe  Fe59      1.0  0.45699  0.84250  0.93013  1.0000
  S   S115      1.0  0.27227  0.80985  0.68154  1.0000
  S   S116      1.0  0.43908  0.88161  0.91628  1.0000
  Fe  Fe60      1.0  0.48117  0.81824  0.99037  1.0000
  S   S117      1.0  0.49841  0.82662  0.03810  1.0000
  S   S118      1.0  0.49827  0.83584  0.94642  1.0000
  S   S119      1.0  0.44013  0.82826  0.97592  1.0000
  Fe  Fe61      1.0  0.38855  0.92791  0.75802  1.0000
  S   S120      1.0  0.35841  0.93629  0.79600  1.0000
  S   S121      1.0  0.42438  0.90238  0.76855  1.0000
  H   H470      1.0  0.32915  0.87126  0.72751  1.0000
  Fe  Fe62      1.0  0.35448  0.97587  0.77381  1.0000
  H   H471      1.0  0.36624  0.89600  0.84884  1.0000
  S   S122      1.0  0.36051  0.91405  0.72212  1.0000
  S   S123      1.0  0.38722  0.96859  0.73878  1.0000
  H   H472      1.0  0.33300  0.02708  0.65613  1.0000
  H   H473      1.0  0.37247  0.83969  0.87189  1.0000
  H   H474      1.0  0.39206  0.03860  0.70330  1.0000
  H   H475      1.0  0.32383  0.05498  0.67926  1.0000
  S   S124      1.0  0.32311  0.96545  0.74053  1.0000
  C   C290      1.0  0.54909  0.81816  0.87692  1.0000
  C   C291      1.0  0.46388  0.88876  0.00336  1.0000
  C   C292      1.0  0.35087  0.92230  0.57114  1.0000
  H   H476      1.0  0.31746  0.85375  0.81590  1.0000
  C   C293      1.0  0.37820  0.84490  0.84706  1.0000
  C   C294      1.0  0.07190  0.81594  0.64310  1.0000
  C   C295      1.0  0.43659  0.88775  0.87513  1.0000
  C   C296      1.0  0.42251  0.91009  0.86453  1.0000
  C   C297      1.0  0.41932  0.91500  0.83181  1.0000
  C   C298      1.0  0.43019  0.89759  0.80950  1.0000
  C   C299      1.0  0.44471  0.87545  0.82007  1.0000
  C   C300      1.0  0.44787  0.87048  0.85288  1.0000
  H   H477      1.0  0.41404  0.92367  0.88163  1.0000
  H   H478      1.0  0.40886  0.93253  0.82386  1.0000
  H   H479      1.0  0.45329  0.86200  0.80288  1.0000
  H   H480      1.0  0.45899  0.85331  0.86088  1.0000
  N   N31       1.0  0.35675  0.85927  0.83012  1.0000
  H   H481      1.0  0.37653  0.05184  0.61773  1.0000
  H   H482      1.0  0.32681  0.83803  0.85283  1.0000
  H   H483      1.0  0.36657  0.91964  0.64995  1.0000
  C   C301      1.0  0.44166  0.90802  0.04893  1.0000
  H   H484      1.0  0.46338  0.88499  0.97731  1.0000
  H   H485      1.0  0.54716  0.84827  0.98742  1.0000
  C   C302      1.0  0.33689  0.04777  0.65960  1.0000
  H   H486      1.0  0.44345  0.81784  0.04080  1.0000
  H   H487      1.0  0.06959  0.82203  0.66840  1.0000
  H   H488      1.0  0.41890  0.86858  0.02209  1.0000
  C   C303      1.0  0.33393  0.84324  0.82856  1.0000
  C   C304      1.0  0.34283  0.94848  0.56875  1.0000
  H   H489      1.0  0.31876  0.83609  0.69126  1.0000
  H   H490      1.0  0.41852  0.93901  0.00415  1.0000
  C   C305      1.0  0.35171  0.95385  0.62492  1.0000
  Fe  Fe63      1.0  0.33022  0.92492  0.75911  1.0000
  Fe  Fe64      1.0  0.35606  0.95570  0.70665  1.0000
  C   C306      1.0  0.27944  0.83368  0.70886  1.0000
  H   H491      1.0  0.43502  0.92431  0.97038  1.0000
  H   H492      1.0  0.38226  0.87819  0.79769  1.0000
  H   H493      1.0  0.35885  0.04230  0.71666  1.0000
  H   H494      1.0  0.37835  0.02024  0.63608  1.0000
  C   C307      1.0  0.33780  0.03818  0.77907  1.0000
  S   S125      1.0  0.19409  0.81341  0.67159  1.0000
  C   C308      1.0  0.31492  0.03389  0.76279  1.0000
  C   C309      1.0  0.35950  0.91190  0.60042  1.0000
  H   H495      1.0  0.33872  0.82498  0.81553  1.0000
  H   H496      1.0  0.08410  0.83013  0.63072  1.0000
  N   N32       1.0  0.43980  0.90297  0.01442  1.0000
  H   H497      1.0  0.45332  0.93995  0.00003  1.0000
  H   H498      1.0  0.38453  0.82674  0.83459  1.0000
  H   H499      1.0  0.46663  0.86973  0.01568  1.0000
  S   S126      1.0  0.35076  0.97402  0.65811  1.0000
  S   S127      1.0  0.35366  0.01308  0.80098  1.0000
  C   C310      1.0  0.38115  0.04113  0.64029  1.0000
  C   C311      1.0  0.35983  0.92767  0.62740  1.0000
  H   H500      1.0  0.39863  0.89756  0.01657  1.0000
  C   C312      1.0  0.34339  0.96425  0.59556  1.0000
  H   H501      1.0  0.48145  0.89968  0.00792  1.0000
  H   H502      1.0  0.36585  0.89166  0.60225  1.0000
  C   C313      1.0  0.36541  0.86572  0.79741  1.0000
  C   C314      1.0  0.37155  0.03615  0.69633  1.0000
  H   H503      1.0  0.39559  0.85669  0.84866  1.0000
  S   S128      1.0  0.14840  0.81767  0.74364  1.0000
  H   H504      1.0  0.37158  0.84812  0.78374  1.0000
  H   H505      1.0  0.28538  0.05006  0.73121  1.0000
  C   C315      1.0  0.09512  0.81849  0.74465  1.0000
  H   H506      1.0  0.36925  0.01510  0.69336  1.0000
  H   H507      1.0  0.34290  0.87928  0.87220  1.0000
  H   H508      1.0  0.41535  0.88289  0.98294  1.0000
  C   C316      1.0  0.30311  0.05352  0.74375  1.0000
  H   H509      1.0  0.54867  0.80699  0.95692  1.0000
  H   H510      1.0  0.25267  0.81108  0.55239  1.0000
  C   C317      1.0  0.07103  0.80698  0.74563  1.0000
  Fe  Fe65      1.0  0.64924  0.28848  0.16968  1.0000
  S   S129      1.0  0.66801  0.24838  0.16581  1.0000
  C   C318      1.0  0.82669  0.13708  0.48570  1.0000
  S   S130      1.0  0.71334  0.27487  0.12231  1.0000
  Fe  Fe66      1.0  0.67410  0.25946  0.11425  1.0000
  S   S131      1.0  0.66811  0.23467  0.07166  1.0000
  Fe  Fe67      1.0  0.70535  0.26781  0.17410  1.0000
  S   S132      1.0  0.73817  0.25808  0.20818  1.0000
  H   H511      1.0  0.91509  0.28229  0.52555  1.0000
  H   H512      1.0  0.91991  0.24036  0.36315  1.0000
  H   H513      1.0  0.99199  0.24479  0.36750  1.0000
  S   S133      1.0  0.75197  0.14685  0.39317  1.0000
  H   H514      1.0  0.76156  0.09093  0.41865  1.0000
  S   S134      1.0  0.76436  0.20617  0.36982  1.0000
  Fe  Fe68      1.0  0.76372  0.18348  0.41560  1.0000
  C   C319      1.0  0.98190  0.25854  0.35051  1.0000
  Fe  Fe69      1.0  0.75671  0.16852  0.34686  1.0000
  S   S135      1.0  0.72886  0.16516  0.30625  1.0000
  N   N33       1.0  0.66980  0.27023  0.27785  1.0000
  C   C320      1.0  0.76443  0.20456  0.49039  1.0000
  H   H515      1.0  0.74093  0.08039  0.27490  1.0000
  H   H516      1.0  0.77614  0.15114  0.47809  1.0000
  H   H517      1.0  0.81402  0.08796  0.47823  1.0000
  H   H518      1.0  0.76502  0.10359  0.26795  1.0000
  S   S136      1.0  0.61499  0.29823  0.20217  1.0000
  H   H519      1.0  0.94350  0.27426  0.31072  1.0000
  C   C321      1.0  0.69509  0.26247  0.29261  1.0000
  N   N34       1.0  0.80423  0.12455  0.50024  1.0000
  C   C322      1.0  0.73637  0.23085  0.23343  1.0000
  C   C323      1.0  0.75398  0.22769  0.25859  1.0000
  C   C324      1.0  0.75196  0.20731  0.28064  1.0000
  C   C325      1.0  0.73227  0.18997  0.27771  1.0000
  C   C326      1.0  0.71496  0.19276  0.25214  1.0000
  C   C327      1.0  0.71707  0.21313  0.22992  1.0000
  H   H520      1.0  0.76910  0.24118  0.26131  1.0000
  H   H521      1.0  0.76573  0.20505  0.29989  1.0000
  H   H522      1.0  0.69988  0.17920  0.24957  1.0000
  H   H523      1.0  0.70375  0.21513  0.21018  1.0000
  H   H524      1.0  0.77280  0.06988  0.26036  1.0000
  C   C328      1.0  0.78995  0.21098  0.48331  1.0000
  H   H525      1.0  0.84461  0.13334  0.50003  1.0000
  H   H526      1.0  0.82293  0.15845  0.48389  1.0000
  C   C329      1.0  0.78097  0.12999  0.48035  1.0000
  H   H527      1.0  0.73644  0.19787  0.52762  1.0000
  H   H528      1.0  0.79617  0.21324  0.45879  1.0000
  S   S137      1.0  0.81567  0.09929  0.40159  1.0000
  S   S138      1.0  0.80641  0.17223  0.41499  1.0000
  H   H529      1.0  0.60349  0.25902  0.15663  1.0000
  C   C330      1.0  0.58535  0.26659  0.16713  1.0000
  H   H530      1.0  0.69774  0.27264  0.31544  1.0000
  C   C331      1.0  0.81005  0.09630  0.50231  1.0000
  H   H531      1.0  0.83094  0.12981  0.46116  1.0000
  C   C332      1.0  0.89847  0.29270  0.53800  1.0000
  H   H532      1.0  0.88596  0.24870  0.51105  1.0000
  H   H533      1.0  0.73522  0.09565  0.33072  1.0000
  S   S139      1.0  0.74298  0.19699  0.46020  1.0000
  H   H534      1.0  0.56178  0.24111  0.14115  1.0000
  H   H535      1.0  0.68497  0.30300  0.25350  1.0000
  H   H536      1.0  0.81647  0.29638  0.21194  1.0000
  C   C333      1.0  0.03949  0.29802  0.42874  1.0000
  C   C334      1.0  0.79924  0.13485  0.53257  1.0000
  H   H537      1.0  0.78410  0.12245  0.45579  1.0000
  H   H538      1.0  0.03851  0.28712  0.45085  1.0000
  H   H539      1.0  0.71167  0.26698  0.27655  1.0000
  C   C335      1.0  0.56190  0.29578  0.20335  1.0000
  H   H540      1.0  0.93031  0.27621  0.39818  1.0000
  Fe  Fe70      1.0  0.79482  0.13734  0.38897  1.0000
  C   C336      1.0  0.79805  0.07130  0.40523  1.0000
  C   C337      1.0  0.58550  0.28613  0.18983  1.0000
  H   H541      1.0  0.65023  0.30451  0.25804  1.0000
  H   H542      1.0  0.68281  0.25939  0.23101  1.0000
  H   H543      1.0  0.81647  0.13126  0.54820  1.0000
  C   C338      1.0  0.77365  0.20656  0.54680  1.0000
  C   C339      1.0  0.66882  0.29819  0.27005  1.0000
  H   H544      1.0  0.80335  0.10429  0.30338  1.0000
  H   H545      1.0  0.80666  0.08191  0.33623  1.0000
  C   C340      1.0  0.79534  0.29623  0.20659  1.0000
  H   H546      1.0  0.78489  0.29135  0.22910  1.0000
  C   C341      1.0  0.56172  0.25649  0.15838  1.0000
  C   C342      1.0  0.76210  0.08354  0.27680  1.0000
  H   H547      1.0  0.82738  0.09152  0.51740  1.0000
  C   C343      1.0  0.75617  0.20283  0.52215  1.0000
  H   H548      1.0  0.75897  0.11885  0.32248  1.0000
  C   C344      1.0  0.66693  0.25551  0.24832  1.0000
  H   H549      1.0  0.64811  0.26084  0.23640  1.0000
  H   H550      1.0  0.79461  0.15608  0.53183  1.0000
  H   H551      1.0  0.84751  0.30314  0.54865  1.0000
  C   C345      1.0  0.79940  0.21204  0.53986  1.0000
  S   S140      1.0  0.79880  0.15579  0.34059  1.0000
  N   N35       1.0  0.77112  0.07991  0.30998  1.0000
  Fe  Fe71      1.0  0.80634  0.19187  0.36709  1.0000
  C   C346      1.0  0.80745  0.21476  0.50805  1.0000
  C   C347      1.0  0.75649  0.09862  0.33066  1.0000
  S   S141      1.0  0.89211  0.28367  0.45004  1.0000
  H   H552      1.0  0.66766  0.23429  0.25309  1.0000
  H   H553      1.0  0.94256  0.22952  0.33262  1.0000
  H   H554      1.0  0.82729  0.21913  0.50238  1.0000
  H   H555      1.0  0.95066  0.30032  0.33638  1.0000
  H   H556      1.0  0.69692  0.24125  0.29769  1.0000
  H   H557      1.0  0.85947  0.27225  0.50584  1.0000
  C   C348      1.0  0.95113  0.27287  0.39119  1.0000
  C   C349      1.0  0.94156  0.28129  0.33564  1.0000
  C   C350      1.0  0.87568  0.26606  0.42185  1.0000
  C   C351      1.0  0.87424  0.27434  0.39004  1.0000
  C   C352      1.0  0.86227  0.25938  0.36744  1.0000
  C   C353      1.0  0.85098  0.23646  0.37675  1.0000
  C   C354      1.0  0.85198  0.22840  0.40869  1.0000
  C   C355      1.0  0.86450  0.24307  0.43117  1.0000
  H   H558      1.0  0.78260  0.12563  0.54450  1.0000
  H   H559      1.0  0.86128  0.26580  0.34280  1.0000
  H   H560      1.0  0.84358  0.21063  0.41599  1.0000
  H   H561      1.0  0.86552  0.23652  0.45572  1.0000
  H   H562      1.0  0.96030  0.25935  0.40916  1.0000
  C   C356      1.0  0.77164  0.07248  0.41385  1.0000
  H   H563      1.0  0.64855  0.24370  0.30642  1.0000
  H   H564      1.0  0.96051  0.29160  0.39316  1.0000
  H   H565      1.0  0.94986  0.22322  0.37396  1.0000
  S   S142      1.0  0.83643  0.21797  0.34789  1.0000
  C   C357      1.0  0.94106  0.23780  0.35697  1.0000
  N   N36       1.0  0.95391  0.26259  0.35856  1.0000
  H   H566      1.0  0.92037  0.28476  0.34086  1.0000
  H   H567      1.0  0.79347  0.08629  0.51322  1.0000
  S   S143      1.0  0.65188  0.29788  0.11737  1.0000
  H   H568      1.0  0.76327  0.09702  0.35568  1.0000
  C   C358      1.0  0.79924  0.08434  0.31145  1.0000
  H   H569      1.0  0.99196  0.27707  0.35146  1.0000
  H   H570      1.0  0.98485  0.25080  0.32603  1.0000
  H   H571      1.0  0.85584  0.24520  0.53242  1.0000
  H   H572      1.0  0.88214  0.29231  0.38278  1.0000
  H   H573      1.0  0.79252  0.28009  0.18985  1.0000
  C   C359      1.0  0.64832  0.26468  0.30016  1.0000
  H   H574      1.0  0.62902  0.27024  0.28946  1.0000
  H   H575      1.0  0.76354  0.12105  0.49067  1.0000
  H   H576      1.0  0.64976  0.27554  0.32274  1.0000
  H   H577      1.0  0.81097  0.07050  0.29625  1.0000
  H   H578      1.0  0.68938  0.28438  0.06179  1.0000
  H   H579      1.0  0.75373  0.30469  0.16868  1.0000
  C   C360      1.0  0.86975  0.25948  0.52381  1.0000
  N   N37       1.0  0.87944  0.27458  0.55040  1.0000
  H   H580      1.0  0.99794  0.30526  0.42590  1.0000
  Fe  Fe72      1.0  0.72959  0.29292  0.83687  1.0000
  S   S144      1.0  0.74541  0.26190  0.86984  1.0000
  Fe  Fe73      1.0  0.67344  0.27768  0.84703  1.0000
  S   S145      1.0  0.68504  0.24549  0.88147  1.0000
  C   C361      1.0  0.05160  0.29593  0.67686  1.0000
  Fe  Fe74      1.0  0.71185  0.27388  0.90181  1.0000
  S   S146      1.0  0.71895  0.28776  0.95152  1.0000
  Fe  Fe75      1.0  0.71746  0.23695  0.84583  1.0000
  S   S147      1.0  0.73384  0.19796  0.83002  1.0000
  C   C362      1.0  0.56631  0.26618  0.89811  1.0000
  S   S148      1.0  0.70414  0.26729  0.81006  1.0000
  C   C363      1.0  0.63097  0.29558  0.98585  1.0000
  S   S149      1.0  0.77756  0.16208  0.60896  1.0000
  H   H581      1.0  0.72803  0.26624  0.57390  1.0000
  H   H582      1.0  0.75430  0.22708  0.64195  1.0000
  C   C364      1.0  0.85737  0.09240  0.67602  1.0000
  Fe  Fe76      1.0  0.77279  0.17177  0.66073  1.0000
  S   S150      1.0  0.73402  0.18655  0.68019  1.0000
  C   C365      1.0  0.70707  0.25213  0.64903  1.0000
  C   C366      1.0  0.80437  0.22815  0.75250  1.0000
  H   H583      1.0  0.81526  0.27684  0.76461  1.0000
  C   C367      1.0  0.73323  0.18843  0.72197  1.0000
  C   C368      1.0  0.75242  0.17536  0.74034  1.0000
  C   C369      1.0  0.75179  0.17744  0.77367  1.0000
  C   C370      1.0  0.73243  0.19321  0.78868  1.0000
  C   C371      1.0  0.71308  0.20608  0.77031  1.0000
  C   C372      1.0  0.71338  0.20355  0.73703  1.0000
  H   H584      1.0  0.76765  0.16346  0.72897  1.0000
  H   H585      1.0  0.76661  0.16718  0.78780  1.0000
  H   H586      1.0  0.69764  0.21765  0.78181  1.0000
  H   H587      1.0  0.69826  0.21341  0.72301  1.0000
  C   C373      1.0  0.70293  0.28521  0.01323  1.0000
  H   H588      1.0  0.82425  0.21878  0.75433  1.0000
  H   H589      1.0  0.66475  0.27698  0.94035  1.0000
  H   H590      1.0  0.87936  0.07715  0.75038  1.0000
  C   C374      1.0  0.64474  0.28312  0.93282  1.0000
  H   H591      1.0  0.90899  0.24548  0.56349  1.0000
  C   C375      1.0  0.58332  0.29569  0.85872  1.0000
  C   C376      1.0  0.69547  0.24741  0.98198  1.0000
  C   C377      1.0  0.70511  0.27205  0.98433  1.0000
  H   H592      1.0  0.75699  0.26133  0.63814  1.0000
  H   H593      1.0  0.69712  0.23714  0.95967  1.0000
  H   H594      1.0  0.67675  0.21671  0.00717  1.0000
  C   C378      1.0  0.60690  0.28076  0.85748  1.0000
  C   C379      1.0  0.60987  0.25816  0.87593  1.0000
  H   H595      1.0  0.69610  0.27230  0.59095  1.0000
  H   H596      1.0  0.62779  0.24626  0.87458  1.0000
  H   H597      1.0  0.72318  0.21963  0.58107  1.0000
  H   H598      1.0  0.83199  0.11046  0.72834  1.0000
  C   C380      1.0  0.78861  0.06791  0.65420  1.0000
  H   H599      1.0  0.80962  0.27559  0.80696  1.0000
  C   C381      1.0  0.81521  0.26366  0.78578  1.0000
  H   H600      1.0  0.85787  0.11378  0.67801  1.0000
  H   H601      1.0  0.68574  0.25452  0.64477  1.0000
  C   C382      1.0  0.71714  0.26937  0.59679  1.0000
  S   S151      1.0  0.79690  0.13697  0.67751  1.0000
  N   N38       1.0  0.79714  0.24279  0.78161  1.0000
  H   H602      1.0  0.76189  0.24117  0.60392  1.0000
  H   H603      1.0  0.78546  0.20906  0.80722  1.0000
  H   H604      1.0  0.59222  0.23366  0.91100  1.0000
  C   C383      1.0  0.68394  0.23588  0.00880  1.0000
  H   H605      1.0  0.78028  0.08673  0.66069  1.0000
  H   H606      1.0  0.87992  0.10764  0.72950  1.0000
  H   H607      1.0  0.87493  0.08552  0.66217  1.0000
  H   H608      1.0  0.75613  0.23908  0.77509  1.0000
  C   C384      1.0  0.69137  0.27379  0.03984  1.0000
  H   H609      1.0  0.76726  0.20493  0.57118  1.0000
  C   C385      1.0  0.71315  0.22347  0.60428  1.0000
  C   C386      1.0  0.74997  0.24409  0.62602  1.0000
  H   H610      1.0  0.81469  0.08468  0.71163  1.0000
  C   C387      1.0  0.56309  0.28851  0.87917  1.0000
  H   H611      1.0  0.72347  0.28766  0.60713  1.0000
  N   N39       1.0  0.72184  0.24726  0.61903  1.0000
  H   H612      1.0  0.89788  0.07976  0.71394  1.0000
  Fe  Fe77      1.0  0.81219  0.18645  0.61064  1.0000
  C   C388      1.0  0.58970  0.25102  0.89644  1.0000
  H   H613      1.0  0.63291  0.26583  0.93477  1.0000
  Fe  Fe78      1.0  0.90837  0.29715  0.72481  1.0000
  H   H614      1.0  0.87827  0.24283  0.58385  1.0000
  C   C389      1.0  0.80206  0.06466  0.62526  1.0000
  H   H615      1.0  0.83558  0.25570  0.78909  1.0000
  H   H616      1.0  0.76406  0.26492  0.80047  1.0000
  C   C390      1.0  0.77029  0.25421  0.77863  1.0000
  H   H617      1.0  0.79082  0.21255  0.74836  1.0000
  H   H618      1.0  0.80412  0.24090  0.73095  1.0000
  S   S152      1.0  0.80525  0.19883  0.66116  1.0000
  H   H619      1.0  0.76848  0.26812  0.75825  1.0000
  H   H620      1.0  0.71313  0.26986  0.66097  1.0000
  C   C391      1.0  0.79869  0.22516  0.80961  1.0000
  Fe  Fe79      1.0  0.80494  0.12972  0.62560  1.0000
  S   S153      1.0  0.99985  0.28569  0.67957  1.0000
  H   H621      1.0  0.56986  0.23725  0.82209  1.0000
  S   S154      1.0  0.88465  0.27322  0.75819  1.0000
  C   C392      1.0  0.83248  0.08911  0.72494  1.0000
  S   S155      1.0  0.85867  0.16158  0.71366  1.0000
  C   C393      1.0  0.87962  0.24205  0.74433  1.0000
  C   C394      1.0  0.87283  0.23799  0.71261  1.0000
  C   C395      1.0  0.86655  0.21321  0.70285  1.0000
  C   C396      1.0  0.86775  0.19241  0.72461  1.0000
  C   C397      1.0  0.87521  0.19643  0.75605  1.0000
  C   C398      1.0  0.88065  0.22127  0.76602  1.0000
  H   H622      1.0  0.87188  0.25403  0.69581  1.0000
  H   H623      1.0  0.86106  0.21015  0.67844  1.0000
  H   H624      1.0  0.87615  0.18045  0.77295  1.0000
  H   H625      1.0  0.88587  0.22434  0.79055  1.0000
  C   C399      1.0  0.68211  0.24899  0.03787  1.0000
  H   H626      1.0  0.65009  0.28848  0.99567  1.0000
  C   C400      1.0  0.85733  0.28927  0.56572  1.0000
  H   H627      1.0  0.69183  0.22482  0.59976  1.0000
  S   S156      1.0  0.80786  0.09142  0.60044  1.0000
  S   S157      1.0  0.82173  0.21413  0.57092  1.0000
  H   H628      1.0  0.05532  0.27577  0.68333  1.0000
  H   H629      1.0  0.64601  0.28891  0.90721  1.0000
  S   S158      1.0  0.84021  0.15328  0.62329  1.0000
  H   H630      1.0  0.79289  0.23541  0.83197  1.0000
  H   H631      1.0  0.71721  0.20618  0.61990  1.0000
  S   S159      1.0  0.63250  0.29116  0.83343  1.0000
  Fe  Fe80      1.0  0.82999  0.16332  0.67381  1.0000
  H   H632      1.0  0.81875  0.21633  0.81273  1.0000
  N   N40       1.0  0.63362  0.30456  0.95243  1.0000
  C   C401      1.0  0.87943  0.08632  0.72624  1.0000
  S   S160      1.0  0.92230  0.28946  0.67477  1.0000
  H   H633      1.0  0.84250  0.27609  0.57496  1.0000
  H   H634      1.0  0.71019  0.23575  0.66629  1.0000
  H   H635      1.0  0.86389  0.30064  0.58620  1.0000
  H   H636      1.0  0.56024  0.20441  0.82012  1.0000
  N   N41       1.0  0.85641  0.07979  0.70781  1.0000
  H   H637      1.0  0.59408  0.29722  0.94105  1.0000
  H   H638      1.0  0.83101  0.07988  0.74895  1.0000
  H   H639      1.0  0.84004  0.08838  0.66166  1.0000
  H   H640      1.0  0.70970  0.30451  0.01499  1.0000
  H   H641      1.0  0.61784  0.27923  0.98789  1.0000
  H   H642      1.0  0.89948  0.26768  0.59470  1.0000
  H   H643      1.0  0.90660  0.30406  0.55755  1.0000
  C   C402      1.0  0.89213  0.25684  0.57415  1.0000
  Fe  Fe81      1.0  0.96020  0.30511  0.68986  1.0000
  C   C403      1.0  0.02587  0.30576  0.67237  1.0000
  H   H644      1.0  0.87538  0.46216  0.50431  1.0000
  S   S161      1.0  0.70762  0.34646  0.10346  1.0000
  C   C404      1.0  0.01763  0.32229  0.38591  1.0000
  S   S162      1.0  0.91501  0.33289  0.38042  1.0000
  C   C405      1.0  0.72172  0.36706  0.13023  1.0000
  H   H645      1.0  0.69052  0.36646  0.16493  1.0000
  C   C406      1.0  0.75855  0.39148  0.14480  1.0000
  H   H646      1.0  0.75596  0.37083  0.10093  1.0000
  H   H647      1.0  0.74592  0.31542  0.20829  1.0000
  C   C407      1.0  0.88644  0.40696  0.26434  1.0000
  S   S163      1.0  0.87228  0.40006  0.37191  1.0000
  H   H648      1.0  0.04285  0.33655  0.34911  1.0000
  H   H649      1.0  0.88330  0.53046  0.21785  1.0000
  C   C408      1.0  0.70948  0.37347  0.15928  1.0000
  C   C409      1.0  0.72173  0.38921  0.18094  1.0000
  C   C410      1.0  0.74618  0.37619  0.12299  1.0000
  S   S164      1.0  0.89298  0.41073  0.22330  1.0000
  H   H650      1.0  0.71223  0.39431  0.20332  1.0000
  C   C411      1.0  0.04187  0.32594  0.37145  1.0000
  H   H651      1.0  0.87659  0.49176  0.27381  1.0000
  H   H652      1.0  0.80983  0.34379  0.22184  1.0000
  C   C412      1.0  0.82996  0.54925  0.21145  1.0000
  S   S165      1.0  0.76230  0.41691  0.20120  1.0000
  H   H653      1.0  0.77775  0.39769  0.13930  1.0000
  C   C413      1.0  0.74630  0.39825  0.17368  1.0000
  Fe  Fe82      1.0  0.80117  0.42650  0.18099  1.0000
  C   C414      1.0  0.85793  0.41263  0.31059  1.0000
  S   S166      1.0  0.80510  0.44249  0.13139  1.0000
  H   H654      1.0  0.85675  0.49529  0.23893  1.0000
  C   C415      1.0  0.79945  0.32695  0.16319  1.0000
  Fe  Fe83      1.0  0.90109  0.37241  0.39645  1.0000
  H   H655      1.0  0.79226  0.34576  0.15243  1.0000
  S   S167      1.0  0.94074  0.38422  0.40958  1.0000
  Fe  Fe84      1.0  0.93094  0.36817  0.45789  1.0000
  H   H656      1.0  0.77830  0.33861  0.23902  1.0000
  H   H657      1.0  0.84665  0.42228  0.26228  1.0000
  Fe  Fe85      1.0  0.95406  0.34341  0.39803  1.0000
  C   C416      1.0  0.75725  0.31994  0.18637  1.0000
  C   C417      1.0  0.89913  0.36652  0.53398  1.0000
  S   S168      1.0  0.89043  0.35881  0.44554  1.0000
  S   S169      1.0  0.83406  0.38675  0.08195  1.0000
  H   H658      1.0  0.78863  0.50049  0.05077  1.0000
  H   H659      1.0  0.88901  0.36717  0.51164  1.0000
  H   H660      1.0  0.91729  0.38629  0.33244  1.0000
  H   H661      1.0  0.92510  0.39084  0.27422  1.0000
  H   H662      1.0  0.84873  0.46835  0.45490  1.0000
  C   C418      1.0  0.80804  0.49771  0.06219  1.0000
  H   H663      1.0  0.82138  0.54710  0.23494  1.0000
  H   H664      1.0  0.80530  0.48714  0.08516  1.0000
  S   S170      1.0  0.93874  0.38993  0.50245  1.0000
  S   S171      1.0  0.83052  0.39339  0.17438  1.0000
  C   C419      1.0  0.87443  0.41198  0.05427  1.0000
  C   C420      1.0  0.90629  0.39684  0.28429  1.0000
  C   C421      1.0  0.90188  0.39424  0.31725  1.0000
  H   H665      1.0  0.92445  0.48493  0.26834  1.0000
  H   H666      1.0  0.92256  0.42635  0.45162  1.0000
  Fe  Fe86      1.0  0.85911  0.42125  0.19119  1.0000
  S   S172      1.0  0.82920  0.45318  0.20219  1.0000
  C   C422      1.0  0.89258  0.45755  0.48864  1.0000
  C   C423      1.0  0.90838  0.43968  0.43879  1.0000
  Fe  Fe87      1.0  0.83615  0.46588  0.15155  1.0000
  H   H667      1.0  0.87592  0.48199  0.43472  1.0000
  S   S173      1.0  0.94829  0.32845  0.44784  1.0000
  S   S174      1.0  0.86807  0.43566  0.14173  1.0000
  H   H668      1.0  0.86611  0.41182  0.44373  1.0000
  C   C424      1.0  0.86679  0.46356  0.44081  1.0000
  Fe  Fe88      1.0  0.83636  0.41097  0.12591  1.0000
  H   H669      1.0  0.87221  0.46435  0.24912  1.0000
  H   H670      1.0  0.88082  0.41563  0.07814  1.0000
  C   C425      1.0  0.92147  0.47860  0.24347  1.0000
  H   H671      1.0  0.91986  0.45718  0.24426  1.0000
  H   H672      1.0  0.81554  0.44604  0.05702  1.0000
  H   H673      1.0  0.83918  0.41875  0.32073  1.0000
  C   C426      1.0  0.87775  0.40230  0.33050  1.0000
  H   H674      1.0  0.90231  0.52776  0.25342  1.0000
  H   H675      1.0  0.86084  0.45482  0.41799  1.0000
  H   H676      1.0  0.93928  0.48250  0.22931  1.0000
  N   N42       1.0  0.88490  0.44563  0.45856  1.0000
  C   C427      1.0  0.83060  0.52854  0.19005  1.0000
  H   H677      1.0  0.74895  0.33854  0.17659  1.0000
  H   H678      1.0  0.91167  0.48767  0.18091  1.0000
  H   H679      1.0  0.88511  0.40762  0.47945  1.0000
  H   H680      1.0  0.82232  0.51057  0.19699  1.0000
  C   C428      1.0  0.87194  0.42150  0.46594  1.0000
  H   H681      1.0  0.85407  0.42516  0.48075  1.0000
  H   H682      1.0  0.90626  0.44420  0.50237  1.0000
  C   C429      1.0  0.86215  0.41466  0.27750  1.0000
  H   H683      1.0  0.89364  0.46138  0.19584  1.0000
  S   S175      1.0  0.84316  0.50579  0.13242  1.0000
  H   H684      1.0  0.82069  0.32822  0.16734  1.0000
  C   C430      1.0  0.90057  0.52008  0.22892  1.0000
  H   H685      1.0  0.90336  0.43025  0.41610  1.0000
  N   N43       1.0  0.89798  0.49178  0.22939  1.0000
  H   H686      1.0  0.78142  0.36128  0.20674  1.0000
  C   C431      1.0  0.87486  0.48556  0.24867  1.0000
  H   H687      1.0  0.91860  0.45742  0.43244  1.0000
  C   C432      1.0  0.84139  0.53143  0.15954  1.0000
  C   C433      1.0  0.89495  0.48273  0.19645  1.0000
  H   H688      1.0  0.87697  0.49156  0.18541  1.0000
  H   H689      1.0  0.90261  0.47574  0.48406  1.0000
  S   S176      1.0  0.98904  0.33405  0.36669  1.0000
  S   S177      1.0  0.68620  0.30723  0.18132  1.0000
  Fe  Fe89      1.0  0.90833  0.32039  0.43122  1.0000
  H   H690      1.0  0.91797  0.52547  0.21487  1.0000
  C   C434      1.0  0.78889  0.34210  0.21622  1.0000
  H   H691      1.0  0.81471  0.51709  0.06837  1.0000
  H   H692      1.0  0.85140  0.46859  0.07932  1.0000
  N   N44       1.0  0.78526  0.32130  0.19311  1.0000
  C   C435      1.0  0.92378  0.37644  0.53617  1.0000
  H   H693      1.0  0.85964  0.49959  0.06405  1.0000
  C   C436      1.0  0.01648  0.30837  0.41466  1.0000
  H   H694      1.0  0.74185  0.33374  0.05140  1.0000
  H   H695      1.0  0.79701  0.31175  0.14512  1.0000
  C   C437      1.0  0.85255  0.48056  0.05715  1.0000
  H   H696      1.0  0.67045  0.31004  0.29179  1.0000
  Fe  Fe90      1.0  0.69080  0.31266  0.12866  1.0000
  C   C438      1.0  0.85144  0.55505  0.15046  1.0000
  H   H697      1.0  0.77610  0.32537  0.05353  1.0000
  H   H698      1.0  0.56195  0.31097  0.22084  1.0000
  H   H699      1.0  0.88941  0.30665  0.52037  1.0000
  H   H700      1.0  0.73776  0.33529  0.97893  1.0000
  C   C439      1.0  0.76029  0.33364  0.87773  1.0000
  C   C440      1.0  0.76537  0.34072  0.84610  1.0000
  H   H701      1.0  0.86790  0.34894  0.55932  1.0000
  C   C441      1.0  0.02125  0.33175  0.66377  1.0000
  H   H702      1.0  0.85856  0.35084  0.86579  1.0000
  H   H703      1.0  0.58094  0.31318  0.84439  1.0000
  C   C442      1.0  0.76948  0.37331  0.02934  1.0000
  C   C443      1.0  0.91753  0.39829  0.77622  1.0000
  C   C444      1.0  0.77566  0.37424  0.89594  1.0000
  H   H704      1.0  0.81965  0.33209  0.79672  1.0000
  H   H705      1.0  0.95542  0.38367  0.56747  1.0000
  H   H706      1.0  0.03647  0.38231  0.78293  1.0000
  H   H707      1.0  0.89060  0.32332  0.81139  1.0000
  H   H708      1.0  0.05322  0.35211  0.79396  1.0000
  H   H709      1.0  0.79229  0.35593  0.97541  1.0000
  C   C445      1.0  0.76527  0.35038  0.90252  1.0000
  H   H710      1.0  0.02088  0.36692  0.71714  1.0000
  N   N45       1.0  0.76463  0.34897  0.01293  1.0000
  C   C446      1.0  0.77595  0.36453  0.83937  1.0000
  C   C447      1.0  0.84477  0.51575  0.80197  1.0000
  C   C448      1.0  0.87936  0.41776  0.99696  1.0000
  H   H711      1.0  0.76099  0.34470  0.92676  1.0000
  C   C449      1.0  0.93640  0.37591  0.56560  1.0000
  C   C450      1.0  0.89777  0.40540  0.75471  1.0000
  H   H712      1.0  0.77922  0.37033  0.81486  1.0000
  H   H713      1.0  0.74479  0.36873  0.97405  1.0000
  H   H714      1.0  0.99080  0.35281  0.72757  1.0000
  C   C451      1.0  0.78136  0.38124  0.86435  1.0000
  H   H715      1.0  0.83173  0.44647  0.01912  1.0000
  H   H716      1.0  0.90458  0.43335  0.03160  1.0000
  S   S178      1.0  0.78118  0.39499  0.92756  1.0000
  Fe  Fe91      1.0  0.81944  0.48277  0.91408  1.0000
  C   C452      1.0  0.00175  0.34565  0.79021  1.0000
  S   S179      1.0  0.80051  0.45823  0.87830  1.0000
  S   S180      1.0  0.80229  0.52213  0.92771  1.0000
  H   H717      1.0  0.78917  0.39980  0.85911  1.0000
  Fe  Fe92      1.0  0.80821  0.42544  0.91281  1.0000
  C   C453      1.0  0.81773  0.45765  0.03469  1.0000
  S   S181      1.0  0.94899  0.34651  0.67758  1.0000
  S   S182      1.0  0.89331  0.33781  0.71517  1.0000
  Fe  Fe93      1.0  0.91010  0.33129  0.66600  1.0000
  S   S183      1.0  0.88504  0.34029  0.62314  1.0000
  Fe  Fe94      1.0  0.93343  0.34868  0.72772  1.0000
  H   H718      1.0  0.82843  0.38071  0.01471  1.0000
  H   H719      1.0  0.99891  0.38252  0.74533  1.0000
  H   H720      1.0  0.98458  0.33514  0.78268  1.0000
  H   H721      1.0  0.77387  0.38895  0.01190  1.0000
  N   N46       1.0  0.02032  0.34863  0.76343  1.0000
  C   C454      1.0  0.90008  0.35490  0.59028  1.0000
  H   H722      1.0  0.89413  0.35557  0.82591  1.0000
  C   C455      1.0  0.60773  0.31317  0.94002  1.0000
  H   H723      1.0  0.84502  0.33633  0.76745  1.0000
  C   C456      1.0  0.88799  0.42181  0.02794  1.0000
  H   H724      1.0  0.00167  0.33934  0.65934  1.0000
  C   C457      1.0  0.85812  0.40254  0.99227  1.0000
  H   H725      1.0  0.01092  0.33467  0.81050  1.0000
  C   C458      1.0  0.92474  0.36479  0.59253  1.0000
  H   H726      1.0  0.79941  0.51006  0.83241  1.0000
  H   H727      1.0  0.88826  0.35054  0.78458  1.0000
  H   H728      1.0  0.82760  0.34044  0.85346  1.0000
  H   H729      1.0  0.01330  0.31200  0.74228  1.0000
  H   H730      1.0  0.85570  0.31816  0.85274  1.0000
  H   H731      1.0  0.83226  0.50210  0.78979  1.0000
  S   S184      1.0  0.82266  0.45096  0.95037  1.0000
  C   C459      1.0  0.78771  0.34083  0.99344  1.0000
  C   C460      1.0  0.75955  0.32856  0.03681  1.0000
  S   S185      1.0  0.94367  0.37716  0.76486  1.0000
  C   C461      1.0  0.74175  0.35317  0.99210  1.0000
  H   H732      1.0  0.80528  0.33724  0.00848  1.0000
  H   H733      1.0  0.93476  0.36410  0.61499  1.0000
  H   H734      1.0  0.84465  0.48809  0.99488  1.0000
  H   H735      1.0  0.03822  0.36826  0.65466  1.0000
  C   C462      1.0  0.04278  0.36270  0.77423  1.0000
  C   C463      1.0  0.87504  0.43075  0.79583  1.0000
  H   H736      1.0  0.65402  0.33301  0.92576  1.0000
  H   H737      1.0  0.84952  0.38085  0.78561  1.0000
  H   H738      1.0  0.59877  0.32955  0.95397  1.0000
  H   H739      1.0  0.79877  0.53822  0.78375  1.0000
  N   N47       1.0  0.85476  0.34678  0.81512  1.0000
  C   C464      1.0  0.85275  0.39736  0.04957  1.0000
  C   C465      1.0  0.88317  0.34388  0.80908  1.0000
  H   H740      1.0  0.99408  0.36478  0.79917  1.0000
  C   C466      1.0  0.04204  0.34806  0.66091  1.0000
  H   H741      1.0  0.82434  0.51315  0.86132  1.0000
  H   H742      1.0  0.64329  0.34300  0.96498  1.0000
  C   C467      1.0  0.84579  0.37415  0.81044  1.0000
  H   H743      1.0  0.93150  0.40216  0.82410  1.0000
  C   C468      1.0  0.65113  0.32625  0.95082  1.0000
  C   C469      1.0  0.84505  0.39209  0.01853  1.0000
  H   H744      1.0  0.85580  0.38698  0.82681  1.0000
  H   H745      1.0  0.83638  0.51781  0.01504  1.0000
  C   C470      1.0  0.81226  0.55095  0.79584  1.0000
  H   H746      1.0  0.79985  0.53870  0.85624  1.0000
  H   H747      1.0  0.79859  0.45895  0.02249  1.0000
  S   S186      1.0  0.84770  0.41348  0.89331  1.0000
  H   H748      1.0  0.67077  0.32034  0.96030  1.0000
  S   S187      1.0  0.85991  0.47556  0.89458  1.0000
  C   C471      1.0  0.91620  0.40765  0.80742  1.0000
  Fe  Fe95      1.0  0.84140  0.44845  0.86150  1.0000
  S   S188      1.0  0.84718  0.44897  0.80842  1.0000
  Fe  Fe96      1.0  0.86182  0.44164  0.92851  1.0000
  S   S189      1.0  0.89318  0.43395  0.96449  1.0000
  H   H749      1.0  0.85775  0.52405  0.78359  1.0000
  H   H750      1.0  0.85849  0.52392  0.92541  1.0000
  H   H751      1.0  0.85153  0.39908  0.96838  1.0000
  H   H752      1.0  0.89882  0.39833  0.73053  1.0000
  C   C472      1.0  0.84116  0.33054  0.79266  1.0000
  C   C473      1.0  0.89477  0.42357  0.81738  1.0000
  H   H753      1.0  0.89351  0.43027  0.84171  1.0000
  C   C474      1.0  0.82992  0.49802  0.01090  1.0000
  C   C475      1.0  0.81237  0.52401  0.84318  1.0000
  H   H754      1.0  0.86147  0.42753  0.74768  1.0000
  H   H755      1.0  0.81124  0.49997  0.99763  1.0000
  H   H756      1.0  0.72389  0.35889  0.00615  1.0000
  C   C476      1.0  0.87677  0.42205  0.76435  1.0000
  C   C477      1.0  0.84995  0.54306  0.92060  1.0000
  N   N48       1.0  0.82895  0.53611  0.81886  1.0000
  H   H757      1.0  0.85733  0.50395  0.81877  1.0000
  C   C478      1.0  0.00721  0.36336  0.73721  1.0000
  C   C479      1.0  0.82291  0.54761  0.92133  1.0000
  C   C480      1.0  0.84893  0.33865  0.84823  1.0000
  H   H758      1.0  0.82458  0.37730  0.81512  1.0000
  S   S190      1.0  0.75797  0.31982  0.81530  1.0000
  C   C481      1.0  0.88713  0.35621  0.56108  1.0000
  H   H759      1.0  0.62304  0.31135  0.00155  1.0000
  H   H760      1.0  0.60902  0.31964  0.91463  1.0000
  H   H761      1.0  0.75238  0.31527  0.88332  1.0000
  H   H762      1.0  0.78449  0.32277  0.98024  1.0000
  H   H763      1.0  0.04430  0.32443  0.73257  1.0000
  C   C482      1.0  0.02956  0.32282  0.75197  1.0000
  N   N49       1.0  0.82704  0.48351  0.04123  1.0000
  H   H764      1.0  0.84790  0.30982  0.79519  1.0000
  H   H765      1.0  0.75223  0.38022  0.04379  1.0000
  H   H766      1.0  0.86762  0.47097  0.04139  1.0000
  H   H767      1.0  0.03879  0.31074  0.77131  1.0000
  C   C483      1.0  0.84639  0.55370  0.83451  1.0000
  H   H768      1.0  0.75637  0.30977  0.02520  1.0000
  S   S191      1.0  0.94742  0.30841  0.74091  1.0000
  H   H769      1.0  0.78636  0.37081  0.04576  1.0000
  H   H770      1.0  0.85943  0.54303  0.85180  1.0000
  S   S192      1.0  0.69760  0.30667  0.87010  1.0000
  H   H771      1.0  0.77980  0.70197  0.22283  1.0000
  S   S193      1.0  0.79302  0.71285  0.15628  1.0000
  H   H772      1.0  0.74626  0.72301  0.25869  1.0000
  C   C484      1.0  0.76839  0.72528  0.18183  1.0000
  C   C485      1.0  0.76660  0.71724  0.21375  1.0000
  H   H773      1.0  0.64191  0.76798  0.23734  1.0000
  C   C486      1.0  0.88161  0.75902  0.32683  1.0000
  H   H774      1.0  0.73908  0.77681  0.07633  1.0000
  S   S194      1.0  0.70700  0.76424  0.24717  1.0000
  C   C487      1.0  0.80732  0.79784  0.40930  1.0000
  S   S195      1.0  0.66141  0.78342  0.17741  1.0000
  H   H775      1.0  0.84720  0.80378  0.23456  1.0000
  H   H776      1.0  0.82347  0.78483  0.39962  1.0000
  C   C488      1.0  0.75096  0.74468  0.17005  1.0000
  H   H777      1.0  0.65041  0.73511  0.24766  1.0000
  C   C489      1.0  0.73200  0.75634  0.19012  1.0000
  C   C490      1.0  0.73035  0.74873  0.22214  1.0000
  C   C491      1.0  0.03414  0.76380  0.39655  1.0000
  H   H778      1.0  0.71868  0.77127  0.18066  1.0000
  N   N50       1.0  0.62704  0.75617  0.28272  1.0000
  H   H779      1.0  0.63242  0.71640  0.29758  1.0000
  H   H780      1.0  0.59994  0.72611  0.28516  1.0000
  H   H781      1.0  0.97292  0.79310  0.49830  1.0000
  H   H782      1.0  0.75226  0.75091  0.14540  1.0000
  H   H783      1.0  0.64528  0.76843  0.32554  1.0000
  H   H784      1.0  0.58879  0.77194  0.27015  1.0000
  C   C492      1.0  0.60634  0.77720  0.28345  1.0000
  C   C493      1.0  0.65005  0.76415  0.30016  1.0000
  H   H785      1.0  0.82381  0.73850  0.25436  1.0000
  H   H786      1.0  0.61142  0.73611  0.32314  1.0000
  C   C494      1.0  0.80248  0.78049  0.22530  1.0000
  C   C495      1.0  0.61726  0.73263  0.29785  1.0000
  C   C496      1.0  0.83031  0.74155  0.22927  1.0000
  H   H787      1.0  0.80705  0.79514  0.43568  1.0000
  Fe  Fe97      1.0  0.68570  0.79504  0.21801  1.0000
  C   C497      1.0  0.63454  0.75061  0.24930  1.0000
  H   H788      1.0  0.79597  0.77833  0.25056  1.0000
  H   H789      1.0  0.65800  0.78182  0.28932  1.0000
  C   C498      1.0  0.86509  0.73992  0.31732  1.0000
  H   H790      1.0  0.78827  0.77077  0.21035  1.0000
  H   H791      1.0  0.01967  0.79123  0.43141  1.0000
  C   C499      1.0  0.74760  0.72908  0.23397  1.0000
  Fe  Fe98      1.0  0.87385  0.66078  0.14852  1.0000
  S   S196      1.0  0.89439  0.65658  0.10126  1.0000
  Fe  Fe99      1.0  0.87597  0.68585  0.21378  1.0000
  S   S197      1.0  0.83559  0.67498  0.22746  1.0000
  C   C500      1.0  0.89372  0.72953  0.27231  1.0000
  Fe  Fe100     1.0  0.84806  0.63653  0.20569  1.0000
  C   C501      1.0  0.95918  0.68010  0.32954  1.0000
  S   S198      1.0  0.88931  0.64658  0.19572  1.0000
  S   S199      1.0  0.86430  0.70082  0.16549  1.0000
  C   C502      1.0  0.85041  0.68267  0.07881  1.0000
  H   H792      1.0  0.85039  0.73264  0.22661  1.0000
  S   S200      1.0  0.91648  0.79865  0.50269  1.0000
  H   H793      1.0  0.85881  0.59380  0.16471  1.0000
  H   H794      1.0  0.91425  0.70805  0.33079  1.0000
  C   C503      1.0  0.78318  0.75054  0.05797  1.0000
  C   C504      1.0  0.73666  0.75783  0.06484  1.0000
  S   S201      1.0  0.83370  0.64730  0.15672  1.0000
  H   H795      1.0  0.95222  0.66231  0.34123  1.0000
  H   H796      1.0  0.84208  0.67991  0.10225  1.0000
  N   N51       1.0  0.95303  0.70319  0.34917  1.0000
  H   H797      1.0  0.91901  0.72452  0.36743  1.0000
  H   H798      1.0  0.96140  0.71699  0.39586  1.0000
  H   H799      1.0  0.98055  0.67708  0.32536  1.0000
  H   H800      1.0  0.98744  0.69794  0.37784  1.0000
  C   C505      1.0  0.87130  0.72495  0.29023  1.0000
  S   S202      1.0  0.83918  0.59863  0.22929  1.0000
  S   S203      1.0  0.90372  0.71017  0.23996  1.0000
  Fe  Fe101     1.0  0.82502  0.68666  0.17710  1.0000
  H   H801      1.0  0.94974  0.68204  0.30573  1.0000
  C   C506      1.0  0.92452  0.70657  0.35397  1.0000
  H   H802      1.0  0.84805  0.73603  0.33159  1.0000
  H   H803      1.0  0.85922  0.70941  0.28381  1.0000
  C   C507      1.0  0.87622  0.67421  0.07237  1.0000
  H   H804      1.0  0.91673  0.69001  0.36746  1.0000
  C   C508      1.0  0.96583  0.69991  0.38046  1.0000
  H   H805      1.0  0.95938  0.68257  0.39359  1.0000
  C   C509      1.0  0.94083  0.79518  0.53174  1.0000
  C   C510      1.0  0.96259  0.72623  0.33260  1.0000
  H   H806      1.0  0.95441  0.72855  0.30826  1.0000
  H   H807      1.0  0.95720  0.74422  0.34595  1.0000
  H   H808      1.0  0.84281  0.78056  0.26617  1.0000
  H   H809      1.0  0.78393  0.73571  0.07751  1.0000
  Fe  Fe102     1.0  0.96873  0.77970  0.40105  1.0000
  S   S204      1.0  0.93198  0.76449  0.42164  1.0000
  S   S205      1.0  0.00326  0.75335  0.38660  1.0000
  H   H810      1.0  0.92669  0.75314  0.26704  1.0000
  Fe  Fe103     1.0  0.91109  0.79012  0.38561  1.0000
  H   H811      1.0  0.91610  0.77895  0.31516  1.0000
  H   H812      1.0  0.85680  0.76322  0.18179  1.0000
  C   C511      1.0  0.84759  0.78273  0.24033  1.0000
  H   H813      1.0  0.78698  0.76943  0.06880  1.0000
  H   H814      1.0  0.60013  0.78202  0.30825  1.0000
  H   H815      1.0  0.66623  0.74890  0.29952  1.0000
  H   H816      1.0  0.81765  0.73059  0.21375  1.0000
  C   C512      1.0  0.83994  0.57292  0.20229  1.0000
  H   H817      1.0  0.82339  0.76156  0.17071  1.0000
  C   C513      1.0  0.85077  0.57573  0.17179  1.0000
  H   H818      1.0  0.61769  0.74478  0.23514  1.0000
  C   C514      1.0  0.98636  0.79233  0.54673  1.0000
  H   H819      1.0  0.73613  0.74297  0.08425  1.0000
  S   S206      1.0  0.87516  0.77589  0.36233  1.0000
  C   C515      1.0  0.83677  0.77183  0.18634  1.0000
  C   C516      1.0  0.96721  0.79352  0.52311  1.0000
  C   C517      1.0  0.90953  0.74933  0.28113  1.0000
  C   C518      1.0  0.03652  0.78353  0.41853  1.0000
  C   C519      1.0  0.90362  0.76389  0.30843  1.0000
  H   H820      1.0  0.86799  0.77473  0.23685  1.0000
  Fe  Fe104     1.0  0.93083  0.79988  0.45192  1.0000
  H   H821      1.0  0.98421  0.72498  0.33013  1.0000
  H   H822      1.0  0.00676  0.79113  0.53994  1.0000
  N   N52       1.0  0.82927  0.76922  0.22032  1.0000
  H   H823      1.0  0.78871  0.79119  0.39994  1.0000
  H   H824      1.0  0.81461  0.69914  0.05939  1.0000
  S   S207      1.0  0.94796  0.80214  0.36198  1.0000
  C   C520      1.0  0.83485  0.69378  0.05452  1.0000
  H   H825      1.0  0.80095  0.80146  0.21907  1.0000
  H   H826      1.0  0.85428  0.60112  0.05824  1.0000
  H   H827      1.0  0.71723  0.75908  0.05327  1.0000
  S   S208      1.0  0.59215  0.79558  0.20285  1.0000
  H   H828      1.0  0.61294  0.79523  0.27199  1.0000
  H   H829      1.0  0.83628  0.79245  0.17854  1.0000
  H   H830      1.0  0.05488  0.73776  0.36417  1.0000
  H   H831      1.0  0.85992  0.55736  0.12696  1.0000
  C   C521      1.0  0.05652  0.75316  0.38108  1.0000
  H   H832      1.0  0.02335  0.80580  0.34880  1.0000
  H   H833      1.0  0.77982  0.70922  0.91619  1.0000
  H   H834      1.0  0.84265  0.63349  0.04807  1.0000
  S   S209      1.0  0.78202  0.70512  0.84821  1.0000
  C   C522      1.0  0.76606  0.72346  0.90608  1.0000
  H   H835      1.0  0.77992  0.79582  0.87853  1.0000
  H   H836      1.0  0.77325  0.76753  0.99811  1.0000
  S   S210      1.0  0.72232  0.78431  0.93858  1.0000
  H   H837      1.0  0.73873  0.77292  0.00329  1.0000
  H   H838      1.0  0.82507  0.58276  0.01932  1.0000
  C   C523      1.0  0.58007  0.78197  0.88628  1.0000
  H   H839      1.0  0.83513  0.56910  0.84789  1.0000
  Fe  Fe105     1.0  0.98838  0.79706  0.65832  1.0000
  C   C524      1.0  0.73593  0.76061  0.91315  1.0000
  C   C525      1.0  0.74348  0.74260  0.86048  1.0000
  C   C526      1.0  0.73072  0.76097  0.88045  1.0000
  H   H840      1.0  0.71705  0.77544  0.87057  1.0000
  C   C527      1.0  0.85701  0.61752  0.04138  1.0000
  C   C528      1.0  0.75316  0.74152  0.92597  1.0000
  H   H841      1.0  0.73988  0.74312  0.83512  1.0000
  H   H842      1.0  0.96095  0.68734  0.80579  1.0000
  H   H843      1.0  0.61990  0.78787  0.87264  1.0000
  C   C529      1.0  0.88879  0.73332  0.80641  1.0000
  C   C530      1.0  0.88682  0.67810  0.04192  1.0000
  C   C531      1.0  0.90629  0.76022  0.76425  1.0000
  H   H844      1.0  0.82521  0.59371  0.97850  1.0000
  H   H845      1.0  0.58429  0.76237  0.89472  1.0000
  C   C532      1.0  0.87438  0.58969  0.99965  1.0000
  H   H846      1.0  0.75710  0.74105  0.95123  1.0000
  H   H847      1.0  0.81296  0.78998  0.89176  1.0000
  H   H848      1.0  0.79116  0.57635  0.91672  1.0000
  H   H849      1.0  0.90688  0.67188  0.03695  1.0000
  H   H850      1.0  0.88365  0.72719  0.75612  1.0000
  H   H851      1.0  0.73507  0.72632  0.01431  1.0000
  C   C533      1.0  0.76173  0.72430  0.87324  1.0000
  H   H852      1.0  0.76965  0.72096  0.00946  1.0000
  H   H853      1.0  0.76933  0.79152  0.82209  1.0000
  Fe  Fe106     1.0  0.83879  0.69719  0.94378  1.0000
  H   H854      1.0  0.02155  0.72317  0.81166  1.0000
  Fe  Fe107     1.0  0.87236  0.70972  0.88569  1.0000
  S   S211      1.0  0.85558  0.67946  0.85553  1.0000
  C   C534      1.0  0.75393  0.72621  0.02712  1.0000
  Fe  Fe108     1.0  0.85873  0.65439  0.89968  1.0000
  S   S212      1.0  0.87617  0.61342  0.89988  1.0000
  S   S213      1.0  0.87905  0.68351  0.92824  1.0000
  H   H855      1.0  0.96944  0.75693  0.81611  1.0000
  S   S214      1.0  0.81885  0.66607  0.91850  1.0000
  S   S215      1.0  0.90056  0.73910  0.86974  1.0000
  C   C535      1.0  0.99111  0.71146  0.76298  1.0000
  C   C536      1.0  0.75759  0.77170  0.01621  1.0000
  C   C537      1.0  0.97767  0.74921  0.79326  1.0000
  Fe  Fe109     1.0  0.81741  0.69381  0.87697  1.0000
  H   H856      1.0  0.81975  0.61230  0.90482  1.0000
  H   H857      1.0  0.87849  0.71657  0.81358  1.0000
  H   H858      1.0  0.84083  0.77532  0.81145  1.0000
  C   C538      1.0  0.85532  0.58850  0.90836  1.0000
  S   S216      1.0  0.82451  0.70815  0.99302  1.0000
  H   H859      1.0  0.04729  0.77128  0.64557  1.0000
  H   H860      1.0  0.00930  0.72047  0.75499  1.0000
  N   N53       1.0  0.85403  0.60989  0.00783  1.0000
  C   C539      1.0  0.95283  0.79404  0.58768  1.0000
  C   C540      1.0  0.91353  0.76996  0.81974  1.0000
  H   H861      1.0  0.87966  0.69276  0.99439  1.0000
  H   H862      1.0  0.00711  0.69296  0.82023  1.0000
  C   C541      1.0  0.84517  0.69690  0.02381  1.0000
  C   C542      1.0  0.87135  0.68968  0.01774  1.0000
  H   H863      1.0  0.61864  0.80269  0.97775  1.0000
  S   S217      1.0  0.83399  0.72594  0.90390  1.0000
  H   H864      1.0  0.84188  0.64839  0.99217  1.0000
  H   H865      1.0  0.97611  0.71630  0.74455  1.0000
  N   N54       1.0  0.98248  0.72086  0.79473  1.0000
  C   C543      1.0  0.82828  0.59314  0.90959  1.0000
  H   H866      1.0  0.94238  0.71350  0.78676  1.0000
  C   C544      1.0  0.85678  0.63261  0.98663  1.0000
  N   N55       1.0  0.80817  0.78837  0.84089  1.0000
  H   H867      1.0  0.99589  0.75918  0.78824  1.0000
  H   H868      1.0  0.87632  0.64059  0.98887  1.0000
  H   H869      1.0  0.94715  0.79384  0.61251  1.0000
  H   H870      1.0  0.92218  0.78176  0.83745  1.0000
  H   H871      1.0  0.79478  0.76379  0.87845  1.0000
  H   H872      1.0  0.79958  0.74551  0.04112  1.0000
  H   H873      1.0  0.81228  0.61480  0.00914  1.0000
  H   H874      1.0  0.60249  0.80503  0.01596  1.0000
  C   C545      1.0  0.00297  0.71424  0.81836  1.0000
  H   H875      1.0  0.87288  0.58372  0.97439  1.0000
  H   H876      1.0  0.91331  0.79621  0.57091  1.0000
  H   H877      1.0  0.96380  0.75487  0.77396  1.0000
  H   H878      1.0  0.99710  0.72136  0.84248  1.0000
  H   H879      1.0  0.99507  0.69012  0.76310  1.0000
  Fe  Fe110     1.0  0.00794  0.78772  0.72526  1.0000
  S   S218      1.0  0.98583  0.76356  0.69226  1.0000
  H   H880      1.0  0.82932  0.75136  0.83854  1.0000
  H   H881      1.0  0.84781  0.77692  0.85328  1.0000
  H   H882      1.0  0.79456  0.78405  0.79301  1.0000
  Fe  Fe111     1.0  0.95023  0.78491  0.71216  1.0000
  C   C546      1.0  0.97921  0.79277  0.57905  1.0000
  H   H883      1.0  0.92661  0.79282  0.78022  1.0000
  C   C547      1.0  0.90041  0.74817  0.82932  1.0000
  C   C548      1.0  0.91621  0.77614  0.78729  1.0000
  C   C549      1.0  0.89171  0.73937  0.77387  1.0000
  C   C550      1.0  0.60021  0.79638  0.87383  1.0000
  H   H884      1.0  0.87290  0.57218  0.01504  1.0000
  C   C551      1.0  0.95815  0.70877  0.80423  1.0000
  S   S219      1.0  0.91322  0.76502  0.72357  1.0000
  H   H885      1.0  0.95083  0.71573  0.82792  1.0000
  H   H886      1.0  0.85444  0.62758  0.96118  1.0000
  H   H887      1.0  0.78490  0.75963  0.82069  1.0000
  H   H888      1.0  0.76039  0.79117  0.02607  1.0000
  H   H889      1.0  0.80015  0.56652  0.80792  1.0000
  C   C552      1.0  0.78837  0.78062  0.81814  1.0000
  S   S220      1.0  0.04033  0.76530  0.75068  1.0000
  S   S221      1.0  0.00352  0.79187  0.60821  1.0000
  C   C553      1.0  0.81211  0.57274  0.91620  1.0000
  C   C554      1.0  0.83260  0.77238  0.83580  1.0000
  C   C555      1.0  0.79856  0.78441  0.87384  1.0000
  C   C556      1.0  0.82799  0.59980  0.00354  1.0000
  C   C557      1.0  0.93368  0.79527  0.56407  1.0000
  N   N56       1.0  0.75784  0.75158  0.04156  1.0000
  H   H890      1.0  0.89424  0.59683  0.00261  1.0000
  H   H891      1.0  0.87677  0.62443  0.04568  1.0000
  C   C558      1.0  0.56691  0.80137  0.96987  1.0000
  H   H892      1.0  0.85904  0.56343  0.81692  1.0000
  H   H893      1.0  0.75411  0.71049  0.04550  1.0000
  H   H894      1.0  0.57845  0.78763  0.95431  1.0000
  C   C559      1.0  0.86611  0.56343  0.91397  1.0000
  H   H895      1.0  0.56132  0.79063  0.99181  1.0000
  H   H896      1.0  0.86602  0.80083  0.72156  1.0000
  H   H897      1.0  0.88704  0.55977  0.91322  1.0000
  H   H898      1.0  0.82412  0.56028  0.77705  1.0000
  H   H899      1.0  0.74171  0.98197  0.48490  1.0000
  H   H900      1.0  0.01753  0.85487  0.30526  1.0000
  S   S222      1.0  0.64481  0.84516  0.16702  1.0000
  S   S223      1.0  0.90729  0.82466  0.41740  1.0000
  S   S224      1.0  0.69558  0.81173  0.10253  1.0000
  Fe  Fe112     1.0  0.67165  0.85201  0.20784  1.0000
  S   S225      1.0  0.68299  0.89117  0.22339  1.0000
  H   H901      1.0  0.94207  0.88126  0.51225  1.0000
  C   C560      1.0  0.73075  0.88570  0.14809  1.0000
  S   S226      1.0  0.82160  0.88897  0.46607  1.0000
  Fe  Fe113     1.0  0.77800  0.96127  0.39859  1.0000
  S   S227      1.0  0.76563  0.92128  0.41086  1.0000
  S   S228      1.0  0.75425  0.99709  0.41374  1.0000
  H   H902      1.0  0.85254  0.82060  0.40351  1.0000
  Fe  Fe114     1.0  0.77938  0.91122  0.36132  1.0000
  S   S229      1.0  0.76313  0.87721  0.33687  1.0000
  H   H903      1.0  0.72201  0.86504  0.09099  1.0000
  C   C561      1.0  0.68616  0.88633  0.13104  1.0000
  C   C562      1.0  0.77112  0.02559  0.41012  1.0000
  C   C563      1.0  0.80197  0.89319  0.50022  1.0000
  H   H904      1.0  0.73901  0.90610  0.52385  1.0000
  H   H905      1.0  0.68688  0.86485  0.13119  1.0000
  S   S230      1.0  0.78818  0.95206  0.34745  1.0000
  C   C564      1.0  0.01159  0.85565  0.33082  1.0000
  C   C565      1.0  0.77502  0.89800  0.49790  1.0000
  H   H906      1.0  0.80749  0.00622  0.39591  1.0000
  H   H907      1.0  0.79624  0.99495  0.46594  1.0000
  Fe  Fe115     1.0  0.80720  0.91325  0.42455  1.0000
  H   H908      1.0  0.78865  0.84059  0.44023  1.0000
  H   H909      1.0  0.65088  0.84884  0.09840  1.0000
  C   C566      1.0  0.70521  0.88781  0.25509  1.0000
  C   C567      1.0  0.71312  0.86317  0.26652  1.0000
  C   C568      1.0  0.73091  0.86032  0.29155  1.0000
  C   C569      1.0  0.74092  0.88206  0.30545  1.0000
  C   C570      1.0  0.73312  0.90680  0.29408  1.0000
  C   C571      1.0  0.71528  0.90966  0.26885  1.0000
  H   H910      1.0  0.70546  0.84621  0.25626  1.0000
  H   H911      1.0  0.73683  0.84116  0.30028  1.0000
  H   H912      1.0  0.74077  0.92367  0.30475  1.0000
  H   H913      1.0  0.70917  0.92878  0.26017  1.0000
  H   H914      1.0  0.90191  0.88424  0.47922  1.0000
  C   C572      1.0  0.75986  0.90234  0.52559  1.0000
  H   H915      1.0  0.87124  0.87674  0.49684  1.0000
  H   H916      1.0  0.67151  0.89327  0.11308  1.0000
  H   H917      1.0  0.76585  0.95889  0.46994  1.0000
  C   C573      1.0  0.83592  0.83292  0.41313  1.0000
  C   C574      1.0  0.57076  0.84248  0.22364  1.0000
  H   H918      1.0  0.72987  0.93226  0.11871  1.0000
  H   H919      1.0  0.58942  0.85033  0.21841  1.0000
  N   N57       1.0  0.77846  0.98136  0.50912  1.0000
  H   H920      1.0  0.76578  0.89814  0.47491  1.0000
  S   S231      1.0  0.65506  0.82188  0.23981  1.0000
  H   H921      1.0  0.77156  0.01673  0.48235  1.0000
  N   N58       1.0  0.90334  0.87481  0.52939  1.0000
  H   H922      1.0  0.04577  0.81620  0.31865  1.0000
  H   H923      1.0  0.93594  0.84809  0.52008  1.0000
  C   C575      1.0  0.79744  0.02454  0.40134  1.0000
  H   H924      1.0  0.73255  0.86417  0.14813  1.0000
  C   C576      1.0  0.72072  0.88660  0.09186  1.0000
  H   H925      1.0  0.81429  0.84797  0.35745  1.0000
  H   H926      1.0  0.01737  0.86756  0.39180  1.0000
  C   C577      1.0  0.71060  0.92437  0.12410  1.0000
  N   N59       1.0  0.71211  0.89579  0.12374  1.0000
  S   S232      1.0  0.70455  0.82595  0.18986  1.0000
  H   H927      1.0  0.79128  0.86239  0.40718  1.0000
  C   C578      1.0  0.65986  0.84679  0.07515  1.0000
  H   H928      1.0  0.75081  0.00608  0.53492  1.0000
  H   H929      1.0  0.67887  0.89290  0.15487  1.0000
  H   H930      1.0  0.69653  0.93257  0.10615  1.0000
  S   S233      1.0  0.96927  0.81317  0.43442  1.0000
  C   C579      1.0  0.78778  0.00252  0.48878  1.0000
  C   C580      1.0  0.68125  0.82924  0.07060  1.0000
  H   H931      1.0  0.99395  0.84426  0.33390  1.0000
  C   C581      1.0  0.76662  0.05329  0.32105  1.0000
  H   H932      1.0  0.82729  0.81521  0.35434  1.0000
  H   H933      1.0  0.83631  0.83140  0.43963  1.0000
  H   H934      1.0  0.74559  0.04926  0.32052  1.0000
  Fe  Fe116     1.0  0.82800  0.94218  0.36733  1.0000
  C   C582      1.0  0.75804  0.96817  0.49213  1.0000
  C   C583      1.0  0.56713  0.81631  0.21846  1.0000
  H   H935      1.0  0.90720  0.91564  0.52227  1.0000
  C   C584      1.0  0.89867  0.90192  0.53955  1.0000
  H   H936      1.0  0.89548  0.85135  0.48904  1.0000
  H   H937      1.0  0.75050  0.89284  0.14385  1.0000
  H   H938      1.0  0.03971  0.84092  0.40215  1.0000
  H   H939      1.0  0.77009  0.83644  0.40447  1.0000
  Fe  Fe117     1.0  0.94590  0.83462  0.39686  1.0000
  H   H940      1.0  0.05123  0.88190  0.35313  1.0000
  S   S234      1.0  0.95871  0.87315  0.37970  1.0000
  C   C585      1.0  0.02395  0.84740  0.38546  1.0000
  C   C586      1.0  0.76756  0.99198  0.53932  1.0000
  S   S235      1.0  0.86548  0.95287  0.34433  1.0000
  N   N60       1.0  0.03282  0.84568  0.35188  1.0000
  C   C587      1.0  0.93284  0.89567  0.37109  1.0000
  C   C588      1.0  0.90893  0.89472  0.38718  1.0000
  C   C589      1.0  0.88844  0.91279  0.37976  1.0000
  C   C590      1.0  0.89155  0.93137  0.35564  1.0000
  C   C591      1.0  0.91567  0.93260  0.34007  1.0000
  C   C592      1.0  0.93634  0.91493  0.34797  1.0000
  H   H941      1.0  0.90635  0.88045  0.40574  1.0000
  H   H942      1.0  0.87037  0.91248  0.39298  1.0000
  H   H943      1.0  0.91826  0.94709  0.32167  1.0000
  H   H944      1.0  0.95487  0.91591  0.33570  1.0000
  C   C593      1.0  0.93168  0.86813  0.52860  1.0000
  H   H945      1.0  0.00716  0.83518  0.39005  1.0000
  H   H946      1.0  0.83953  0.85333  0.40678  1.0000
  Fe  Fe118     1.0  0.67709  0.81699  0.15104  1.0000
  H   H947      1.0  0.83444  0.88887  0.53205  1.0000
  Fe  Fe119     1.0  0.63151  0.81216  0.19731  1.0000
  N   N61       1.0  0.81092  0.82510  0.40033  1.0000
  H   H948      1.0  0.89339  0.83689  0.54508  1.0000
  H   H949      1.0  0.63374  0.87563  0.05299  1.0000
  S   S236      1.0  0.82031  0.90084  0.37604  1.0000
  H   H950      1.0  0.79252  0.82250  0.35471  1.0000
  C   C594      1.0  0.81367  0.89244  0.53015  1.0000
  C   C595      1.0  0.03988  0.81840  0.34410  1.0000
  H   H951      1.0  0.70403  0.93171  0.14793  1.0000
  H   H952      1.0  0.74019  0.89346  0.08527  1.0000
  C   C596      1.0  0.81130  0.82772  0.36517  1.0000
  H   H953      1.0  0.00544  0.87610  0.33639  1.0000
  S   S237      1.0  0.81843  0.95401  0.41741  1.0000
  H   H954      1.0  0.70675  0.89344  0.07301  1.0000
  C   C597      1.0  0.78926  0.84174  0.41370  1.0000
  H   H955      1.0  0.72432  0.89165  0.17256  1.0000
  C   C598      1.0  0.89254  0.87169  0.49722  1.0000
  H   H956      1.0  0.77321  0.05002  0.34602  1.0000
  H   H957      1.0  0.74967  0.95287  0.50728  1.0000
  C   C599      1.0  0.75824  0.04960  0.41650  1.0000
  H   H958      1.0  0.83136  0.04625  0.39262  1.0000
  H   H959      1.0  0.77745  0.03859  0.30610  1.0000
  H   H960      1.0  0.73784  0.05049  0.42330  1.0000
  C   C600      1.0  0.80045  0.96264  0.51626  1.0000
  C   C601      1.0  0.81093  0.04729  0.39933  1.0000
  H   H961      1.0  0.79425  0.94714  0.53273  1.0000
  H   H962      1.0  0.87747  0.90729  0.54188  1.0000
  H   H963      1.0  0.80837  0.95311  0.49426  1.0000
  H   H964      1.0  0.80304  0.01312  0.50082  1.0000
  H   H965      1.0  0.81666  0.97208  0.52800  1.0000
  C   C602      1.0  0.05584  0.86122  0.34727  1.0000
  H   H966      1.0  0.05656  0.81064  0.35865  1.0000
  Fe  Fe120     1.0  0.66777  0.86285  0.94127  1.0000
  H   H967      1.0  0.61781  0.83242  0.99912  1.0000
  S   S238      1.0  0.64886  0.87737  0.98669  1.0000
  Fe  Fe121     1.0  0.70252  0.86971  0.88200  1.0000
  S   S239      1.0  0.65751  0.82334  0.92699  1.0000
  S   S240      1.0  0.72394  0.89952  0.85398  1.0000
  Fe  Fe122     1.0  0.65391  0.84009  0.87768  1.0000
  S   S241      1.0  0.61965  0.83913  0.84516  1.0000
  H   H968      1.0  0.87430  0.88228  0.71460  1.0000
  S   S242      1.0  0.66052  0.88030  0.89302  1.0000
  S   S243      1.0  0.71070  0.85665  0.93230  1.0000
  Fe  Fe123     1.0  0.78032  0.91667  0.63039  1.0000
  S   S244      1.0  0.75345  0.91167  0.58936  1.0000
  Fe  Fe124     1.0  0.79857  0.89916  0.69646  1.0000
  S   S245      1.0  0.79394  0.86772  0.73396  1.0000
  H   H969      1.0  0.81963  0.81994  0.81095  1.0000
  S   S246      1.0  0.76753  0.92836  0.67974  1.0000
  H   H970      1.0  0.80810  0.89781  0.58049  1.0000
  H   H971      1.0  0.91183  0.85372  0.72887  1.0000
  C   C603      1.0  0.86111  0.86652  0.71988  1.0000
  H   H972      1.0  0.82262  0.03737  0.59437  1.0000
  H   H973      1.0  0.81768  0.99995  0.63098  1.0000
  C   C604      1.0  0.65369  0.90284  0.81281  1.0000
  C   C605      1.0  0.79600  0.02203  0.66647  1.0000
  C   C606      1.0  0.78567  0.04667  0.67479  1.0000
  C   C607      1.0  0.59469  0.82140  0.86193  1.0000
  H   H974      1.0  0.89832  0.85911  0.57669  1.0000
  C   C608      1.0  0.74378  0.89016  0.82114  1.0000
  C   C609      1.0  0.75281  0.90934  0.80058  1.0000
  C   C610      1.0  0.76786  0.90260  0.77350  1.0000
  C   C611      1.0  0.77436  0.87660  0.76714  1.0000
  C   C612      1.0  0.76551  0.85735  0.78779  1.0000
  C   C613      1.0  0.75013  0.86409  0.81468  1.0000
  Fe  Fe125     1.0  0.70004  0.81776  0.91532  1.0000
  H   H975      1.0  0.77035  0.83722  0.78276  1.0000
  H   H976      1.0  0.74330  0.84920  0.83045  1.0000
  C   C614      1.0  0.60619  0.81566  0.99330  1.0000
  H   H977      1.0  0.77472  0.91756  0.75777  1.0000
  S   S247      1.0  0.79406  0.99642  0.69420  1.0000
  H   H978      1.0  0.74803  0.92953  0.80550  1.0000
  C   C615      1.0  0.66126  0.85886  0.01898  1.0000
  H   H979      1.0  0.62884  0.87154  0.77447  1.0000
  H   H980      1.0  0.85495  0.04124  0.72747  1.0000
  H   H981      1.0  0.69036  0.83773  0.99086  1.0000
  H   H982      1.0  0.59924  0.85542  0.95227  1.0000
  H   H983      1.0  0.84413  0.86937  0.70378  1.0000
  C   C616      1.0  0.58764  0.83833  0.94759  1.0000
  C   C617      1.0  0.68199  0.84063  0.01432  1.0000
  S   S248      1.0  0.81011  0.94630  0.62508  1.0000
  C   C618      1.0  0.85635  0.05144  0.70404  1.0000
  C   C619      1.0  0.89052  0.85747  0.55222  1.0000
  H   H984      1.0  0.63986  0.89061  0.82593  1.0000
  N   N62       1.0  0.66445  0.88965  0.78411  1.0000
  C   C620      1.0  0.68288  0.90641  0.76770  1.0000
  C   C621      1.0  0.67829  0.86504  0.79362  1.0000
  C   C622      1.0  0.64297  0.88421  0.76251  1.0000
  H   H985      1.0  0.67308  0.92504  0.75972  1.0000
  H   H986      1.0  0.69201  0.89684  0.74639  1.0000
  H   H987      1.0  0.69898  0.91117  0.78380  1.0000
  H   H988      1.0  0.68722  0.85476  0.77273  1.0000
  H   H989      1.0  0.69420  0.86844  0.81050  1.0000
  H   H990      1.0  0.65040  0.87417  0.74065  1.0000
  H   H991      1.0  0.63197  0.90233  0.75492  1.0000
  H   H992      1.0  0.64303  0.92147  0.80661  1.0000
  H   H993      1.0  0.66944  0.90723  0.82963  1.0000
  S   S249      1.0  0.80860  0.88514  0.64719  1.0000
  Fe  Fe126     1.0  0.80003  0.95568  0.67590  1.0000
  H   H994      1.0  0.56479  0.85160  0.85411  1.0000
  C   C623      1.0  0.88200  0.83759  0.68158  1.0000
  H   H995      1.0  0.59919  0.82575  0.93074  1.0000
  H   H996      1.0  0.66488  0.85176  0.80570  1.0000
  C   C624      1.0  0.69217  0.82610  0.04012  1.0000
  H   H997      1.0  0.83852  0.82208  0.71051  1.0000
  H   H998      1.0  0.77541  0.04932  0.69729  1.0000
  H   H999      1.0  0.70852  0.81238  0.03635  1.0000
  S   S250      1.0  0.87593  0.90609  0.62087  1.0000
  Fe  Fe127     1.0  0.97483  0.83638  0.70925  1.0000
  H   H1000     1.0  0.90743  0.90508  0.56326  1.0000
  S   S251      1.0  0.96387  0.87793  0.71967  1.0000
  C   C625      1.0  0.89804  0.83862  0.73539  1.0000
  S   S252      1.0  0.69561  0.83014  0.86390  1.0000
  C   C626      1.0  0.90259  0.90251  0.64654  1.0000
  C   C627      1.0  0.92444  0.88691  0.63738  1.0000
  C   C628      1.0  0.94414  0.88054  0.65938  1.0000
  C   C629      1.0  0.94220  0.89000  0.69043  1.0000
  C   C630      1.0  0.92140  0.90725  0.69882  1.0000
  C   C631      1.0  0.90155  0.91346  0.67685  1.0000
  H   H1001     1.0  0.92570  0.87878  0.61381  1.0000
  H   H1002     1.0  0.96066  0.86791  0.65248  1.0000
  H   H1003     1.0  0.92006  0.91492  0.72270  1.0000
  H   H1004     1.0  0.88520  0.92626  0.68366  1.0000
  C   C632      1.0  0.56911  0.83225  0.86336  1.0000
  H   H1005     1.0  0.56073  0.83143  0.02142  1.0000
  H   H1006     1.0  0.56959  0.84528  0.93497  1.0000
  Fe  Fe128     1.0  0.83767  0.91576  0.64589  1.0000
  H   H1007     1.0  0.90876  0.81957  0.73234  1.0000
  C   C633      1.0  0.81201  0.03996  0.61661  1.0000
  N   N63       1.0  0.58163  0.82420  0.97738  1.0000
  C   C634      1.0  0.80908  0.01870  0.63724  1.0000
  S   S253      1.0  0.83024  0.92740  0.69679  1.0000
  H   H1008     1.0  0.89313  0.84081  0.76113  1.0000
  H   H1009     1.0  0.85370  0.86914  0.74472  1.0000
  N   N64       1.0  0.87447  0.84081  0.71546  1.0000
  C   C635      1.0  0.81306  0.81600  0.83583  1.0000
  C   C636      1.0  0.85665  0.82056  0.72491  1.0000
  H   H1010     1.0  0.83948  0.04597  0.68970  1.0000
  H   H1011     1.0  0.87428  0.04362  0.69163  1.0000
  H   H1012     1.0  0.05226  0.81744  0.63201  1.0000
  C   C637      1.0  0.79868  0.89745  0.55766  1.0000
  H   H1013     1.0  0.79511  0.82857  0.84027  1.0000
  H   H1014     1.0  0.57648  0.85886  0.00492  1.0000
  H   H1015     1.0  0.85066  0.82233  0.75037  1.0000
  H   H1016     1.0  0.82831  0.82230  0.85219  1.0000
  S   S254      1.0  0.01301  0.81994  0.69003  1.0000
  H   H1017     1.0  0.89135  0.81801  0.67722  1.0000
  H   H1018     1.0  0.05313  0.81894  0.74445  1.0000
  H   H1019     1.0  0.94036  0.86930  0.55270  1.0000
  C   C638      1.0  0.56583  0.84147  0.99874  1.0000
  S   S255      1.0  0.95040  0.81607  0.67468  1.0000
  H   H1020     1.0  0.89610  0.85203  0.67398  1.0000
  H   H1021     1.0  0.86484  0.84020  0.66567  1.0000
  C   C639      1.0  0.77178  0.90263  0.55544  1.0000
  H   H1022     1.0  0.78243  0.00201  0.55291  1.0000
  H   H1023     1.0  0.76044  0.97634  0.55519  1.0000
  H   H1024     1.0  0.86918  0.86214  0.55379  1.0000
  S   S256      1.0  0.97214  0.80650  0.74810  1.0000
  C   C640      1.0  0.65008  0.86184  0.04941  1.0000
