data_image0
_chemical_formula_structural       S2FeCH2SH3CHCFeHSH2SFeCH3CHNHFeCS2CHCHSHSCNFeHSH3NCFeH2CH2C2HC2HFeH2CH2S2CH2CH3C2S2CHSHCHCHCHSCH2CH2C4H2CH4C7H3CH4C3H3CH2C2HCHSH3CH5CH3SHNHCSH2SCFeCH2SFeH2NH2SHCHFeHCHSFeHCHSHS2FeHC2HFeSH3CSC3NHCHCH5CHSFe2HFeHSFeH2S4FeCHCNCH2C2HCSC5H3NHCH3CSHCHCHC2H2C2HCH3CSHCH2CH2SCNSH2CHCH2CHFeH2CHCH3C3H3CH2CH3N2HCH3CNH2CHCHCH2CSCH3CHCHCH2SH3CH2CHCFe2HSCSFeCFeHFeSHFeS2FeCFeHFeHS2HCH2C6H7NH4CSHSH2CSCH2C2HSCHSCH2SCHCH2FeHCH2NSHSC2HC2H2CHFeHFeC2H2NHC2S2H2SHNSCHSH2S2HC2H4CH2CHCH3CNH3CH2CH2C3H2C2H3CFeSC3HCHCSFeS2FeSNFeCFeCS2HCH3C6SH6SH2SH3CFeHFeCFeHC2SH3CH5C2HCSHC2HCH2CHNHSHCH3SH4SHCH6CHSC6H2FeSHCFeC2SCFeS2C2H4SHCHCSNFeC2FeHCSH8FeHNHCH2C2SH8S2H2CHCHCH2CSH2CH4C2H4NHSH2SHFeSFeHSC3SHSCFeH5C6H4CH2CNCHFeCH3C3H5CH3CH2SH3CH2CH2NH2CH5SHSHC3HC4H2CH4CH2CH3C3H2CFeH2CHC2H2NHS2HCH3C2HSH3NSC2H3CSHC3SHSCHSC4H2CHFeHSFeCH5FeC2HCFeSH2C2H2NH3CFeHFeCHC2H2SCHNC2H2SHCHSH2CHC2H3CSH3C2SHCHCH2C2HCSH3FeHNHCSCHC2H3Fe2HFeS2CH2CHCSCSCHCHCHNCH2FeC2H2CH3SHCHCNC2SFeCFeSHSC3SHSHCHSH2CH2CH8CH2CHCHC2SFeN
_chemical_formula_sum              "S128 Fe64 C320 H512 N32"
_cell_length_a       29.6278
_cell_length_b       30.6156
_cell_length_c       37.8771
_cell_angle_alpha    89.9259
_cell_angle_beta     89.938
_cell_angle_gamma    90.1266

_space_group_name_H-M_alt    "P 1"
_space_group_IT_number       1

loop_
  _space_group_symop_operation_xyz
  'x, y, z'

loop_
  _atom_site_type_symbol
  _atom_site_label
  _atom_site_symmetry_multiplicity
  _atom_site_fract_x
  _atom_site_fract_y
  _atom_site_fract_z
  _atom_site_occupancy
  S   S1        1.0  0.35207  0.50910  0.17617  1.0000
  S   S2        1.0  0.56188  0.21088  0.17795  1.0000
  Fe  Fe1       1.0  0.33097  0.45350  0.21094  1.0000
  C   C1        1.0  0.43038  0.28619  0.16421  1.0000
  H   H1        1.0  0.46959  0.34386  0.17545  1.0000
  H   H2        1.0  0.27202  0.11754  0.11858  1.0000
  S   S3        1.0  0.30811  0.41195  0.16620  1.0000
  H   H3        1.0  0.26272  0.21948  0.14047  1.0000
  H   H4        1.0  0.18605  0.25149  0.14593  1.0000
  H   H5        1.0  0.63072  0.47464  0.20546  1.0000
  C   C2        1.0  0.50121  0.53039  0.22212  1.0000
  H   H6        1.0  0.45907  0.48332  0.24867  1.0000
  C   C3        1.0  0.26074  0.32455  0.11145  1.0000
  Fe  Fe2       1.0  0.37850  0.38577  0.16614  1.0000
  H   H7        1.0  0.23475  0.32674  0.18004  1.0000
  S   S4        1.0  0.26830  0.09500  0.24013  1.0000
  H   H8        1.0  0.26775  0.23940  0.09596  1.0000
  H   H9        1.0  0.63713  0.10407  0.04678  1.0000
  S   S5        1.0  0.39949  0.42276  0.21456  1.0000
  Fe  Fe3       1.0  0.20147  0.12967  0.23795  1.0000
  C   C4        1.0  0.19794  0.27877  0.12881  1.0000
  H   H10       1.0  0.24219  0.35492  0.11847  1.0000
  H   H11       1.0  0.30969  0.25361  0.12824  1.0000
  H   H12       1.0  0.19530  0.53178  0.15558  1.0000
  C   C5        1.0  0.25506  0.29816  0.17137  1.0000
  H   H13       1.0  0.66538  0.41371  0.23882  1.0000
  N   N1        1.0  0.24663  0.28742  0.13392  1.0000
  H   H14       1.0  0.19019  0.26992  0.10098  1.0000
  Fe  Fe4       1.0  0.55467  0.08187  0.09336  1.0000
  C   C6        1.0  0.47006  0.30869  0.17269  1.0000
  S   S6        1.0  0.37920  0.31332  0.15769  1.0000
  S   S7        1.0  0.29276  0.48042  0.08422  1.0000
  C   C7        1.0  0.27283  0.24818  0.12419  1.0000
  H   H15       1.0  0.21213  0.17578  0.07613  1.0000
  C   C8        1.0  0.31197  0.52658  0.06147  1.0000
  H   H16       1.0  0.29096  0.30639  0.17622  1.0000
  S   S8        1.0  0.55964  0.08690  0.19542  1.0000
  H   H17       1.0  0.24848  0.53755  0.13332  1.0000
  S   S9        1.0  0.54468  0.07597  0.03476  1.0000
  C   C9        1.0  0.48424  0.50855  0.25172  1.0000
  N   N2        1.0  0.44744  0.14678  0.25903  1.0000
  Fe  Fe5       1.0  0.33546  0.46434  0.13130  1.0000
  H   H18       1.0  0.65243  0.09548  0.21576  1.0000
  S   S10       1.0  0.40459  0.43538  0.12757  1.0000
  H   H19       1.0  0.54147  0.30281  0.18321  1.0000
  H   H20       1.0  0.36043  0.54517  0.10111  1.0000
  H   H21       1.0  0.17720  0.30777  0.13592  1.0000
  N   N3        1.0  0.65861  0.47953  0.25782  1.0000
  C   C10       1.0  0.34502  0.55368  0.07618  1.0000
  Fe  Fe6       1.0  0.41942  0.47551  0.17606  1.0000
  H   H22       1.0  0.40028  0.22330  0.15450  1.0000
  H   H23       1.0  0.41062  0.16633  0.21274  1.0000
  C   C11       1.0  0.19950  0.11120  0.05596  1.0000
  H   H24       1.0  0.33717  0.07230  0.17207  1.0000
  H   H25       1.0  0.47565  0.20727  0.24005  1.0000
  C   C12       1.0  0.43100  0.24076  0.16080  1.0000
  C   C13       1.0  0.47130  0.21781  0.16523  1.0000
  H   H26       1.0  0.47114  0.18287  0.16329  1.0000
  C   C14       1.0  0.42450  0.13643  0.22541  1.0000
  C   C15       1.0  0.51132  0.24001  0.17280  1.0000
  H   H27       1.0  0.40376  0.20060  0.27164  1.0000
  Fe  Fe7       1.0  0.55856  0.14220  0.15672  1.0000
  H   H28       1.0  0.58982  0.48303  0.23978  1.0000
  H   H29       1.0  0.35064  0.08844  0.12757  1.0000
  C   C16       1.0  0.29208  0.53775  0.02921  1.0000
  H   H30       1.0  0.18773  0.48271  0.24562  1.0000
  H   H31       1.0  0.62519  0.52740  0.22560  1.0000
  S   S11       1.0  0.50103  0.11496  0.12508  1.0000
  S   S12       1.0  0.48152  0.51817  0.17958  1.0000
  C   C17       1.0  0.21867  0.55591  0.14321  1.0000
  H   H32       1.0  0.39605  0.11306  0.22948  1.0000
  H   H33       1.0  0.48668  0.08778  0.25793  1.0000
  C   C18       1.0  0.62464  0.49165  0.23098  1.0000
  H   H34       1.0  0.25456  0.31779  0.08301  1.0000
  H   H35       1.0  0.24651  0.27024  0.18899  1.0000
  H   H36       1.0  0.20775  0.52994  0.07612  1.0000
  C   C19       1.0  0.19165  0.14665  0.07845  1.0000
  C   C20       1.0  0.26070  0.09102  0.13668  1.0000
  S   S13       1.0  0.61242  0.11389  0.12171  1.0000
  S   S14       1.0  0.28167  0.46623  0.25452  1.0000
  C   C21       1.0  0.51060  0.28550  0.17706  1.0000
  H   H37       1.0  0.29746  0.33161  0.11452  1.0000
  S   S15       1.0  0.18399  0.16941  0.19057  1.0000
  H   H38       1.0  0.51085  0.16057  0.23347  1.0000
  C   C22       1.0  0.17962  0.54944  0.08755  1.0000
  H   H39       1.0  0.26152  0.10387  0.16412  1.0000
  C   C23       1.0  0.65742  0.43178  0.26355  1.0000
  H   H40       1.0  0.44817  0.12109  0.20626  1.0000
  C   C24       1.0  0.48642  0.17579  0.25210  1.0000
  H   H41       1.0  0.22477  0.08376  0.13033  1.0000
  S   S16       1.0  0.24549  0.11304  0.02680  1.0000
  C   C25       1.0  0.17244  0.07385  0.05862  1.0000
  H   H42       1.0  0.16966  0.43013  0.23049  1.0000
  H   H43       1.0  0.33687  0.55568  0.25993  1.0000
  C   C26       1.0  0.33578  0.06181  0.14391  1.0000
  H   H44       1.0  0.30240  0.06315  0.07780  1.0000
  H   H45       1.0  0.62346  0.42079  0.27263  1.0000
  C   C27       1.0  0.37315  0.48181  0.33265  1.0000
  C   C28       1.0  0.30769  0.48047  0.29425  1.0000
  C   C29       1.0  0.64834  0.50210  0.29135  1.0000
  C   C30       1.0  0.41543  0.16898  0.28292  1.0000
  H   H46       1.0  0.48124  0.11226  0.30088  1.0000
  H   H47       1.0  0.50508  0.18364  0.27676  1.0000
  C   C31       1.0  0.33976  0.10576  0.34618  1.0000
  H   H48       1.0  0.55561  0.51812  0.44370  1.0000
  H   H49       1.0  0.30300  0.55363  0.50041  1.0000
  H   H50       1.0  0.40754  0.47218  0.33821  1.0000
  H   H51       1.0  0.56949  0.55898  0.41124  1.0000
  C   C32       1.0  0.30606  0.52242  0.34839  1.0000
  C   C33       1.0  0.18710  0.11341  0.36363  1.0000
  C   C34       1.0  0.17792  0.42478  0.29989  1.0000
  C   C35       1.0  0.35193  0.46752  0.30166  1.0000
  C   C36       1.0  0.35050  0.51005  0.35559  1.0000
  C   C37       1.0  0.30998  0.13861  0.33542  1.0000
  C   C38       1.0  0.28449  0.50718  0.31798  1.0000
  H   H52       1.0  0.30348  0.16615  0.35258  1.0000
  H   H53       1.0  0.19486  0.54584  0.48750  1.0000
  H   H54       1.0  0.61997  0.49694  0.48380  1.0000
  C   C39       1.0  0.53215  0.55239  0.28990  1.0000
  H   H55       1.0  0.65503  0.55333  0.44540  1.0000
  H   H56       1.0  0.20936  0.44447  0.30226  1.0000
  H   H57       1.0  0.25036  0.51737  0.31226  1.0000
  H   H58       1.0  0.21470  0.12920  0.34835  1.0000
  C   C40       1.0  0.46324  0.10587  0.27565  1.0000
  C   C41       1.0  0.28837  0.13585  0.30257  1.0000
  C   C42       1.0  0.32689  0.06780  0.29096  1.0000
  H   H59       1.0  0.52887  0.51738  0.40120  1.0000
  H   H60       1.0  0.48634  0.50255  0.30838  1.0000
  H   H61       1.0  0.38495  0.14858  0.28756  1.0000
  C   C43       1.0  0.62389  0.53002  0.49337  1.0000
  H   H62       1.0  0.48873  0.08269  0.51876  1.0000
  H   H63       1.0  0.26583  0.16154  0.29424  1.0000
  C   C44       1.0  0.49979  0.51947  0.28553  1.0000
  C   C45       1.0  0.46970  0.53975  0.45276  1.0000
  H   H64       1.0  0.40887  0.54916  0.29376  1.0000
  C   C46       1.0  0.54140  0.53920  0.42259  1.0000
  H   H65       1.0  0.28829  0.54403  0.36606  1.0000
  S   S17       1.0  0.36430  0.10880  0.38808  1.0000
  H   H66       1.0  0.20633  0.07217  0.30338  1.0000
  H   H67       1.0  0.27790  0.47949  0.51772  1.0000
  H   H68       1.0  0.19251  0.12141  0.39195  1.0000
  C   C47       1.0  0.34866  0.07058  0.32374  1.0000
  H   H69       1.0  0.48304  0.52151  0.47596  1.0000
  H   H70       1.0  0.45636  0.51522  0.43372  1.0000
  H   H71       1.0  0.61470  0.49245  0.30199  1.0000
  H   H72       1.0  0.43447  0.08366  0.28176  1.0000
  H   H73       1.0  0.36975  0.44639  0.28367  1.0000
  C   C48       1.0  0.29643  0.10016  0.28052  1.0000
  H   H74       1.0  0.43086  0.17575  0.30915  1.0000
  H   H75       1.0  0.64781  0.53809  0.28771  1.0000
  H   H76       1.0  0.62359  0.06916  0.40438  1.0000
  S   S18       1.0  0.37889  0.53318  0.39141  1.0000
  H   H77       1.0  0.18711  0.39417  0.28571  1.0000
  N   N4        1.0  0.18597  0.06569  0.35770  1.0000
  H   H78       1.0  0.44046  0.55960  0.46182  1.0000
  C   C49       1.0  0.28094  0.54950  0.52291  1.0000
  S   S19       1.0  0.17266  0.17790  0.27623  1.0000
  H   H79       1.0  0.45116  0.47588  0.71352  1.0000
  H   H80       1.0  0.51054  0.16660  0.59983  1.0000
  S   S20       1.0  0.44058  0.11568  0.64588  1.0000
  C   C50       1.0  0.50372  0.32140  0.64252  1.0000
  Fe  Fe8       1.0  0.63452  0.54320  0.67661  1.0000
  C   C51       1.0  0.23955  0.50158  0.56259  1.0000
  H   H81       1.0  0.21640  0.19960  0.71474  1.0000
  H   H82       1.0  0.38402  0.45048  0.74691  1.0000
  S   S21       1.0  0.22108  0.44877  0.57308  1.0000
  Fe  Fe9       1.0  0.47004  0.17584  0.67113  1.0000
  H   H83       1.0  0.48613  0.07671  0.58424  1.0000
  H   H84       1.0  0.18755  0.08169  0.70696  1.0000
  N   N5        1.0  0.21333  0.13524  0.73775  1.0000
  H   H85       1.0  0.51799  0.15862  0.55320  1.0000
  H   H86       1.0  0.28190  0.49718  0.64316  1.0000
  S   S22       1.0  0.28697  0.46902  0.73533  1.0000
  H   H87       1.0  0.28407  0.13802  0.75029  1.0000
  C   C52       1.0  0.52026  0.27564  0.69300  1.0000
  H   H88       1.0  0.46387  0.42054  0.70059  1.0000
  Fe  Fe10      1.0  0.53226  0.54033  0.67811  1.0000
  H   H89       1.0  0.31641  0.46998  0.61125  1.0000
  C   C53       1.0  0.39565  0.50357  0.63262  1.0000
  H   H90       1.0  0.19071  0.15876  0.68725  1.0000
  S   S23       1.0  0.43843  0.16409  0.72401  1.0000
  Fe  Fe11      1.0  0.22822  0.44301  0.70444  1.0000
  H   H91       1.0  0.57210  0.24052  0.53838  1.0000
  C   C54       1.0  0.40336  0.42054  0.75398  1.0000
  H   H92       1.0  0.53371  0.38555  0.64288  1.0000
  S   S24       1.0  0.34789  0.07200  0.71596  1.0000
  H   H93       1.0  0.39727  0.48953  0.60555  1.0000
  S   S25       1.0  0.18693  0.48740  0.67018  1.0000
  S   S26       1.0  0.24389  0.39478  0.66193  1.0000
  Fe  Fe12      1.0  0.41508  0.10062  0.70048  1.0000
  H   H94       1.0  0.48759  0.32595  0.61716  1.0000
  C   C55       1.0  0.51634  0.06762  0.53292  1.0000
  C   C56       1.0  0.21528  0.08935  0.72583  1.0000
  H   H95       1.0  0.40542  0.47747  0.65156  1.0000
  Fe  Fe13      1.0  0.50140  0.12648  0.73632  1.0000
  S   S27       1.0  0.17730  0.28808  0.68914  1.0000
  H   H96       1.0  0.41453  0.09532  0.76759  1.0000
  H   H97       1.0  0.32356  0.45888  0.65765  1.0000
  H   H98       1.0  0.61580  0.23192  0.61153  1.0000
  C   C57       1.0  0.34944  0.53908  0.67664  1.0000
  S   S28       1.0  0.46828  0.23896  0.64078  1.0000
  C   C58       1.0  0.26717  0.50750  0.53298  1.0000
  C   C59       1.0  0.25054  0.14380  0.76280  1.0000
  C   C60       1.0  0.52441  0.18163  0.57533  1.0000
  N   N6        1.0  0.35018  0.52078  0.64056  1.0000
  H   H99       1.0  0.19825  0.47945  0.76620  1.0000
  C   C61       1.0  0.33893  0.55556  0.61499  1.0000
  H   H100      1.0  0.50439  0.21176  0.57028  1.0000
  C   C62       1.0  0.51494  0.06436  0.56993  1.0000
  H   H101      1.0  0.62687  0.21788  0.54738  1.0000
  H   H102      1.0  0.25010  0.17818  0.77228  1.0000
  H   H103      1.0  0.63442  0.15727  0.59135  1.0000
  H   H104      1.0  0.42174  0.52974  0.63432  1.0000
  H   H105      1.0  0.39571  0.39532  0.73368  1.0000
  C   C63       1.0  0.59777  0.15095  0.58746  1.0000
  H   H106      1.0  0.58468  0.13537  0.61204  1.0000
  S   S29       1.0  0.47655  0.06249  0.71551  1.0000
  Fe  Fe14      1.0  0.50473  0.08407  0.66380  1.0000
  Fe  Fe15      1.0  0.18083  0.36058  0.67929  1.0000
  H   H107      1.0  0.56113  0.25462  0.60228  1.0000
  Fe  Fe16      1.0  0.58496  0.45614  0.68082  1.0000
  H   H108      1.0  0.51383  0.39495  0.76736  1.0000
  S   S30       1.0  0.58267  0.39153  0.70917  1.0000
  Fe  Fe17      1.0  0.58381  0.50942  0.61302  1.0000
  H   H109      1.0  0.31481  0.54925  0.68456  1.0000
  H   H110      1.0  0.50554  0.45288  0.72262  1.0000
  S   S31       1.0  0.64012  0.48117  0.64541  1.0000
  S   S32       1.0  0.58494  0.51551  0.71538  1.0000
  S   S33       1.0  0.58487  0.49983  0.55394  1.0000
  S   S34       1.0  0.52901  0.47912  0.64591  1.0000
  Fe  Fe18      1.0  0.19839  0.43631  0.62882  1.0000
  C   C64       1.0  0.31666  0.48510  0.63799  1.0000
  H   H111      1.0  0.56642  0.21107  0.63335  1.0000
  C   C65       1.0  0.21799  0.16455  0.70689  1.0000
  N   N7        1.0  0.57302  0.19154  0.57904  1.0000
  C   C66       1.0  0.54594  0.30963  0.70772  1.0000
  H   H112      1.0  0.56233  0.30494  0.73297  1.0000
  H   H113      1.0  0.51688  0.24493  0.70694  1.0000
  C   C67       1.0  0.52962  0.35528  0.65715  1.0000
  C   C68       1.0  0.55071  0.34949  0.68982  1.0000
  H   H114      1.0  0.36103  0.51482  0.69655  1.0000
  C   C69       1.0  0.59026  0.20994  0.54553  1.0000
  S   S35       1.0  0.53593  0.14486  0.68566  1.0000
  C   C70       1.0  0.49909  0.28153  0.66038  1.0000
  C   C71       1.0  0.46877  0.44545  0.72165  1.0000
  C   C72       1.0  0.57955  0.22365  0.60774  1.0000
  C   C73       1.0  0.47671  0.38913  0.76564  1.0000
  C   C74       1.0  0.34840  0.06705  0.76223  1.0000
  H   H115      1.0  0.20426  0.53356  0.60501  1.0000
  H   H116      1.0  0.25086  0.15948  0.69319  1.0000
  H   H117      1.0  0.59446  0.12651  0.56587  1.0000
  N   N8        1.0  0.45233  0.42959  0.75618  1.0000
  H   H118      1.0  0.24795  0.08198  0.71255  1.0000
  C   C75       1.0  0.22609  0.53782  0.58242  1.0000
  H   H119      1.0  0.21160  0.06641  0.74841  1.0000
  H   H120      1.0  0.47162  0.36315  0.74544  1.0000
  H   H121      1.0  0.33700  0.54263  0.58759  1.0000
  C   C76       1.0  0.16961  0.14314  0.75547  1.0000
  S   S36       1.0  0.16904  0.40508  0.72531  1.0000
  H   H122      1.0  0.62151  0.07679  0.72011  1.0000
  C   C77       1.0  0.60981  0.54054  0.52765  1.0000
  H   H123      1.0  0.58584  0.18648  0.52331  1.0000
  C   C78       1.0  0.56778  0.07778  0.84108  1.0000
  H   H124      1.0  0.44499  0.17059  0.92741  1.0000
  C   C79       1.0  0.53629  0.08278  0.81391  1.0000
  C   C80       1.0  0.20856  0.51380  0.81509  1.0000
  H   H125      1.0  0.52873  0.13306  0.89347  1.0000
  H   H126      1.0  0.46528  0.37592  0.79152  1.0000
  C   C81       1.0  0.47152  0.06594  0.90603  1.0000
  C   C82       1.0  0.30030  0.51233  0.79742  1.0000
  H   H127      1.0  0.17316  0.51420  0.82184  1.0000
  C   C83       1.0  0.52175  0.12497  0.92164  1.0000
  H   H128      1.0  0.40721  0.12678  0.91643  1.0000
  H   H129      1.0  0.31070  0.54673  0.84616  1.0000
  H   H130      1.0  0.44721  0.14577  0.88436  1.0000
  C   C84       1.0  0.38571  0.08214  0.78115  1.0000
  S   S37       1.0  0.35110  0.06347  0.88249  1.0000
  H   H131      1.0  0.52667  0.15528  0.93736  1.0000
  C   C85       1.0  0.24006  0.53371  0.83735  1.0000
  H   H132      1.0  0.44206  0.49403  0.77722  1.0000
  H   H133      1.0  0.59053  0.10432  0.84752  1.0000
  C   C86       1.0  0.28599  0.53244  0.82869  1.0000
  H   H134      1.0  0.44735  0.53462  0.97484  1.0000
  H   H135      1.0  0.47533  0.07182  0.87720  1.0000
  S   S38       1.0  0.23365  0.09738  0.92532  1.0000
  C   C87       1.0  0.63583  0.08498  0.02285  1.0000
  N   N9        1.0  0.47572  0.10704  0.92618  1.0000
  S   S39       1.0  0.53656  0.13109  0.78886  1.0000
  H   H136      1.0  0.33581  0.51182  0.79076  1.0000
  H   H137      1.0  0.38966  0.40861  0.77963  1.0000
  C   C88       1.0  0.44238  0.13902  0.91304  1.0000
  H   H138      1.0  0.26646  0.51683  0.01784  1.0000
  C   C89       1.0  0.46714  0.09814  0.96396  1.0000
  H   H139      1.0  0.44950  0.45232  0.80991  1.0000
  H   H140      1.0  0.47277  0.12768  0.98053  1.0000
  C   C90       1.0  0.46066  0.46337  0.78330  1.0000
  H   H141      1.0  0.41521  0.09265  0.83216  1.0000
  Fe  Fe19      1.0  0.23858  0.06859  0.97964  1.0000
  H   H142      1.0  0.49716  0.47198  0.78496  1.0000
  H   H143      1.0  0.54790  0.10125  0.93035  1.0000
  C   C91       1.0  0.38607  0.08063  0.81798  1.0000
  H   H144      1.0  0.52939  0.54824  0.96964  1.0000
  C   C92       1.0  0.22282  0.49395  0.78362  1.0000
  H   H145      1.0  0.24827  0.12214  0.78639  1.0000
  H   H146      1.0  0.43188  0.08679  0.96853  1.0000
  H   H147      1.0  0.48995  0.07227  0.97415  1.0000
  C   C93       1.0  0.59447  0.06908  0.01046  1.0000
  C   C94       1.0  0.26869  0.49329  0.77474  1.0000
  C   C95       1.0  0.34874  0.06453  0.83634  1.0000
  H   H148      1.0  0.64588  0.06187  0.79714  1.0000
  H   H149      1.0  0.39206  0.61631  0.21335  1.0000
  H   H150      1.0  0.39675  0.00797  0.25056  1.0000
  C   C96       1.0  0.40841  0.59948  0.23600  1.0000
  H   H151      1.0  0.38285  0.61352  0.07039  1.0000
  H   H152      1.0  0.35824  0.03282  0.14135  1.0000
  C   C97       1.0  0.50689  0.99076  0.23010  1.0000
  H   H153      1.0  0.40916  0.56397  0.22963  1.0000
  H   H154      1.0  0.57382  0.60008  0.26357  1.0000
  H   H155      1.0  0.23040  0.57804  0.16463  1.0000
  N   N10       1.0  0.38415  0.60771  0.26947  1.0000
  N   N11       1.0  0.28903  0.05164  0.13294  1.0000
  H   H156      1.0  0.23305  0.58188  0.26412  1.0000
  C   C98       1.0  0.54928  0.57423  0.26036  1.0000
  H   H157      1.0  0.30943  0.00743  0.09172  1.0000
  H   H158      1.0  0.25822  0.59362  0.08706  1.0000
  H   H159      1.0  0.60887  0.98910  0.05903  1.0000
  C   C99       1.0  0.53381  0.56320  0.22648  1.0000
  N   N12       1.0  0.19623  0.58041  0.11451  1.0000
  H   H160      1.0  0.55639  0.96342  0.26537  1.0000
  H   H161      1.0  0.53043  0.99412  0.20842  1.0000
  C   C100      1.0  0.46192  0.00363  0.22596  1.0000
  H   H162      1.0  0.16884  0.62869  0.14978  1.0000
  C   C101      1.0  0.63692  0.96984  0.04719  1.0000
  H   H163      1.0  0.25386  0.03003  0.08638  1.0000
  C   C102      1.0  0.43153  0.99845  0.25392  1.0000
  H   H164      1.0  0.44412  0.61076  0.23737  1.0000
  H   H165      1.0  0.21298  0.62988  0.07626  1.0000
  C   C103      1.0  0.66178  0.94076  0.10311  1.0000
  S   S40       1.0  0.55482  0.02121  0.12667  1.0000
  C   C104      1.0  0.27068  0.01646  0.15558  1.0000
  H   H166      1.0  0.66262  0.02909  0.09425  1.0000
  H   H167      1.0  0.23545  0.00791  0.14794  1.0000
  H   H168      1.0  0.63352  0.95717  0.11724  1.0000
  C   C105      1.0  0.35765  0.59232  0.05882  1.0000
  H   H169      1.0  0.54676  0.58040  0.20362  1.0000
  C   C106      1.0  0.33788  0.60335  0.02646  1.0000
  H   H170      1.0  0.27001  0.02654  0.18385  1.0000
  C   C107      1.0  0.33740  0.59111  0.26655  1.0000
  H   H171      1.0  0.31823  0.60839  0.24553  1.0000
  H   H172      1.0  0.29144  0.98630  0.15369  1.0000
  S   S41       1.0  0.44453  0.02952  0.18701  1.0000
  H   H173      1.0  0.65041  0.90726  0.09603  1.0000
  H   H174      1.0  0.24181  0.63500  0.11784  1.0000
  H   H175      1.0  0.36600  0.67343  0.25532  1.0000
  C   C108      1.0  0.22870  0.61114  0.09823  1.0000
  H   H176      1.0  0.48764  0.57018  0.02435  1.0000
  H   H177      1.0  0.62327  0.93730  0.03963  1.0000
  C   C109      1.0  0.28875  0.03733  0.09565  1.0000
  H   H178      1.0  0.17864  0.04616  0.04172  1.0000
  C   C110      1.0  0.52155  0.97326  0.26232  1.0000
  Fe  Fe20      1.0  0.60840  0.05587  0.15781  1.0000
  Fe  Fe21      1.0  0.50630  0.05740  0.16112  1.0000
  H   H179      1.0  0.22915  0.01014  0.36601  1.0000
  S   S42       1.0  0.39813  0.98282  0.38633  1.0000
  C   C111      1.0  0.21076  0.60825  0.31394  1.0000
  S   S43       1.0  0.42390  0.03844  0.45903  1.0000
  Fe  Fe22      1.0  0.61288  0.60581  0.33886  1.0000
  C   C112      1.0  0.63568  0.61495  0.51841  1.0000
  Fe  Fe23      1.0  0.47270  0.98214  0.37567  1.0000
  H   H180      1.0  0.59491  0.76946  0.36750  1.0000
  Fe  Fe24      1.0  0.41841  0.96840  0.44222  1.0000
  S   S44       1.0  0.38560  0.91649  0.47523  1.0000
  H   H181      1.0  0.61926  0.02186  0.51845  1.0000
  Fe  Fe25      1.0  0.34148  0.68842  0.40930  1.0000
  S   S45       1.0  0.36740  0.63836  0.44740  1.0000
  S   S46       1.0  0.38722  0.74077  0.38796  1.0000
  Fe  Fe26      1.0  0.25174  0.64153  0.39848  1.0000
  C   C113      1.0  0.20446  0.59324  0.27931  1.0000
  Fe  Fe27      1.0  0.29735  0.63958  0.46992  1.0000
  H   H182      1.0  0.47119  0.57059  0.38616  1.0000
  Fe  Fe28      1.0  0.33838  0.59053  0.40905  1.0000
  H   H183      1.0  0.58067  0.81340  0.31351  1.0000
  S   S47       1.0  0.27371  0.69468  0.43547  1.0000
  S   S48       1.0  0.31736  0.64022  0.36906  1.0000
  H   H184      1.0  0.42306  0.97916  0.30829  1.0000
  C   C114      1.0  0.52354  0.59770  0.46295  1.0000
  H   H185      1.0  0.58531  0.95795  0.37958  1.0000
  H   H186      1.0  0.45711  0.61385  0.41601  1.0000
  C   C115      1.0  0.38546  0.86737  0.45132  1.0000
  C   C116      1.0  0.40505  0.86591  0.41774  1.0000
  C   C117      1.0  0.40481  0.82701  0.39837  1.0000
  C   C118      1.0  0.38552  0.78919  0.41260  1.0000
  C   C119      1.0  0.36596  0.79039  0.44624  1.0000
  C   C120      1.0  0.36594  0.82954  0.46562  1.0000
  H   H187      1.0  0.42014  0.89482  0.40648  1.0000
  H   H188      1.0  0.41891  0.82642  0.37207  1.0000
  H   H189      1.0  0.35103  0.76119  0.45739  1.0000
  H   H190      1.0  0.35070  0.83049  0.49157  1.0000
  H   H191      1.0  0.52437  0.75865  0.33442  1.0000
  H   H192      1.0  0.56285  0.77942  0.40692  1.0000
  H   H193      1.0  0.55107  0.61831  0.45167  1.0000
  N   N13       1.0  0.63339  0.01018  0.37452  1.0000
  H   H194      1.0  0.36540  0.66242  0.30186  1.0000
  H   H195      1.0  0.49098  0.76982  0.37310  1.0000
  H   H196      1.0  0.54493  0.87684  0.39222  1.0000
  H   H197      1.0  0.59876  0.00178  0.32503  1.0000
  C   C121      1.0  0.38341  0.65513  0.27673  1.0000
  S   S49       1.0  0.18088  0.64217  0.37698  1.0000
  H   H198      1.0  0.24410  0.60867  0.32531  1.0000
  S   S50       1.0  0.66443  0.75875  0.31163  1.0000
  H   H199      1.0  0.50437  0.83722  0.40749  1.0000
  H   H200      1.0  0.44279  0.59665  0.30181  1.0000
  C   C122      1.0  0.49155  0.96971  0.29073  1.0000
  S   S51       1.0  0.54938  0.56621  0.33271  1.0000
  C   C123      1.0  0.52047  0.85145  0.38349  1.0000
  H   H201      1.0  0.65819  0.95323  0.34771  1.0000
  H   H202      1.0  0.20287  0.62550  0.47905  1.0000
  C   C124      1.0  0.59919  0.98580  0.39496  1.0000
  C   C125      1.0  0.56390  0.83812  0.33062  1.0000
  H   H203      1.0  0.57057  0.00736  0.40228  1.0000
  S   S52       1.0  0.65916  0.63146  0.29680  1.0000
  C   C126      1.0  0.48517  0.59261  0.40688  1.0000
  H   H204      1.0  0.60410  0.81861  0.39210  1.0000
  S   S53       1.0  0.49186  0.96171  0.43026  1.0000
  C   C127      1.0  0.44650  0.98232  0.28655  1.0000
  H   H205      1.0  0.31855  0.59515  0.29177  1.0000
  H   H206      1.0  0.17586  0.63372  0.52065  1.0000
  S   S54       1.0  0.51099  0.95051  0.33155  1.0000
  C   C128      1.0  0.17382  0.62260  0.33373  1.0000
  H   H207      1.0  0.48221  0.80076  0.33349  1.0000
  C   C129      1.0  0.57760  0.79531  0.38310  1.0000
  H   H208      1.0  0.49354  0.86849  0.36832  1.0000
  H   H209      1.0  0.61348  0.97268  0.41999  1.0000
  Fe  Fe29      1.0  0.40976  0.05274  0.40183  1.0000
  H   H210      1.0  0.51089  0.61381  0.39393  1.0000
  C   C130      1.0  0.40744  0.58493  0.29861  1.0000
  H   H211      1.0  0.53858  0.85580  0.31423  1.0000
  H   H212      1.0  0.38983  0.58981  0.32428  1.0000
  N   N14       1.0  0.54265  0.81753  0.36186  1.0000
  S   S55       1.0  0.61475  0.66682  0.37139  1.0000
  H   H213      1.0  0.49701  0.61992  0.47338  1.0000
  S   S56       1.0  0.27054  0.58676  0.43475  1.0000
  C   C131      1.0  0.65102  0.04634  0.39642  1.0000
  C   C132      1.0  0.64974  0.60443  0.48411  1.0000
  H   H214      1.0  0.59012  0.86232  0.33843  1.0000
  C   C133      1.0  0.50862  0.78523  0.35020  1.0000
  C   C134      1.0  0.55411  0.05250  0.51438  1.0000
  H   H215      1.0  0.66670  0.03398  0.42118  1.0000
  H   H216      1.0  0.37190  0.04531  0.33172  1.0000
  C   C135      1.0  0.61259  0.02816  0.34215  1.0000
  H   H217      1.0  0.33279  0.04003  0.27401  1.0000
  Fe  Fe30      1.0  0.66655  0.68983  0.33240  1.0000
  H   H218      1.0  0.63761  0.04696  0.32621  1.0000
  Fe  Fe31      1.0  0.49580  0.03330  0.44137  1.0000
  C   C136      1.0  0.64360  0.56192  0.47157  1.0000
  C   C137      1.0  0.22911  0.04625  0.36936  1.0000
  H   H219      1.0  0.17954  0.02118  0.31402  1.0000
  H   H220      1.0  0.53801  0.57967  0.48581  1.0000
  N   N15       1.0  0.50494  0.56735  0.43631  1.0000
  H   H221      1.0  0.41820  0.66859  0.27920  1.0000
  C   C138      1.0  0.16941  0.62936  0.49190  1.0000
  C   C139      1.0  0.17935  0.05682  0.31973  1.0000
  S   S57       1.0  0.66736  0.57279  0.36968  1.0000
  S   S58       1.0  0.48250  0.05355  0.38561  1.0000
  H   H222      1.0  0.58418  0.05052  0.34856  1.0000
  H   H223      1.0  0.23615  0.05346  0.39763  1.0000
  S   S59       1.0  0.55778  0.05819  0.46850  1.0000
  H   H224      1.0  0.25797  0.05932  0.35379  1.0000
  N   N16       1.0  0.42843  0.95812  0.57340  1.0000
  S   S60       1.0  0.28036  0.63861  0.52779  1.0000
  C   C140      1.0  0.58995  0.03347  0.53270  1.0000
  H   H225      1.0  0.41239  0.97999  0.62599  1.0000
  S   S61       1.0  0.58159  0.57336  0.64170  1.0000
  H   H226      1.0  0.22799  0.60814  0.58682  1.0000
  H   H227      1.0  0.36459  0.58220  0.61520  1.0000
  S   S62       1.0  0.54924  0.03789  0.63406  1.0000
  S   S63       1.0  0.46504  0.56664  0.69582  1.0000
  H   H228      1.0  0.46354  0.00206  0.60815  1.0000
  C   C141      1.0  0.44215  0.97224  0.60916  1.0000
  C   C142      1.0  0.46895  0.94743  0.55230  1.0000
  H   H229      1.0  0.37175  0.56823  0.67874  1.0000
  H   H230      1.0  0.48874  0.92060  0.56461  1.0000
  H   H231      1.0  0.30584  0.57071  0.62136  1.0000
  H   H232      1.0  0.36808  0.92601  0.59169  1.0000
  C   C143      1.0  0.26636  0.58585  0.54199  1.0000
  H   H233      1.0  0.38771  0.58214  0.74013  1.0000
  H   H234      1.0  0.41709  0.89152  0.58935  1.0000
  C   C144      1.0  0.39922  0.91904  0.57624  1.0000
  H   H235      1.0  0.28293  0.03667  0.76612  1.0000
  C   C145      1.0  0.41755  0.58292  0.75644  1.0000
  H   H236      1.0  0.59033  0.02706  0.71354  1.0000
  H   H237      1.0  0.38834  0.90734  0.54973  1.0000
  H   H238      1.0  0.46215  0.94660  0.62289  1.0000
  C   C146      1.0  0.23928  0.58001  0.57197  1.0000
  N   N17       1.0  0.64544  0.02202  0.75041  1.0000
  H   H239      1.0  0.49185  0.97610  0.54964  1.0000
  H   H240      1.0  0.60794  0.96174  0.75045  1.0000
  H   H241      1.0  0.61531  0.01317  0.58336  1.0000
  C   C147      1.0  0.61557  0.58313  0.54012  1.0000
  H   H242      1.0  0.60428  0.59166  0.56635  1.0000
  H   H243      1.0  0.64010  0.64793  0.52812  1.0000
  C   C148      1.0  0.62646  0.98356  0.76890  1.0000
  H   H244      1.0  0.42458  0.02348  0.55271  1.0000
  H   H245      1.0  0.37276  0.00309  0.57125  1.0000
  C   C149      1.0  0.46032  0.57689  0.74138  1.0000
  C   C150      1.0  0.60856  0.04698  0.73360  1.0000
  C   C151      1.0  0.58773  0.02861  0.56941  1.0000
  H   H246      1.0  0.45965  0.93683  0.52511  1.0000
  H   H247      1.0  0.58328  0.05785  0.75341  1.0000
  C   C152      1.0  0.49854  0.57810  0.76297  1.0000
  C   C153      1.0  0.40329  0.99374  0.55589  1.0000
  H   H248      1.0  0.53170  0.57496  0.75158  1.0000
  H   H249      1.0  0.39182  0.98387  0.52904  1.0000
  H   H250      1.0  0.66084  0.98625  0.70307  1.0000
  C   C154      1.0  0.55048  0.04433  0.58812  1.0000
  Fe  Fe32      1.0  0.28626  0.04847  0.91032  1.0000
  S   S64       1.0  0.23753  0.99597  0.89480  1.0000
  C   C155      1.0  0.59287  0.04559  0.97884  1.0000
  C   C156      1.0  0.49405  0.58490  0.79943  1.0000
  C   C157      1.0  0.17637  0.68516  0.86603  1.0000
  H   H251      1.0  0.49767  0.04180  0.91402  1.0000
  C   C158      1.0  0.43512  0.91875  0.89715  1.0000
  H   H252      1.0  0.51992  0.57761  0.92917  1.0000
  C   C159      1.0  0.44157  0.56775  0.96364  1.0000
  S   S65       1.0  0.29586  0.02468  0.96548  1.0000
  Fe  Fe33      1.0  0.31020  0.69915  0.88168  1.0000
  S   S66       1.0  0.26875  0.66566  0.92328  1.0000
  S   S67       1.0  0.28515  0.76079  0.85647  1.0000
  Fe  Fe34      1.0  0.37892  0.62529  0.87774  1.0000
  S   S68       1.0  0.66475  0.88723  0.85297  1.0000
  N   N18       1.0  0.38901  0.92621  0.88354  1.0000
  Fe  Fe35      1.0  0.27943  0.60636  0.88981  1.0000
  C   C160      1.0  0.36062  0.94528  0.91169  1.0000
  Fe  Fe36      1.0  0.33548  0.64826  0.94726  1.0000
  C   C161      1.0  0.45134  0.59118  0.81441  1.0000
  S   S69       1.0  0.31678  0.64094  0.84654  1.0000
  S   S70       1.0  0.37632  0.68758  0.90878  1.0000
  H   H253      1.0  0.24558  0.84616  0.85216  1.0000
  C   C162      1.0  0.36912  0.88423  0.87209  1.0000
  H   H254      1.0  0.28247  0.03584  0.83179  1.0000
  H   H255      1.0  0.43495  0.89579  0.91996  1.0000
  H   H256      1.0  0.65946  0.67849  0.80711  1.0000
  C   C163      1.0  0.26542  0.86717  0.93908  1.0000
  C   C164      1.0  0.25101  0.87385  0.90434  1.0000
  C   C165      1.0  0.25691  0.84096  0.87899  1.0000
  C   C166      1.0  0.27721  0.80139  0.88838  1.0000
  C   C167      1.0  0.29135  0.79456  0.92314  1.0000
  C   C168      1.0  0.28542  0.82743  0.94845  1.0000
  S   S71       1.0  0.34195  0.58514  0.91788  1.0000
  H   H257      1.0  0.28966  0.58454  0.98672  1.0000
  H   H258      1.0  0.30697  0.76402  0.93059  1.0000
  H   H259      1.0  0.18287  0.74783  0.81685  1.0000
  H   H260      1.0  0.43751  0.65551  0.96716  1.0000
  H   H261      1.0  0.43798  0.05048  0.91022  1.0000
  H   H262      1.0  0.41102  0.94274  0.83102  1.0000
  S   S72       1.0  0.44671  0.60036  0.86005  1.0000
  H   H263      1.0  0.29640  0.82207  0.97535  1.0000
  H   H264      1.0  0.23450  0.90390  0.89713  1.0000
  S   S73       1.0  0.25946  0.90796  0.97121  1.0000
  H   H265      1.0  0.56112  0.03295  0.96917  1.0000
  H   H266      1.0  0.32548  0.95071  0.90239  1.0000
  H   H267      1.0  0.39029  0.86797  0.85171  1.0000
  C   C169      1.0  0.50641  0.04859  0.80638  1.0000
  Fe  Fe37      1.0  0.18486  0.04262  0.91492  1.0000
  H   H268      1.0  0.37397  0.97743  0.92061  1.0000
  Fe  Fe38      1.0  0.24315  0.97535  0.95152  1.0000
  C   C170      1.0  0.39106  0.95661  0.85321  1.0000
  Fe  Fe39      1.0  0.62530  0.94068  0.87915  1.0000
  H   H269      1.0  0.35830  0.92340  0.93517  1.0000
  C   C171      1.0  0.54304  0.00296  0.85014  1.0000
  C   C172      1.0  0.57087  0.03808  0.85935  1.0000
  S   S74       1.0  0.35470  0.65100  0.00451  1.0000
  H   H270      1.0  0.48058  0.05275  0.78679  1.0000
  H   H271      1.0  0.23749  0.68721  0.81365  1.0000
  H   H272      1.0  0.35671  0.96434  0.84306  1.0000
  C   C173      1.0  0.46955  0.64146  0.95695  1.0000
  H   H273      1.0  0.36525  0.86107  0.89462  1.0000
  H   H274      1.0  0.45117  0.94977  0.90603  1.0000
  H   H275      1.0  0.40712  0.98819  0.86066  1.0000
  H   H276      1.0  0.45762  0.90475  0.87648  1.0000
  H   H277      1.0  0.48768  0.98189  0.81751  1.0000
  C   C174      1.0  0.30524  0.57598  0.01158  1.0000
  C   C175      1.0  0.48150  0.60235  0.01149  1.0000
  H   H278      1.0  0.59482  0.03474  0.88060  1.0000
  C   C176      1.0  0.50983  0.00867  0.82438  1.0000
  S   S75       1.0  0.55095  0.95148  0.86941  1.0000
  H   H279      1.0  0.37996  0.59402  0.80425  1.0000
  C   C177      1.0  0.31130  0.04875  0.81770  1.0000
  C   C178      1.0  0.41307  0.58991  0.79288  1.0000
  H   H280      1.0  0.33495  0.88903  0.86054  1.0000
  C   C179      1.0  0.63273  0.03606  0.96060  1.0000
  H   H281      1.0  0.63129  0.01693  0.93675  1.0000
  H   H282      1.0  0.46649  0.63946  0.92770  1.0000
  C   C180      1.0  0.31142  0.04949  0.78055  1.0000
  H   H283      1.0  0.20318  0.66024  0.78115  1.0000
  N   N19       1.0  0.47859  0.59814  0.97267  1.0000
  H   H284      1.0  0.21895  0.63186  0.82064  1.0000
  S   S76       1.0  0.22198  0.56246  0.87484  1.0000
  H   H285      1.0  0.40874  0.57948  0.97429  1.0000
  C   C181      1.0  0.20860  0.66427  0.81001  1.0000
  H   H286      1.0  0.65348  0.96380  0.78164  1.0000
  H   H287      1.0  0.17211  0.01540  0.83695  1.0000
  H   H288      1.0  0.49693  0.66519  0.96300  1.0000
  S   S77       1.0  0.65394  0.92730  0.93282  1.0000
  H   H289      1.0  0.52381  0.58614  0.81593  1.0000
  H   H290      1.0  0.18612  0.65333  0.87802  1.0000
  H   H291      1.0  0.20432  0.70874  0.87107  1.0000
  H   H292      1.0  0.60253  0.99346  0.79009  1.0000
  S   S78       1.0  0.18593  0.01709  0.97063  1.0000
  H   H293      1.0  0.55027  0.60314  0.96469  1.0000
  C   C182      1.0  0.52152  0.58100  0.95848  1.0000
  H   H294      1.0  0.43795  0.56424  0.93450  1.0000
  H   H295      1.0  0.50917  0.62491  0.01940  1.0000
  H   H296      1.0  0.64699  0.98649  0.02235  1.0000
  H   H297      1.0  0.44946  0.61556  0.02266  1.0000
  H   H298      1.0  0.15471  0.52605  0.09896  1.0000
  H   H299      1.0  0.88868  0.13853  0.21750  1.0000
  C   C183      1.0  0.84304  0.54720  0.26843  1.0000
  H   H300      1.0  0.94763  0.09265  0.27135  1.0000
  S   S79       1.0  0.16195  0.28606  0.22045  1.0000
  C   C184      1.0  0.69047  0.08789  0.26375  1.0000
  C   C185      1.0  0.04364  0.37913  0.20438  1.0000
  C   C186      1.0  0.03623  0.33806  0.21979  1.0000
  C   C187      1.0  0.67520  0.07476  0.23038  1.0000
  C   C188      1.0  0.15849  0.45982  0.24489  1.0000
  C   C189      1.0  0.07203  0.30841  0.22376  1.0000
  H   H301      1.0  0.09270  0.42093  0.17955  1.0000
  H   H302      1.0  0.71262  0.47731  0.21971  1.0000
  Fe  Fe40      1.0  0.11882  0.13244  0.19099  1.0000
  S   S80       1.0  0.08177  0.18041  0.22511  1.0000
  H   H303      1.0  0.06632  0.27732  0.23658  1.0000
  C   C190      1.0  0.93656  0.54257  0.02925  1.0000
  Fe  Fe41      1.0  0.03646  0.55437  0.13215  1.0000
  C   C191      1.0  0.97270  0.54332  0.05311  1.0000
  C   C192      1.0  0.15731  0.14444  0.10390  1.0000
  S   S81       1.0  0.02313  0.53560  0.23363  1.0000
  C   C193      1.0  0.70403  0.49266  0.24545  1.0000
  Fe  Fe42      1.0  0.01654  0.48700  0.18944  1.0000
  S   S82       1.0  0.07993  0.50768  0.16199  1.0000
  S   S83       1.0  0.99928  0.41726  0.20294  1.0000
  C   C194      1.0  0.12250  0.36036  0.19602  1.0000
  C   C195      1.0  0.08673  0.38985  0.19196  1.0000
  H   H304      1.0  0.90474  0.53973  0.23854  1.0000
  H   H305      1.0  0.07427  0.43841  0.26297  1.0000
  H   H306      1.0  0.15591  0.36921  0.18692  1.0000
  H   H307      1.0  0.97040  0.52537  0.07763  1.0000
  S   S84       1.0  0.97171  0.52914  0.15561  1.0000
  H   H308      1.0  0.00293  0.32951  0.22935  1.0000
  C   C196      1.0  0.13115  0.10656  0.10728  1.0000
  H   H309      1.0  0.73064  0.48309  0.26474  1.0000
  C   C197      1.0  0.13820  0.07158  0.08419  1.0000
  S   S85       1.0  0.09195  0.10144  0.14180  1.0000
  N   N20       1.0  0.87673  0.09212  0.25919  1.0000
  Fe  Fe43      1.0  0.14882  0.21433  0.22832  1.0000
  C   C198      1.0  0.83499  0.11376  0.27143  1.0000
  C   C199      1.0  0.11535  0.31986  0.21233  1.0000
  Fe  Fe44      1.0  0.10818  0.13990  0.27008  1.0000
  H   H310      1.0  0.10826  0.39005  0.26584  1.0000
  C   C200      1.0  0.88456  0.10270  0.22157  1.0000
  S   S86       1.0  0.13898  0.08860  0.23558  1.0000
  H   H311      1.0  0.15067  0.17220  0.12065  1.0000
  H   H312      1.0  0.70670  0.52877  0.24219  1.0000
  H   H313      1.0  0.91571  0.08665  0.21145  1.0000
  H   H314      1.0  0.13169  0.47587  0.22899  1.0000
  H   H315      1.0  0.85584  0.09168  0.20481  1.0000
  H   H316      1.0  0.90622  0.52444  0.03567  1.0000
  H   H317      1.0  0.83707  0.14986  0.26841  1.0000
  H   H318      1.0  0.80491  0.10235  0.25638  1.0000
  Fe  Fe45      1.0  0.08338  0.55973  0.20329  1.0000
  H   H319      1.0  0.67698  0.06574  0.38204  1.0000
  N   N21       1.0  0.14243  0.44913  0.28084  1.0000
  H   H320      1.0  0.96416  0.13943  0.49064  1.0000
  C   C201      1.0  0.10119  0.42199  0.27865  1.0000
  H   H321      1.0  0.11919  0.48348  0.32691  1.0000
  H   H322      1.0  0.02476  0.13898  0.48909  1.0000
  C   C202      1.0  0.00362  0.07555  0.34908  1.0000
  C   C203      1.0  0.03239  0.08150  0.32013  1.0000
  S   S87       1.0  0.85539  0.07616  0.46935  1.0000
  H   H323      1.0  0.67423  0.49498  0.31188  1.0000
  H   H324      1.0  0.08705  0.41479  0.30522  1.0000
  H   H325      1.0  0.14012  0.52180  0.49369  1.0000
  H   H326      1.0  0.00476  0.09821  0.37097  1.0000
  H   H327      1.0  0.91133  0.09925  0.30881  1.0000
  H   H328      1.0  0.99542  0.18704  0.50393  1.0000
  H   H329      1.0  0.16692  0.41569  0.32699  1.0000
  H   H330      1.0  0.91965  0.14372  0.27849  1.0000
  S   S88       1.0  0.73812  0.07890  0.32478  1.0000
  S   S89       1.0  0.06970  0.12612  0.32020  1.0000
  H   H331      1.0  0.16287  0.51084  0.30253  1.0000
  H   H332      1.0  0.67876  0.11840  0.27486  1.0000
  C   C204      1.0  0.13219  0.49003  0.29989  1.0000
  H   H333      1.0  0.68242  0.42163  0.28390  1.0000
  C   C205      1.0  0.99526  0.15068  0.50459  1.0000
  H   H334      1.0  0.15499  0.12913  0.35522  1.0000
  C   C206      1.0  0.91545  0.10765  0.28038  1.0000
  H   H335      1.0  0.10643  0.50968  0.28556  1.0000
  H   H336      1.0  0.82828  0.10679  0.29982  1.0000
  C   C207      1.0  0.72066  0.06177  0.28270  1.0000
  S   S90       1.0  0.76492  0.55582  0.30648  1.0000
  H   H337      1.0  0.14644  0.06989  0.31045  1.0000
  H   H338      1.0  0.84075  0.51286  0.27500  1.0000
  C   C208      1.0  0.16085  0.55136  0.49919  1.0000
  H   H339      1.0  0.11025  0.55888  0.44017  1.0000
  H   H340      1.0  0.11522  0.06073  0.36979  1.0000
  H   H341      1.0  0.94838  0.36729  0.73332  1.0000
  H   H342      1.0  0.97997  0.49382  0.73716  1.0000
  C   C209      1.0  0.86870  0.07357  0.54051  1.0000
  C   C210      1.0  0.06061  0.34556  0.72766  1.0000
  H   H343      1.0  0.85183  0.10487  0.54093  1.0000
  H   H344      1.0  0.07217  0.37994  0.72473  1.0000
  H   H345      1.0  0.96244  0.29001  0.71500  1.0000
  H   H346      1.0  0.01897  0.27242  0.70627  1.0000
  N   N22       1.0  0.99651  0.13414  0.54126  1.0000
  H   H347      1.0  0.06894  0.13807  0.54495  1.0000
  S   S91       1.0  0.99469  0.12940  0.72150  1.0000
  H   H348      1.0  0.06653  0.33580  0.75556  1.0000
  H   H349      1.0  0.00203  0.28445  0.75067  1.0000
  S   S92       1.0  0.91504  0.10688  0.66324  1.0000
  H   H350      1.0  0.78273  0.51592  0.61339  1.0000
  Fe  Fe46      1.0  0.98276  0.13982  0.66374  1.0000
  S   S93       1.0  0.99685  0.20260  0.63485  1.0000
  Fe  Fe47      1.0  0.93055  0.09048  0.71974  1.0000
  H   H351      1.0  0.68975  0.50702  0.73370  1.0000
  S   S94       1.0  0.02099  0.08050  0.64705  1.0000
  C   C211      1.0  0.71924  0.53348  0.56433  1.0000
  C   C212      1.0  0.99834  0.29497  0.72268  1.0000
  C   C213      1.0  0.00683  0.35330  0.68024  1.0000
  S   S95       1.0  0.13630  0.39770  0.64218  1.0000
  H   H352      1.0  0.14070  0.13549  0.73769  1.0000
  S   S96       1.0  0.05783  0.46596  0.69852  1.0000
  C   C214      1.0  0.09078  0.51524  0.75325  1.0000
  Fe  Fe48      1.0  0.12883  0.44492  0.68690  1.0000
  H   H353      1.0  0.02625  0.07216  0.52787  1.0000
  H   H354      1.0  0.03941  0.18585  0.56024  1.0000
  H   H355      1.0  0.99409  0.07202  0.56809  1.0000
  H   H356      1.0  0.08284  0.32510  0.71077  1.0000
  H   H357      1.0  0.98853  0.36162  0.76859  1.0000
  C   C215      1.0  0.04964  0.22359  0.64691  1.0000
  C   C216      1.0  0.07415  0.20425  0.67423  1.0000
  C   C217      1.0  0.11368  0.22402  0.68662  1.0000
  C   C218      1.0  0.12968  0.26245  0.67108  1.0000
  C   C219      1.0  0.10646  0.28061  0.64249  1.0000
  C   C220      1.0  0.06627  0.26131  0.63052  1.0000
  H   H358      1.0  0.06222  0.17464  0.68648  1.0000
  H   H359      1.0  0.13104  0.21027  0.70901  1.0000
  H   H360      1.0  0.11943  0.30939  0.62954  1.0000
  H   H361      1.0  0.04778  0.27604  0.60897  1.0000
  C   C221      1.0  0.05260  0.49817  0.73650  1.0000
  H   H362      1.0  0.88491  0.07488  0.59593  1.0000
  H   H363      1.0  0.99491  0.40472  0.73680  1.0000
  C   C222      1.0  0.74772  0.50991  0.76807  1.0000
  N   N23       1.0  0.01263  0.34088  0.71769  1.0000
  C   C223      1.0  0.98483  0.36981  0.74011  1.0000
  H   H364      1.0  0.68441  0.07928  0.76326  1.0000
  Fe  Fe49      1.0  0.02788  0.06707  0.70486  1.0000
  C   C224      1.0  0.99575  0.08584  0.54087  1.0000
  H   H365      1.0  0.12403  0.50874  0.74272  1.0000
  H   H366      1.0  0.92484  0.14234  0.54683  1.0000
  H   H367      1.0  0.72914  0.52408  0.63447  1.0000
  C   C225      1.0  0.00960  0.50687  0.75011  1.0000
  C   C226      1.0  0.71998  0.52495  0.74061  1.0000
  C   C227      1.0  0.03811  0.14952  0.55887  1.0000
  H   H368      1.0  0.03990  0.13751  0.58657  1.0000
  H   H369      1.0  0.95778  0.18669  0.56370  1.0000
  H   H370      1.0  0.74293  0.50711  0.55644  1.0000
  H   H371      1.0  0.95473  0.13634  0.58773  1.0000
  H   H372      1.0  0.02798  0.33279  0.66265  1.0000
  C   C228      1.0  0.95672  0.15055  0.56068  1.0000
  H   H373      1.0  0.96587  0.07325  0.52632  1.0000
  H   H374      1.0  0.01690  0.38787  0.67555  1.0000
  H   H375      1.0  0.70778  0.55007  0.53976  1.0000
  C   C229      1.0  0.75719  0.54101  0.62043  1.0000
  H   H376      1.0  0.97114  0.34962  0.67165  1.0000
  H   H377      1.0  0.68903  0.51758  0.57640  1.0000
  S   S97       1.0  0.88297  0.09939  0.76532  1.0000
  H   H378      1.0  0.16516  0.55338  0.52829  1.0000
  H   H379      1.0  0.16636  0.17773  0.76406  1.0000
  H   H380      1.0  0.97139  0.53893  0.79093  1.0000
  C   C230      1.0  0.00470  0.53258  0.78047  1.0000
  H   H381      1.0  0.14581  0.50434  0.88915  1.0000
  H   H382      1.0  0.02195  0.52977  0.94352  1.0000
  C   C231      1.0  0.04278  0.55022  0.79695  1.0000
  H   H383      1.0  0.02847  0.48062  0.91831  1.0000
  H   H384      1.0  0.11527  0.55533  0.79579  1.0000
  N   N24       1.0  0.08806  0.52094  0.92093  1.0000
  H   H385      1.0  0.09791  0.46352  0.95270  1.0000
  H   H386      1.0  0.02376  0.53219  0.89629  1.0000
  C   C232      1.0  0.03845  0.51562  0.91976  1.0000
  H   H387      1.0  0.70791  0.08721  0.01424  1.0000
  H   H388      1.0  0.05384  0.09572  0.84311  1.0000
  H   H389      1.0  0.04326  0.08905  0.77847  1.0000
  H   H390      1.0  0.14333  0.50250  0.95446  1.0000
  H   H391      1.0  0.09601  0.51740  0.86454  1.0000
  S   S98       1.0  0.81855  0.51507  0.81394  1.0000
  H   H392      1.0  0.09999  0.46588  0.88688  1.0000
  S   S99       1.0  0.92342  0.53656  0.87370  1.0000
  H   H393      1.0  0.09121  0.51321  0.97733  1.0000
  C   C233      1.0  0.10835  0.50120  0.88903  1.0000
  C   C234      1.0  0.07131  0.07292  0.79103  1.0000
  C   C235      1.0  0.10594  0.49906  0.95278  1.0000
  H   H394      1.0  0.16569  0.12220  0.77937  1.0000
  C   C236      1.0  0.78647  0.53333  0.77783  1.0000
  C   C237      1.0  0.07728  0.07662  0.82760  1.0000
  C   C238      1.0  0.08580  0.54154  0.78332  1.0000
  C   C239      1.0  0.67577  0.07573  0.00431  1.0000
  H   H395      1.0  0.73872  0.48039  0.78222  1.0000
  H   H396      1.0  0.82422  0.07824  0.82301  1.0000
  C   C240      1.0  0.72093  0.00962  0.23444  1.0000
  H   H397      1.0  0.89078  0.59301  0.14421  1.0000
  H   H398      1.0  0.68995  0.93784  0.12242  1.0000
  H   H399      1.0  0.84012  0.67482  0.12026  1.0000
  H   H400      1.0  0.73261  0.97921  0.22318  1.0000
  C   C241      1.0  0.68992  0.03533  0.21585  1.0000
  H   H401      1.0  0.13292  0.58294  0.14168  1.0000
  H   H402      1.0  0.90504  0.68298  0.05837  1.0000
  C   C242      1.0  0.01161  0.56726  0.04520  1.0000
  H   H403      1.0  0.90317  0.02686  0.25503  1.0000
  H   H404      1.0  0.16238  0.56676  0.06551  1.0000
  H   H405      1.0  0.97025  0.62106  0.09870  1.0000
  C   C243      1.0  0.87704  0.67645  0.12549  1.0000
  C   C244      1.0  0.71307  0.94332  0.05336  1.0000
  C   C245      1.0  0.69078  0.00990  0.08255  1.0000
  H   H406      1.0  0.72408  0.96170  0.02933  1.0000
  H   H407      1.0  0.11792  0.04229  0.08664  1.0000
  C   C246      1.0  0.84943  0.63571  0.25136  1.0000
  Fe  Fe50      1.0  0.98280  0.57943  0.19782  1.0000
  H   H408      1.0  0.88886  0.70997  0.11876  1.0000
  H   H409      1.0  0.95735  0.64259  0.14152  1.0000
  C   C247      1.0  0.89414  0.64981  0.06695  1.0000
  H   H410      1.0  0.74301  0.93993  0.07085  1.0000
  C   C248      1.0  0.15778  0.60518  0.12910  1.0000
  C   C249      1.0  0.88265  0.60669  0.23924  1.0000
  H   H411      1.0  0.85791  0.64585  0.05985  1.0000
  H   H412      1.0  0.13955  0.62359  0.10815  1.0000
  N   N25       1.0  0.90179  0.64299  0.10514  1.0000
  H   H413      1.0  0.84329  0.03135  0.24745  1.0000
  S   S100      1.0  0.92750  0.62669  0.21308  1.0000
  S   S101      1.0  0.04423  0.60818  0.17163  1.0000
  H   H414      1.0  0.91347  0.62595  0.05084  1.0000
  C   C250      1.0  0.88547  0.59912  0.11548  1.0000
  H   H415      1.0  0.88195  0.67189  0.15447  1.0000
  H   H416      1.0  0.84880  0.59516  0.11006  1.0000
  H   H417      1.0  0.71785  0.00812  0.10286  1.0000
  C   C251      1.0  0.95057  0.64657  0.11281  1.0000
  C   C252      1.0  0.87934  0.56237  0.24780  1.0000
  H   H418      1.0  0.85179  0.67002  0.24476  1.0000
  S   S102      1.0  0.15442  0.57207  0.22150  1.0000
  H   H419      1.0  0.96437  0.67887  0.10467  1.0000
  H   H420      1.0  0.70446  0.02879  0.05990  1.0000
  H   H421      1.0  0.70284  0.91008  0.04449  1.0000
  N   N26       1.0  0.67563  0.96593  0.07157  1.0000
  S   S103      1.0  0.05551  0.57164  0.07612  1.0000
  C   C253      1.0  0.16118  0.59213  0.26450  1.0000
  C   C254      1.0  0.87194  0.04431  0.26332  1.0000
  H   H422      1.0  0.90348  0.57299  0.10078  1.0000
  H   H423      1.0  0.99906  0.99410  0.27088  1.0000
  H   H424      1.0  0.05309  0.05630  0.26955  1.0000
  C   C255      1.0  0.73626  0.02281  0.26784  1.0000
  S   S104      1.0  0.66957  0.01770  0.17471  1.0000
  H   H425      1.0  0.09058  0.60503  0.27307  1.0000
  C   C256      1.0  0.81325  0.62057  0.27219  1.0000
  C   C257      1.0  0.72073  0.86797  0.35291  1.0000
  C   C258      1.0  0.03098  0.05194  0.29200  1.0000
  S   S105      1.0  0.75771  0.89034  0.41727  1.0000
  H   H426      1.0  0.83004  0.75276  0.34660  1.0000
  S   S106      1.0  0.72610  0.66334  0.36217  1.0000
  C   C259      1.0  0.67050  0.98037  0.36471  1.0000
  H   H427      1.0  0.72986  0.90025  0.34382  1.0000
  S   S107      1.0  0.76759  0.01701  0.41182  1.0000
  C   C260      1.0  0.71767  0.81355  0.39926  1.0000
  C   C261      1.0  0.69766  0.78379  0.37593  1.0000
  C   C262      1.0  0.68895  0.79607  0.34106  1.0000
  C   C263      1.0  0.69990  0.83839  0.32969  1.0000
  H   H428      1.0  0.07259  0.57013  0.49789  1.0000
  H   H429      1.0  0.87883  0.88344  0.36002  1.0000
  C   C264      1.0  0.72980  0.85543  0.38772  1.0000
  H   H430      1.0  0.91038  0.80519  0.31712  1.0000
  Fe  Fe51      1.0  0.71447  0.60275  0.32988  1.0000
  H   H431      1.0  0.68884  0.75138  0.38506  1.0000
  S   S108      1.0  0.80316  0.96683  0.34015  1.0000
  Fe  Fe52      1.0  0.79285  0.95059  0.39719  1.0000
  C   C265      1.0  0.87253  0.05065  0.50868  1.0000
  H   H432      1.0  0.16591  0.58013  0.43284  1.0000
  H   H433      1.0  0.07875  0.62815  0.49186  1.0000
  H   H434      1.0  0.69729  0.99789  0.34969  1.0000
  H   H435      1.0  0.72446  0.80377  0.42623  1.0000
  H   H436      1.0  0.82815  0.79076  0.31039  1.0000
  Fe  Fe53      1.0  0.84002  0.03242  0.42316  1.0000
  C   C266      1.0  0.90588  0.80171  0.34619  1.0000
  C   C267      1.0  0.00040  0.01673  0.29278  1.0000
  H   H437      1.0  0.89637  0.99175  0.48399  1.0000
  C   C268      1.0  0.97090  0.01147  0.32145  1.0000
  Fe  Fe54      1.0  0.87264  0.98684  0.35706  1.0000
  S   S109      1.0  0.93014  0.96972  0.32112  1.0000
  H   H438      1.0  0.11891  0.61665  0.43449  1.0000
  H   H439      1.0  0.81943  0.87319  0.35611  1.0000
  C   C269      1.0  0.85579  0.81064  0.39605  1.0000
  C   C270      1.0  0.14819  0.04636  0.37796  1.0000
  H   H440      1.0  0.10178  0.63225  0.33420  1.0000
  H   H441      1.0  0.88029  0.83185  0.41032  1.0000
  N   N27       1.0  0.86024  0.81545  0.35734  1.0000
  H   H442      1.0  0.86144  0.77630  0.40460  1.0000
  H   H443      1.0  0.86553  0.03519  0.29131  1.0000
  H   H444      1.0  0.93249  0.82192  0.35908  1.0000
  C   C271      1.0  0.97284  0.04074  0.34969  1.0000
  Fe  Fe55      1.0  0.78380  0.03469  0.35580  1.0000
  H   H445      1.0  0.91236  0.76692  0.35309  1.0000
  Fe  Fe56      1.0  0.67343  0.63586  0.39896  1.0000
  C   C272      1.0  0.13046  0.62116  0.31897  1.0000
  H   H446      1.0  0.79120  0.79747  0.34743  1.0000
  C   C273      1.0  0.85325  0.86167  0.34751  1.0000
  C   C274      1.0  0.09567  0.59835  0.50225  1.0000
  H   H447      1.0  0.69303  0.84800  0.30271  1.0000
  H   H448      1.0  0.78785  0.64314  0.28151  1.0000
  S   S110      1.0  0.86461  0.96420  0.41304  1.0000
  C   C275      1.0  0.12408  0.60583  0.28440  1.0000
  H   H449      1.0  0.14586  0.01046  0.37370  1.0000
  N   N28       1.0  0.13980  0.59139  0.48496  1.0000
  C   C276      1.0  0.81002  0.57623  0.28080  1.0000
  C   C277      1.0  0.82601  0.78789  0.33964  1.0000
  H   H450      1.0  0.82146  0.82012  0.40525  1.0000
  H   H451      1.0  0.85569  0.86668  0.31845  1.0000
  S   S111      1.0  0.67615  0.64457  0.45805  1.0000
  H   H452      1.0  0.75995  0.00274  0.28192  1.0000
  C   C278      1.0  0.89322  0.00964  0.50841  1.0000
  H   H453      1.0  0.68644  0.96545  0.38846  1.0000
  S   S112      1.0  0.85406  0.05637  0.36821  1.0000
  H   H454      1.0  0.95083  0.03641  0.37222  1.0000
  H   H455      1.0  0.15469  0.66022  0.48151  1.0000
  C   C279      1.0  0.13328  0.58650  0.44650  1.0000
  H   H456      1.0  0.15215  0.05216  0.40678  1.0000
  C   C280      1.0  0.81088  0.98830  0.75181  1.0000
  C   C281      1.0  0.79816  0.57126  0.75930  1.0000
  H   H457      1.0  0.72163  0.62090  0.61961  1.0000
  H   H458      1.0  0.82831  0.58915  0.76640  1.0000
  H   H459      1.0  0.70575  0.98822  0.73472  1.0000
  C   C282      1.0  0.77059  0.58612  0.73159  1.0000
  S   S113      1.0  0.69551  0.58436  0.68967  1.0000
  H   H460      1.0  0.80710  0.96328  0.73186  1.0000
  H   H461      1.0  0.77955  0.61562  0.71746  1.0000
  H   H462      1.0  0.76748  0.60485  0.54729  1.0000
  C   C283      1.0  0.90971  0.01647  0.57117  1.0000
  C   C284      1.0  0.70723  0.59781  0.59989  1.0000
  S   S114      1.0  0.93792  0.99692  0.60880  1.0000
  H   H463      1.0  0.92858  0.96125  0.53924  1.0000
  C   C285      1.0  0.91163  0.99252  0.53968  1.0000
  H   H464      1.0  0.69519  0.61740  0.57706  1.0000
  C   C286      1.0  0.84033  0.02352  0.74592  1.0000
  H   H465      1.0  0.79565  0.61053  0.58907  1.0000
  H   H466      1.0  0.69455  0.67119  0.76886  1.0000
  C   C287      1.0  0.67761  0.00741  0.72301  1.0000
  C   C288      1.0  0.84514  0.05598  0.77157  1.0000
  H   H467      1.0  0.67720  0.58231  0.61242  1.0000
  C   C289      1.0  0.77892  0.58663  0.57117  1.0000
  S   S115      1.0  0.96471  0.02679  0.70782  1.0000
  H   H468      1.0  0.85912  0.02562  0.72146  1.0000
  H   H469      1.0  0.09960  0.60251  0.53131  1.0000
  H   H470      1.0  0.69303  0.03562  0.70886  1.0000
  Fe  Fe57      1.0  0.95442  0.04614  0.65107  1.0000
  H   H471      1.0  0.80485  0.56266  0.56254  1.0000
  N   N29       1.0  0.74065  0.56469  0.58896  1.0000
  H   H472      1.0  0.77283  0.56369  0.63993  1.0000
  C   C290      1.0  0.73111  0.56335  0.72262  1.0000
  S   S116      1.0  0.09522  0.04417  0.72513  1.0000
  C   C291      1.0  0.10172  0.04848  0.77098  1.0000
  H   H473      1.0  0.16159  0.00864  0.77216  1.0000
  C   C292      1.0  0.88748  0.05669  0.57165  1.0000
  C   C293      1.0  0.77337  0.80762  0.87376  1.0000
  H   H474      1.0  0.13686  0.57300  0.92263  1.0000
  H   H475      1.0  0.04483  0.60817  0.00676  1.0000
  H   H476      1.0  0.75756  0.83684  0.86363  1.0000
  Fe  Fe58      1.0  0.71742  0.93873  0.84369  1.0000
  Fe  Fe59      1.0  0.70645  0.97653  0.91710  1.0000
  H   H477      1.0  0.77284  0.01544  0.83371  1.0000
  Fe  Fe60      1.0  0.69879  0.87919  0.90542  1.0000
  S   S117      1.0  0.71423  0.81349  0.92906  1.0000
  S   S118      1.0  0.75443  0.92728  0.89450  1.0000
  C   C294      1.0  0.79148  0.01764  0.80918  1.0000
  H   H478      1.0  0.98010  0.99425  0.87799  1.0000
  H   H479      1.0  0.12434  0.73680  0.82587  1.0000
  C   C295      1.0  0.92285  0.97449  0.80187  1.0000
  H   H480      1.0  0.88865  0.98341  0.81170  1.0000
  C   C296      1.0  0.75875  0.78930  0.90562  1.0000
  S   S119      1.0  0.84099  0.60791  0.88111  1.0000
  C   C297      1.0  0.13827  0.02801  0.78755  1.0000
  S   S120      1.0  0.03708  0.58308  0.83460  1.0000
  C   C298      1.0  0.82052  0.05315  0.80310  1.0000
  H   H481      1.0  0.81917  0.80213  0.82982  1.0000
  C   C299      1.0  0.97863  0.58862  0.98892  1.0000
  H   H482      1.0  0.76809  0.73700  0.94302  1.0000
  C   C300      1.0  0.69376  0.68474  0.79617  1.0000
  H   H483      1.0  0.00703  0.94453  0.81069  1.0000
  N   N30       1.0  0.72912  0.66489  0.81850  1.0000
  C   C301      1.0  0.14431  0.03182  0.82418  1.0000
  H   H484      1.0  0.92008  0.99024  0.87170  1.0000
  H   H485      1.0  0.74984  0.60055  0.83497  1.0000
  Fe  Fe61      1.0  0.90109  0.58678  0.91298  1.0000
  C   C302      1.0  0.77924  0.75115  0.91831  1.0000
  C   C303      1.0  0.82853  0.74967  0.86706  1.0000
  H   H486      1.0  0.98052  0.05862  0.83925  1.0000
  H   H487      1.0  0.69702  0.03199  0.78945  1.0000
  C   C304      1.0  0.81429  0.73139  0.89908  1.0000
  H   H488      1.0  0.96077  0.05469  0.79459  1.0000
  H   H489      1.0  0.83018  0.70207  0.90898  1.0000
  H   H490      1.0  0.98062  0.60688  0.96451  1.0000
  S   S121      1.0  0.72442  0.02930  0.95571  1.0000
  H   H491      1.0  0.14609  0.69726  0.88036  1.0000
  C   C305      1.0  0.80823  0.78789  0.85457  1.0000
  H   H492      1.0  0.00910  0.99199  0.78275  1.0000
  C   C306      1.0  0.00344  0.98069  0.81040  1.0000
  N   N31       1.0  0.95872  0.99439  0.82374  1.0000
  C   C307      1.0  0.77393  0.67412  0.80293  1.0000
  C   C308      1.0  0.72694  0.68373  0.85434  1.0000
  S   S122      1.0  0.90991  0.61205  0.81264  1.0000
  Fe  Fe62      1.0  0.96420  0.59106  0.85013  1.0000
  C   C309      1.0  0.01487  0.58933  0.01283  1.0000
  Fe  Fe63      1.0  0.88869  0.65623  0.85681  1.0000
  S   S123      1.0  0.94670  0.63957  0.89233  1.0000
  H   H493      1.0  0.68977  0.60893  0.83426  1.0000
  S   S124      1.0  0.86999  0.72446  0.84113  1.0000
  C   C310      1.0  0.78657  0.98526  0.78347  1.0000
  C   C311      1.0  0.95520  0.04248  0.82196  1.0000
  C   C312      1.0  0.95336  0.98000  0.86078  1.0000
  S   S125      1.0  0.67520  0.99302  0.86498  1.0000
  H   H494      1.0  0.95543  0.94380  0.86311  1.0000
  S   S126      1.0  0.11773  0.05869  0.89032  1.0000
  H   H495      1.0  0.73237  0.71974  0.85377  1.0000
  C   C313      1.0  0.15518  0.72352  0.81298  1.0000
  H   H496      1.0  0.92118  0.05397  0.83033  1.0000
  S   S127      1.0  0.74936  0.94137  0.78991  1.0000
  H   H497      1.0  0.03125  0.99442  0.82680  1.0000
  H   H498      1.0  0.69362  0.67777  0.86702  1.0000
  C   C314      1.0  0.11350  0.05581  0.84427  1.0000
  H   H499      1.0  0.09845  0.66044  0.83525  1.0000
  H   H500      1.0  0.78124  0.70984  0.80224  1.0000
  C   C315      1.0  0.72189  0.61715  0.82055  1.0000
  H   H501      1.0  0.92502  0.98571  0.77396  1.0000
  H   H502      1.0  0.12276  0.64416  0.79397  1.0000
  H   H503      1.0  0.69833  0.72080  0.79412  1.0000
  H   H504      1.0  0.08495  0.58387  0.94597  1.0000
  H   H505      1.0  0.80148  0.65862  0.81845  1.0000
  H   H506      1.0  0.14835  0.72131  0.78415  1.0000
  H   H507      1.0  0.13845  0.61655  0.83391  1.0000
  H   H508      1.0  0.75333  0.66946  0.87178  1.0000
  C   C316      1.0  0.13022  0.64914  0.82248  1.0000
  H   H509      1.0  0.08637  0.58548  0.89867  1.0000
  H   H510      1.0  0.77647  0.66173  0.77546  1.0000
  C   C317      1.0  0.67438  0.04969  0.97399  1.0000
  H   H511      1.0  0.92490  0.93821  0.80191  1.0000
  C   C318      1.0  0.09960  0.56792  0.92220  1.0000
  H   H512      1.0  0.72007  0.60230  0.79384  1.0000
  C   C319      1.0  0.66920  0.05007  0.77617  1.0000
  C   C320      1.0  0.93922  0.56558  0.99731  1.0000
  S   S128      1.0  0.89145  0.56769  0.97002  1.0000
  Fe  Fe64      1.0  0.86697  0.56196  0.83986  1.0000
  N   N32       1.0  0.16755  0.68052  0.82784  1.0000
