data_image0
_chemical_formula_structural       HFeCHS2HCNSCSC2SC2S2C4H7FeH3CHFeC2FeNH2SC2H3FeHC2H2CHCFe2HSHCHCFeH4CH4S2HCNH3CH4SCH4CSHFeHCSH2CHCHCH4CSC2HCSHSNH2FeCS2H4FeHCHSHCHSFe2H2S2H4CH3SCH2C2SFeCHCHC2HNH6CH2SHCH2C2NCHSHCHCH2CH5C2SHFeHFeH2CSH3CHSCH2CH2CNC2SH2FeS2FeCHC6H3SFeH6CHC3H2CH3C2H2CSCHNHCHCH2C3SH5C2H2C5H3FeC2SHCHSCSH2Fe2HCS2CH5SFeH2CHC2HNH2C2HSHCH3FeH2FeH2SC2HSCH2CS2FeH2FeS2HC3H2CFeH2C2H2NH6SHCS2FeHSCHFe2CSNCH3CH2SCNC2H2CNH4C2HCHC3H2C2H2SCHC2H2CHCHCH7CHCSCNHNHCHCFeH2C3H4C2H5C2H2FeH2SCHNHC2FeHCH3CH2NHCSC4H4S2CS2CHCH4CH4NHCH2CH4CH3C3H4CSHC2H2CSFeSCHC2HSCHSCHSCH5FeSH3NCHCNHC2H5SHFeC2H2SH2CH2CFeCSCHC2H7CH2SH3SC2NC2NCHCSH2C2HCFeCSCHC2H3CH3CSFeSHC2HC2SCHSHFeNHCH3SFeHFeCHC2Fe2S4HCHCHC2SCHFeH3C2HNH2SH3SC2HSCNHSHCS2C2HC3SFeH6C2H6Fe2S2CSC6H3CH4C2HC2H3C2H2SH6CHC2NCH5FeC2HCS2HCSC2FeCH2NCHCH2SH2C5H5FeSC2HCH7S2H5SH2CHCHC3FeHCHSHCH4SHSCHSFeHSH4CHNCHC2H4SCHFeCHCHFeSC2SCFeSHFeHC3HFeCFeCHNH4SCHSCFeH3SCNS2C2HCNCH8S2C2H3C2H3C3HCH2CH2CHSCSH10CH2FeCS2H2FeHSC5H4C3HCHCFeSHC3H11S2FeS2H7NCHC7H2SNCFeSHCH2CS2FeC4SCHC3S2Fe2CSHCH2NH3C2HNH4CH2FeCH5CHFeH2CH2SHC2H4CH4CHCFeCHCH2CHCHSH2NHCHCFeS2HCNHSH2NHFeHCHCSHC2HC3H2CH2SCHFeHFeHSHC3HC2FeHS2HSHCHSFe2CHCH2SCS2CH3NCH2CH5CHSHSCH4CH3CH3NC2H4C2HSH2FeC3H2CFeHSFeS2H4C2HC6SH2FeH3NH3SH2FeSH3SH2C3H6CH2NCHCH2SC3H5CSC2H3CH2C4HCSCSHCSFeCH3C3SHSNH2CFeH4C3H7FeC2H3CSC2FeS2C2HFeHCHCH3CHC3HFeSCNCSH5FeH4SH4SH2CSHSCHC2HFeNH2SNHSCSH3CSC2HS2C2H2CH4CHFeHFeSC4H2CHCH2SHCHSHSH2FeSC3HFeCH3CH2CFeC2HFeHNHC2H4CH4C2HSHSFeHCHFeC3SHCSCH2CSHCFeH2FeCHC6SH2C2S2HSHCH3C2H3SFeHCH4CHCNCHSCSH3CHC2FeHSH2FeH7C2H6CHCH3CSHC3H2NCH5CNH6SCHSHC2SHC2SCHCNC2HCSHFeSHSCHFeSHCH4SFeCHCFeC2H3CN2CHCSCH2CH3CSCSH2FeSHC2HSHCH2SH4CHC2HCH8CSCHN2H2CH2CHCHCSHCH3CH3C2HCSFeHSHNH2CHFeHCH3CH3C3HFeSH3C2HC2H2CH3C2HC2FeS2CSFeCHCFeCSH2FeCNH3FeHCH4CFeH2SCHSFeHSH3CH2C2HCH2SCSH2CHCHSH2CH2CH2CH2FeNHC3HCNHCHNCFeSHSH2CS2CH2SH4SHCHCHNH3CH2CSFeSCH2C2HFeH2CHC3SCH2C2HC3SH2CSFeH4SCH5C2FeCH2C3SHS2HSC2H3C2NC2HCFeHSC2H2NH5CHFeSCH4C2HCH3NH6SH2CH6SC
_chemical_formula_sum              "H1024 Fe128 C640 S256 N64"
_cell_length_a       39.5781
_cell_length_b       22.0825
_cell_length_c       43.3385
_cell_angle_alpha    89.8667
_cell_angle_beta     90.1816
_cell_angle_gamma    89.9

_space_group_name_H-M_alt    "P 1"
_space_group_IT_number       1

loop_
  _space_group_symop_operation_xyz
  'x, y, z'

loop_
  _atom_site_type_symbol
  _atom_site_label
  _atom_site_symmetry_multiplicity
  _atom_site_fract_x
  _atom_site_fract_y
  _atom_site_fract_z
  _atom_site_occupancy
  H   H1        1.0  0.28887  0.63805  0.27394  1.0000
  Fe  Fe1       1.0  0.29151  0.49095  0.10844  1.0000
  C   C1        1.0  0.11948  0.36642  0.07651  1.0000
  H   H2        1.0  0.31598  0.60307  0.12958  1.0000
  S   S1        1.0  0.21867  0.67390  0.10294  1.0000
  S   S2        1.0  0.50234  0.23618  0.31255  1.0000
  H   H3        1.0  0.56159  0.43253  0.19798  1.0000
  C   C2        1.0  0.15692  0.66561  0.19119  1.0000
  N   N1        1.0  0.24785  0.22823  0.12919  1.0000
  S   S3        1.0  0.18085  0.30777  0.23866  1.0000
  C   C3        1.0  0.30062  0.58318  0.21931  1.0000
  S   S4        1.0  0.24123  0.50921  0.12987  1.0000
  C   C4        1.0  0.39471  0.65573  0.14569  1.0000
  C   C5        1.0  0.40930  0.60183  0.15629  1.0000
  S   S5        1.0  0.13320  0.66213  0.22512  1.0000
  C   C6        1.0  0.25378  0.23805  0.09589  1.0000
  C   C7        1.0  0.34222  0.60225  0.13633  1.0000
  S   S6        1.0  0.18219  0.37537  0.10308  1.0000
  S   S7        1.0  0.42159  0.33447  0.31334  1.0000
  C   C8        1.0  0.33595  0.66858  0.23242  1.0000
  C   C9        1.0  0.57783  0.65881  0.31454  1.0000
  C   C10       1.0  0.15324  0.62053  0.16880  1.0000
  C   C11       1.0  0.17248  0.62279  0.14172  1.0000
  H   H4        1.0  0.40102  0.44715  0.10849  1.0000
  H   H5        1.0  0.29251  0.53642  0.22547  1.0000
  H   H6        1.0  0.11500  0.57239  0.26971  1.0000
  H   H7        1.0  0.13604  0.58324  0.17269  1.0000
  H   H8        1.0  0.17033  0.58698  0.12485  1.0000
  H   H9        1.0  0.31097  0.58120  0.19547  1.0000
  H   H10       1.0  0.12244  0.58837  0.30984  1.0000
  Fe  Fe2       1.0  0.22161  0.44603  0.09362  1.0000
  H   H11       1.0  0.43852  0.41718  0.09094  1.0000
  H   H12       1.0  0.35912  0.50289  0.07641  1.0000
  H   H13       1.0  0.14016  0.53840  0.07439  1.0000
  C   C12       1.0  0.21181  0.21404  0.13431  1.0000
  H   H14       1.0  0.11073  0.35078  0.09872  1.0000
  Fe  Fe3       1.0  0.19783  0.32184  0.28748  1.0000
  C   C13       1.0  0.57664  0.43597  0.06960  1.0000
  C   C14       1.0  0.12028  0.55142  0.29260  1.0000
  Fe  Fe4       1.0  0.48193  0.20434  0.11776  1.0000
  N   N2        1.0  0.15110  0.51361  0.29199  1.0000
  H   H15       1.0  0.43155  0.21828  0.28588  1.0000
  H   H16       1.0  0.08659  0.22129  0.11084  1.0000
  S   S8        1.0  0.27256  0.42069  0.07526  1.0000
  C   C15       1.0  0.18049  0.55140  0.28394  1.0000
  C   C16       1.0  0.35783  0.54746  0.14428  1.0000
  H   H17       1.0  0.31390  0.70005  0.23251  1.0000
  H   H18       1.0  0.50653  0.38191  0.20536  1.0000
  H   H19       1.0  0.30305  0.56154  0.28021  1.0000
  Fe  Fe5       1.0  0.23686  0.58030  0.09316  1.0000
  H   H20       1.0  0.49074  0.33116  0.17629  1.0000
  C   C17       1.0  0.31128  0.60753  0.27278  1.0000
  C   C18       1.0  0.11546  0.25688  0.16479  1.0000
  H   H21       1.0  0.37567  0.58315  0.25769  1.0000
  H   H22       1.0  0.52265  0.31771  0.12754  1.0000
  C   C19       1.0  0.39102  0.54761  0.15535  1.0000
  H   H23       1.0  0.25275  0.27795  0.17159  1.0000
  C   C20       1.0  0.41120  0.42652  0.08703  1.0000
  Fe  Fe6       1.0  0.42358  0.23522  0.07511  1.0000
  Fe  Fe7       1.0  0.12933  0.29754  0.25939  1.0000
  H   H24       1.0  0.34895  0.69811  0.12928  1.0000
  S   S9        1.0  0.33674  0.47850  0.13909  1.0000
  H   H25       1.0  0.48236  0.60719  0.29729  1.0000
  C   C21       1.0  0.25682  0.28379  0.14633  1.0000
  H   H26       1.0  0.40289  0.50569  0.16258  1.0000
  C   C22       1.0  0.36070  0.65635  0.13684  1.0000
  Fe  Fe8       1.0  0.48839  0.30617  0.07165  1.0000
  H   H27       1.0  0.58246  0.36288  0.18920  1.0000
  H   H28       1.0  0.57374  0.27175  0.29528  1.0000
  H   H29       1.0  0.32998  0.62395  0.29009  1.0000
  H   H30       1.0  0.30422  0.43369  0.30354  1.0000
  C   C23       1.0  0.35602  0.56674  0.24130  1.0000
  H   H31       1.0  0.09780  0.52430  0.29897  1.0000
  H   H32       1.0  0.12594  0.43510  0.27436  1.0000
  H   H33       1.0  0.49494  0.41395  0.13709  1.0000
  H   H34       1.0  0.53413  0.45300  0.13197  1.0000
  S   S10       1.0  0.23535  0.39537  0.29744  1.0000
  S   S11       1.0  0.21040  0.69950  0.27562  1.0000
  H   H35       1.0  0.56785  0.47706  0.08058  1.0000
  C   C24       1.0  0.19435  0.67141  0.13651  1.0000
  N   N3        1.0  0.32594  0.60652  0.24144  1.0000
  H   H36       1.0  0.17046  0.43724  0.26700  1.0000
  H   H37       1.0  0.45213  0.51685  0.06781  1.0000
  H   H38       1.0  0.34714  0.66938  0.20885  1.0000
  C   C25       1.0  0.14724  0.46554  0.26862  1.0000
  H   H39       1.0  0.24121  0.32311  0.13863  1.0000
  H   H40       1.0  0.11689  0.28688  0.18529  1.0000
  H   H41       1.0  0.12463  0.28365  0.14470  1.0000
  H   H42       1.0  0.14206  0.48486  0.24531  1.0000
  S   S12       1.0  0.48943  0.59985  0.12579  1.0000
  C   C26       1.0  0.45652  0.55920  0.23599  1.0000
  H   H43       1.0  0.28383  0.29613  0.14284  1.0000
  H   H44       1.0  0.52704  0.31030  0.19858  1.0000
  H   H45       1.0  0.55773  0.29272  0.15033  1.0000
  H   H46       1.0  0.48179  0.60918  0.20021  1.0000
  C   C27       1.0  0.51420  0.34927  0.18712  1.0000
  S   S13       1.0  0.54870  0.55841  0.19614  1.0000
  H   H47       1.0  0.49158  0.44351  0.27673  1.0000
  Fe  Fe9       1.0  0.53131  0.62119  0.15875  1.0000
  H   H48       1.0  0.43333  0.58475  0.23378  1.0000
  C   C28       1.0  0.48948  0.48035  0.26059  1.0000
  S   S14       1.0  0.28859  0.56653  0.07395  1.0000
  H   H49       1.0  0.43478  0.60180  0.16506  1.0000
  H   H50       1.0  0.10988  0.58641  0.09319  1.0000
  C   C29       1.0  0.45924  0.51280  0.25792  1.0000
  H   H51       1.0  0.54092  0.47141  0.24514  1.0000
  C   C30       1.0  0.48406  0.57330  0.21704  1.0000
  H   H52       1.0  0.56289  0.35317  0.12270  1.0000
  C   C31       1.0  0.11624  0.56406  0.07092  1.0000
  H   H53       1.0  0.36776  0.56458  0.21801  1.0000
  H   H54       1.0  0.58225  0.67385  0.19729  1.0000
  H   H55       1.0  0.14176  0.67624  0.07501  1.0000
  H   H56       1.0  0.23784  0.27575  0.08674  1.0000
  C   C32       1.0  0.51732  0.49560  0.24227  1.0000
  S   S15       1.0  0.14579  0.31960  0.30769  1.0000
  C   C33       1.0  0.51453  0.54180  0.22029  1.0000
  C   C34       1.0  0.54543  0.33349  0.14011  1.0000
  H   H57       1.0  0.20419  0.52412  0.28348  1.0000
  C   C35       1.0  0.51811  0.42945  0.14933  1.0000
  S   S16       1.0  0.42555  0.49896  0.28324  1.0000
  H   H58       1.0  0.27763  0.61234  0.21862  1.0000
  S   S17       1.0  0.56707  0.65028  0.12196  1.0000
  N   N4        1.0  0.53629  0.37824  0.16394  1.0000
  H   H59       1.0  0.18417  0.58789  0.30117  1.0000
  H   H60       1.0  0.17715  0.57310  0.26089  1.0000
  Fe  Fe10      1.0  0.15450  0.21955  0.31147  1.0000
  C   C36       1.0  0.56740  0.40053  0.17901  1.0000
  S   S18       1.0  0.45208  0.28914  0.11009  1.0000
  S   S19       1.0  0.52055  0.22469  0.08163  1.0000
  H   H61       1.0  0.28064  0.24997  0.09130  1.0000
  H   H62       1.0  0.19518  0.25094  0.12545  1.0000
  H   H63       1.0  0.34965  0.51951  0.24820  1.0000
  H   H64       1.0  0.35511  0.68741  0.24867  1.0000
  Fe  Fe11      1.0  0.52321  0.63915  0.08972  1.0000
  H   H65       1.0  0.39808  0.38235  0.08382  1.0000
  C   C37       1.0  0.15372  0.37941  0.07216  1.0000
  H   H66       1.0  0.51023  0.46365  0.16667  1.0000
  S   S20       1.0  0.20821  0.22377  0.29598  1.0000
  H   H67       1.0  0.13348  0.21896  0.16873  1.0000
  C   C38       1.0  0.42434  0.52436  0.06546  1.0000
  H   H68       1.0  0.41554  0.54719  0.08689  1.0000
  S   S21       1.0  0.08604  0.34265  0.23498  1.0000
  Fe  Fe12      1.0  0.18652  0.20899  0.24892  1.0000
  Fe  Fe13      1.0  0.47367  0.69627  0.13402  1.0000
  H   H69       1.0  0.58375  0.42531  0.16238  1.0000
  H   H70       1.0  0.57214  0.70199  0.27019  1.0000
  S   S22       1.0  0.51022  0.39958  0.06833  1.0000
  S   S23       1.0  0.36764  0.24296  0.06843  1.0000
  H   H71       1.0  0.20636  0.20834  0.15932  1.0000
  H   H72       1.0  0.58365  0.61509  0.30478  1.0000
  H   H73       1.0  0.09601  0.53029  0.06609  1.0000
  H   H74       1.0  0.16003  0.52176  0.34077  1.0000
  C   C39       1.0  0.17184  0.68571  0.45553  1.0000
  H   H75       1.0  0.25857  0.34792  0.49402  1.0000
  H   H76       1.0  0.21451  0.29053  0.41399  1.0000
  H   H77       1.0  0.31991  0.28887  0.43697  1.0000
  S   S24       1.0  0.16560  0.53834  0.52858  1.0000
  C   C40       1.0  0.29572  0.29856  0.44904  1.0000
  H   H78       1.0  0.34515  0.37695  0.46423  1.0000
  H   H79       1.0  0.27161  0.38409  0.41096  1.0000
  C   C41       1.0  0.57395  0.38820  0.47271  1.0000
  C   C42       1.0  0.18299  0.23337  0.38568  1.0000
  S   S25       1.0  0.20555  0.63511  0.35845  1.0000
  Fe  Fe14      1.0  0.16949  0.63978  0.52974  1.0000
  C   C43       1.0  0.32034  0.38370  0.47581  1.0000
  H   H80       1.0  0.41578  0.63426  0.35616  1.0000
  C   C44       1.0  0.32741  0.37302  0.33644  1.0000
  H   H81       1.0  0.23886  0.29938  0.34295  1.0000
  C   C45       1.0  0.19667  0.61335  0.42015  1.0000
  C   C46       1.0  0.18592  0.62865  0.45000  1.0000
  H   H82       1.0  0.50017  0.70127  0.34518  1.0000
  N   N5        1.0  0.29204  0.36380  0.45592  1.0000
  H   H83       1.0  0.28665  0.25912  0.37393  1.0000
  H   H84       1.0  0.20735  0.56909  0.41576  1.0000
  H   H85       1.0  0.18820  0.59612  0.46855  1.0000
  H   H86       1.0  0.31652  0.39201  0.41405  1.0000
  H   H87       1.0  0.09641  0.69812  0.44719  1.0000
  H   H88       1.0  0.27492  0.28215  0.43388  1.0000
  C   C47       1.0  0.29055  0.29724  0.35863  1.0000
  H   H89       1.0  0.54915  0.38497  0.46072  1.0000
  H   H90       1.0  0.47530  0.55294  0.37846  1.0000
  S   S26       1.0  0.35649  0.29477  0.37787  1.0000
  H   H91       1.0  0.22832  0.32433  0.55641  1.0000
  C   C48       1.0  0.26354  0.31968  0.34090  1.0000
  H   H92       1.0  0.28926  0.44803  0.43091  1.0000
  H   H93       1.0  0.51725  0.21119  0.45610  1.0000
  C   C49       1.0  0.19313  0.65498  0.39588  1.0000
  C   C50       1.0  0.47875  0.60269  0.37557  1.0000
  N   N6        1.0  0.17505  0.34304  0.55386  1.0000
  C   C51       1.0  0.19995  0.24922  0.41305  1.0000
  H   H94       1.0  0.32094  0.35802  0.49796  1.0000
  S   S27       1.0  0.25905  0.47850  0.54606  1.0000
  H   H95       1.0  0.15525  0.40421  0.51968  1.0000
  C   C52       1.0  0.25975  0.37431  0.47213  1.0000
  H   H96       1.0  0.57745  0.39995  0.41111  1.0000
  C   C53       1.0  0.29235  0.39862  0.42673  1.0000
  H   H97       1.0  0.29500  0.27058  0.47045  1.0000
  H   H98       1.0  0.17936  0.45709  0.32323  1.0000
  C   C54       1.0  0.47336  0.68893  0.34151  1.0000
  H   H99       1.0  0.42619  0.23930  0.44046  1.0000
  H   H100      1.0  0.31809  0.43261  0.48178  1.0000
  H   H101      1.0  0.12082  0.34052  0.55405  1.0000
  H   H102      1.0  0.23781  0.36014  0.45773  1.0000
  H   H103      1.0  0.25637  0.42299  0.47815  1.0000
  C   C55       1.0  0.57545  0.66568  0.34654  1.0000
  C   C56       1.0  0.32259  0.32350  0.35613  1.0000
  S   S28       1.0  0.21843  0.23011  0.47368  1.0000
  H   H104      1.0  0.56947  0.40675  0.49624  1.0000
  Fe  Fe15      1.0  0.40426  0.33928  0.36232  1.0000
  H   H105      1.0  0.50598  0.61246  0.37991  1.0000
  Fe  Fe16      1.0  0.43770  0.43042  0.32012  1.0000
  H   H106      1.0  0.48827  0.25160  0.48058  1.0000
  H   H107      1.0  0.09813  0.22138  0.45696  1.0000
  C   C57       1.0  0.14282  0.30963  0.55589  1.0000
  S   S29       1.0  0.41564  0.43798  0.36769  1.0000
  H   H108      1.0  0.17749  0.34011  0.50433  1.0000
  H   H109      1.0  0.52167  0.26936  0.37454  1.0000
  H   H110      1.0  0.46383  0.62557  0.39388  1.0000
  C   C58       1.0  0.48873  0.59142  0.32103  1.0000
  H   H111      1.0  0.13453  0.45784  0.32972  1.0000
  S   S30       1.0  0.44580  0.35640  0.55284  1.0000
  C   C59       1.0  0.47921  0.68724  0.56248  1.0000
  H   H112      1.0  0.18419  0.26285  0.36576  1.0000
  H   H113      1.0  0.42689  0.56024  0.34226  1.0000
  C   C60       1.0  0.30032  0.39580  0.31898  1.0000
  H   H114      1.0  0.42271  0.32867  0.49167  1.0000
  H   H115      1.0  0.11221  0.23553  0.41824  1.0000
  C   C61       1.0  0.43208  0.60933  0.33957  1.0000
  N   N7        1.0  0.46823  0.62302  0.34445  1.0000
  C   C62       1.0  0.26849  0.36855  0.32079  1.0000
  C   C63       1.0  0.19768  0.21168  0.43909  1.0000
  S   S31       1.0  0.48989  0.40686  0.33674  1.0000
  H   H116      1.0  0.10163  0.48292  0.52968  1.0000
  H   H117      1.0  0.35201  0.39376  0.33449  1.0000
  Fe  Fe17      1.0  0.46643  0.40555  0.38360  1.0000
  S   S32       1.0  0.49425  0.44891  0.42271  1.0000
  S   S33       1.0  0.45325  0.30706  0.38224  1.0000
  Fe  Fe18      1.0  0.21494  0.54056  0.55428  1.0000
  C   C64       1.0  0.17721  0.37357  0.52354  1.0000
  H   H118      1.0  0.49619  0.44329  0.53516  1.0000
  C   C65       1.0  0.47921  0.42516  0.45871  1.0000
  C   C66       1.0  0.49418  0.44785  0.48557  1.0000
  C   C67       1.0  0.48403  0.42644  0.51452  1.0000
  C   C68       1.0  0.45857  0.38287  0.51667  1.0000
  C   C69       1.0  0.44311  0.36093  0.48987  1.0000
  C   C70       1.0  0.45336  0.38221  0.46086  1.0000
  H   H119      1.0  0.51381  0.48169  0.48406  1.0000
  H   H120      1.0  0.44100  0.36594  0.44027  1.0000
  H   H121      1.0  0.58384  0.34134  0.47581  1.0000
  S   S34       1.0  0.22104  0.64129  0.55099  1.0000
  Fe  Fe19      1.0  0.47200  0.31106  0.33366  1.0000
  H   H122      1.0  0.51618  0.59916  0.32469  1.0000
  H   H123      1.0  0.48738  0.26347  0.43968  1.0000
  H   H124      1.0  0.58077  0.50908  0.47596  1.0000
  H   H125      1.0  0.33026  0.44678  0.54974  1.0000
  H   H126      1.0  0.20350  0.26622  0.53844  1.0000
  H   H127      1.0  0.48450  0.54171  0.32184  1.0000
  C   C71       1.0  0.20360  0.30037  0.55725  1.0000
  H   H128      1.0  0.20060  0.40133  0.52178  1.0000
  C   C72       1.0  0.49088  0.22840  0.45789  1.0000
  C   C73       1.0  0.53423  0.22762  0.36857  1.0000
  C   C74       1.0  0.08612  0.44760  0.53933  1.0000
  H   H129      1.0  0.14044  0.27555  0.53720  1.0000
  H   H130      1.0  0.48606  0.66175  0.54126  1.0000
  C   C75       1.0  0.08989  0.23742  0.43374  1.0000
  H   H131      1.0  0.55994  0.49001  0.44044  1.0000
  H   H132      1.0  0.56048  0.22067  0.41211  1.0000
  H   H133      1.0  0.38182  0.22214  0.32041  1.0000
  C   C76       1.0  0.57760  0.23347  0.54600  1.0000
  C   C77       1.0  0.15644  0.48627  0.32280  1.0000
  H   H134      1.0  0.56787  0.24466  0.52334  1.0000
  H   H135      1.0  0.42730  0.22228  0.48118  1.0000
  C   C78       1.0  0.32558  0.48430  0.56514  1.0000
  S   S35       1.0  0.58452  0.60473  0.37105  1.0000
  C   C79       1.0  0.58465  0.48874  0.45277  1.0000
  H   H136      1.0  0.42371  0.62266  0.31593  1.0000
  N   N8        1.0  0.12075  0.63616  0.69085  1.0000
  H   H137      1.0  0.35168  0.49181  0.70950  1.0000
  C   C80       1.0  0.22332  0.67407  0.66807  1.0000
  H   H138      1.0  0.48691  0.21457  0.66869  1.0000
  C   C81       1.0  0.44272  0.50289  0.78317  1.0000
  H   H139      1.0  0.14041  0.28565  0.57834  1.0000
  H   H140      1.0  0.37769  0.49171  0.57946  1.0000
  C   C82       1.0  0.32386  0.59919  0.69636  1.0000
  C   C83       1.0  0.36966  0.53023  0.70722  1.0000
  C   C84       1.0  0.34668  0.55919  0.60160  1.0000
  S   S36       1.0  0.19117  0.54206  0.60106  1.0000
  H   H141      1.0  0.09295  0.33005  0.74930  1.0000
  H   H142      1.0  0.21511  0.40411  0.78431  1.0000
  H   H143      1.0  0.12343  0.55873  0.66073  1.0000
  H   H144      1.0  0.43537  0.30594  0.61372  1.0000
  H   H145      1.0  0.36679  0.68261  0.71811  1.0000
  C   C85       1.0  0.46389  0.50621  0.73065  1.0000
  C   C86       1.0  0.28714  0.55620  0.58821  1.0000
  H   H146      1.0  0.20090  0.41391  0.57820  1.0000
  H   H147      1.0  0.13938  0.62918  0.73740  1.0000
  C   C87       1.0  0.23819  0.58533  0.69853  1.0000
  C   C88       1.0  0.22990  0.61189  0.67003  1.0000
  C   C89       1.0  0.55840  0.54406  0.67825  1.0000
  C   C90       1.0  0.14378  0.60950  0.71412  1.0000
  C   C91       1.0  0.35247  0.50981  0.58200  1.0000
  H   H148      1.0  0.24222  0.53693  0.70005  1.0000
  H   H149      1.0  0.22854  0.58412  0.64972  1.0000
  H   H150      1.0  0.12641  0.43164  0.79369  1.0000
  Fe  Fe20      1.0  0.19378  0.64270  0.59614  1.0000
  C   C92       1.0  0.34322  0.58536  0.74879  1.0000
  C   C93       1.0  0.17663  0.38849  0.57876  1.0000
  S   S37       1.0  0.37984  0.59240  0.62273  1.0000
  H   H151      1.0  0.26207  0.57397  0.59132  1.0000
  C   C94       1.0  0.31395  0.58223  0.60461  1.0000
  H   H152      1.0  0.23315  0.47733  0.79069  1.0000
  S   S38       1.0  0.16480  0.58935  0.80689  1.0000
  C   C95       1.0  0.24058  0.62112  0.72505  1.0000
  S   S39       1.0  0.24885  0.58723  0.76097  1.0000
  H   H153      1.0  0.20236  0.27538  0.57960  1.0000
  H   H154      1.0  0.17456  0.36681  0.60191  1.0000
  Fe  Fe21      1.0  0.21575  0.62942  0.79724  1.0000
  Fe  Fe22      1.0  0.14224  0.54933  0.57546  1.0000
  H   H155      1.0  0.56598  0.59258  0.67910  1.0000
  C   C96       1.0  0.37814  0.63815  0.71187  1.0000
  S   S40       1.0  0.45506  0.52698  0.57422  1.0000
  S   S41       1.0  0.09872  0.49838  0.59599  1.0000
  C   C97       1.0  0.29285  0.50786  0.56803  1.0000
  H   H156      1.0  0.17056  0.61825  0.70821  1.0000
  H   H157      1.0  0.33100  0.60328  0.67165  1.0000
  H   H158      1.0  0.09267  0.27271  0.72005  1.0000
  H   H159      1.0  0.49608  0.30563  0.59659  1.0000
  H   H160      1.0  0.46960  0.53199  0.71023  1.0000
  S   S42       1.0  0.15923  0.31718  0.78519  1.0000
  Fe  Fe23      1.0  0.17295  0.22034  0.79408  1.0000
  H   H161      1.0  0.14200  0.20876  0.67466  1.0000
  H   H162      1.0  0.30918  0.62044  0.61956  1.0000
  C   C98       1.0  0.54424  0.67144  0.62902  1.0000
  H   H163      1.0  0.40099  0.63154  0.72649  1.0000
  C   C99       1.0  0.12642  0.70225  0.68908  1.0000
  C   C100      1.0  0.12736  0.60867  0.66036  1.0000
  H   H164      1.0  0.46151  0.29354  0.81203  1.0000
  N   N9        1.0  0.47146  0.23506  0.62217  1.0000
  H   H165      1.0  0.44389  0.41534  0.80512  1.0000
  H   H166      1.0  0.38661  0.64134  0.68740  1.0000
  C   C101      1.0  0.12577  0.33878  0.80900  1.0000
  C   C102      1.0  0.08546  0.62418  0.69995  1.0000
  H   H167      1.0  0.30552  0.56133  0.69815  1.0000
  S   S43       1.0  0.14245  0.65059  0.57473  1.0000
  H   H168      1.0  0.26023  0.41280  0.78550  1.0000
  C   C103      1.0  0.23616  0.42837  0.79607  1.0000
  H   H169      1.0  0.36517  0.57689  0.76443  1.0000
  H   H170      1.0  0.14042  0.55960  0.71597  1.0000
  H   H171      1.0  0.54111  0.53507  0.69797  1.0000
  Fe  Fe24      1.0  0.42695  0.53739  0.61862  1.0000
  H   H172      1.0  0.15380  0.61714  0.65279  1.0000
  H   H173      1.0  0.52353  0.24615  0.60951  1.0000
  Fe  Fe25      1.0  0.14683  0.68555  0.80707  1.0000
  H   H174      1.0  0.39193  0.51976  0.72196  1.0000
  H   H175      1.0  0.54383  0.53759  0.65657  1.0000
  S   S44       1.0  0.42493  0.43859  0.62975  1.0000
  C   C104      1.0  0.11390  0.39835  0.80802  1.0000
  C   C105      1.0  0.44279  0.27321  0.63211  1.0000
  H   H176      1.0  0.44600  0.58392  0.75573  1.0000
  S   S45       1.0  0.42338  0.54118  0.81387  1.0000
  C   C106      1.0  0.23574  0.68369  0.72277  1.0000
  H   H177      1.0  0.31049  0.64167  0.70286  1.0000
  H   H178      1.0  0.33095  0.62835  0.75622  1.0000
  C   C107      1.0  0.45051  0.53564  0.75647  1.0000
  S   S46       1.0  0.50558  0.43571  0.61305  1.0000
  S   S47       1.0  0.54964  0.57821  0.58745  1.0000
  Fe  Fe26      1.0  0.45671  0.42892  0.58744  1.0000
  H   H179      1.0  0.45518  0.23409  0.57472  1.0000
  H   H180      1.0  0.44918  0.29981  0.65315  1.0000
  Fe  Fe27      1.0  0.47377  0.45517  0.65445  1.0000
  S   S48       1.0  0.48591  0.40657  0.69876  1.0000
  S   S49       1.0  0.47314  0.55581  0.64721  1.0000
  H   H181      1.0  0.49294  0.66553  0.58197  1.0000
  C   C108      1.0  0.44960  0.44074  0.78446  1.0000
  C   C109      1.0  0.46354  0.41135  0.75867  1.0000
  C   C110      1.0  0.47013  0.44394  0.73152  1.0000
  H   H182      1.0  0.46859  0.36322  0.75951  1.0000
  H   H183      1.0  0.50817  0.30090  0.63664  1.0000
  C   C111      1.0  0.57704  0.43995  0.67980  1.0000
  Fe  Fe28      1.0  0.50148  0.53516  0.60373  1.0000
  H   H184      1.0  0.56124  0.43043  0.70050  1.0000
  H   H185      1.0  0.51892  0.65574  0.63352  1.0000
  C   C112      1.0  0.50113  0.27372  0.61599  1.0000
  C   C113      1.0  0.56487  0.64065  0.60814  1.0000
  H   H186      1.0  0.09518  0.25171  0.76006  1.0000
  H   H187      1.0  0.37835  0.53127  0.68279  1.0000
  N   N10       1.0  0.35375  0.58824  0.71610  1.0000
  H   H188      1.0  0.32449  0.54857  0.75268  1.0000
  H   H189      1.0  0.15567  0.42191  0.57672  1.0000
  H   H190      1.0  0.11029  0.62752  0.64225  1.0000
  H   H191      1.0  0.42011  0.24532  0.63732  1.0000
  H   H192      1.0  0.56153  0.42862  0.65918  1.0000
  H   H193      1.0  0.45169  0.68071  0.56663  1.0000
  S   S50       1.0  0.16336  0.53929  0.89438  1.0000
  H   H194      1.0  0.09236  0.49042  0.90130  1.0000
  C   C114      1.0  0.42338  0.22342  0.84944  1.0000
  S   S51       1.0  0.40309  0.59958  0.95751  1.0000
  S   S52       1.0  0.39563  0.42441  0.93900  1.0000
  Fe  Fe29      1.0  0.26418  0.49876  0.04282  1.0000
  H   H195      1.0  0.58195  0.37743  0.98421  1.0000
  S   S53       1.0  0.27976  0.49804  0.99300  1.0000
  C   C115      1.0  0.11386  0.23267  0.91094  1.0000
  H   H196      1.0  0.14874  0.68773  0.03446  1.0000
  Fe  Fe30      1.0  0.17751  0.60532  0.85677  1.0000
  Fe  Fe31      1.0  0.36384  0.41952  0.89637  1.0000
  C   C116      1.0  0.12109  0.29065  0.95748  1.0000
  S   S54       1.0  0.31392  0.37299  0.90200  1.0000
  N   N11       1.0  0.58222  0.46399  0.96164  1.0000
  C   C117      1.0  0.29547  0.66351  0.96047  1.0000
  H   H197      1.0  0.14814  0.37294  0.91943  1.0000
  H   H198      1.0  0.11909  0.25028  0.82908  1.0000
  H   H199      1.0  0.42039  0.55646  0.04601  1.0000
  C   C118      1.0  0.32980  0.29690  0.85434  1.0000
  H   H200      1.0  0.26864  0.27334  0.90802  1.0000
  H   H201      1.0  0.32008  0.61144  0.01171  1.0000
  S   S55       1.0  0.53029  0.58892  0.04530  1.0000
  C   C119      1.0  0.32474  0.24533  0.83619  1.0000
  N   N12       1.0  0.45891  0.21338  0.84024  1.0000
  C   C120      1.0  0.24708  0.50611  0.96555  1.0000
  C   C121      1.0  0.16494  0.39966  0.04339  1.0000
  H   H202      1.0  0.23638  0.54167  0.88971  1.0000
  H   H203      1.0  0.28929  0.43109  0.83617  1.0000
  C   C122      1.0  0.32191  0.66176  0.01065  1.0000
  N   N13       1.0  0.23588  0.41743  0.82971  1.0000
  H   H204      1.0  0.19161  0.40607  0.03935  1.0000
  H   H205      1.0  0.50166  0.26655  0.82602  1.0000
  H   H206      1.0  0.38774  0.25489  0.94596  1.0000
  H   H207      1.0  0.45191  0.62622  0.86129  1.0000
  C   C123      1.0  0.14176  0.41130  0.01968  1.0000
  C   C124      1.0  0.19574  0.52636  0.92156  1.0000
  H   H208      1.0  0.55089  0.47694  0.92158  1.0000
  C   C125      1.0  0.56466  0.40810  0.97130  1.0000
  H   H209      1.0  0.28153  0.52269  0.92808  1.0000
  C   C126      1.0  0.16991  0.25824  0.92878  1.0000
  C   C127      1.0  0.53473  0.27914  0.91395  1.0000
  C   C128      1.0  0.33944  0.26639  0.98901  1.0000
  H   H210      1.0  0.12950  0.60965  0.99689  1.0000
  H   H211      1.0  0.20255  0.43191  0.86812  1.0000
  C   C129      1.0  0.09634  0.37611  0.05238  1.0000
  C   C130      1.0  0.25528  0.51996  0.93493  1.0000
  H   H212      1.0  0.31952  0.67606  0.94887  1.0000
  H   H213      1.0  0.15052  0.42780  0.99763  1.0000
  S   S56       1.0  0.23038  0.63622  0.84713  1.0000
  C   C131      1.0  0.55925  0.50158  0.94261  1.0000
  H   H214      1.0  0.10697  0.54383  0.01037  1.0000
  C   C132      1.0  0.28434  0.26552  0.88802  1.0000
  C   C133      1.0  0.41957  0.43716  0.03217  1.0000
  H   H215      1.0  0.56429  0.41267  0.86251  1.0000
  H   H216      1.0  0.18647  0.29306  0.93954  1.0000
  C   C134      1.0  0.08686  0.64165  0.04222  1.0000
  H   H217      1.0  0.47312  0.30442  0.85167  1.0000
  C   C135      1.0  0.22969  0.53088  0.91313  1.0000
  H   H218      1.0  0.34840  0.32975  0.84756  1.0000
  C   C136      1.0  0.56464  0.33956  0.04554  1.0000
  H   H219      1.0  0.10685  0.35291  0.90557  1.0000
  H   H220      1.0  0.55502  0.38237  0.95113  1.0000
  H   H221      1.0  0.54273  0.41808  0.98653  1.0000
  H   H222      1.0  0.16127  0.50543  0.95837  1.0000
  H   H223      1.0  0.13608  0.32551  0.96991  1.0000
  H   H224      1.0  0.12330  0.22206  0.88741  1.0000
  H   H225      1.0  0.48999  0.67193  0.90022  1.0000
  C   C137      1.0  0.56779  0.28000  0.90245  1.0000
  H   H226      1.0  0.41197  0.66087  0.85272  1.0000
  C   C138      1.0  0.21309  0.50038  0.97385  1.0000
  S   S57       1.0  0.36907  0.51807  0.88527  1.0000
  C   C139      1.0  0.26461  0.44923  0.84429  1.0000
  N   N14       1.0  0.11919  0.60878  0.04559  1.0000
  H   H227      1.0  0.10180  0.62661  0.91127  1.0000
  N   N15       1.0  0.13458  0.27947  0.92629  1.0000
  H   H228      1.0  0.42175  0.25146  0.87073  1.0000
  C   C140      1.0  0.30945  0.30722  0.88011  1.0000
  H   H229      1.0  0.20654  0.48764  0.99705  1.0000
  C   C141      1.0  0.18747  0.50996  0.95184  1.0000
  Fe  Fe32      1.0  0.40497  0.52048  0.92514  1.0000
  H   H230      1.0  0.18164  0.41803  0.83194  1.0000
  H   H231      1.0  0.08701  0.24703  0.90878  1.0000
  C   C142      1.0  0.10746  0.39998  0.02425  1.0000
  C   C143      1.0  0.13331  0.33624  0.90815  1.0000
  C   C144      1.0  0.36389  0.22946  0.94178  1.0000
  H   H232      1.0  0.57066  0.50920  0.00434  1.0000
  H   H233      1.0  0.18052  0.24676  0.90578  1.0000
  H   H234      1.0  0.47713  0.67832  0.03850  1.0000
  H   H235      1.0  0.27414  0.68059  0.94602  1.0000
  C   C145      1.0  0.26127  0.67147  0.00639  1.0000
  C   C146      1.0  0.10992  0.29631  0.82800  1.0000
  H   H236      1.0  0.42729  0.68238  0.00370  1.0000
  H   H237      1.0  0.41519  0.46554  0.01128  1.0000
  H   H238      1.0  0.44731  0.42910  0.03409  1.0000
  H   H239      1.0  0.14367  0.32957  0.88456  1.0000
  H   H240      1.0  0.53625  0.51463  0.95565  1.0000
  C   C147      1.0  0.12704  0.57712  0.01644  1.0000
  C   C148      1.0  0.43089  0.65306  0.87144  1.0000
  H   H241      1.0  0.54671  0.30651  0.03720  1.0000
  H   H242      1.0  0.50555  0.41034  0.88224  1.0000
  Fe  Fe33      1.0  0.43821  0.40195  0.90715  1.0000
  H   H243      1.0  0.23967  0.69057  0.99306  1.0000
  H   H244      1.0  0.10225  0.52611  0.93732  1.0000
  S   S58       1.0  0.45701  0.26047  0.03555  1.0000
  C   C149      1.0  0.27893  0.21448  0.86960  1.0000
  H   H245      1.0  0.29800  0.20521  0.95119  1.0000
  N   N16       1.0  0.29395  0.68784  0.99219  1.0000
  H   H246      1.0  0.26426  0.44382  0.86985  1.0000
  C   C150      1.0  0.44412  0.64374  0.00304  1.0000
  C   C151      1.0  0.43798  0.59638  0.98239  1.0000
  Fe  Fe34      1.0  0.41450  0.48981  0.85796  1.0000
  H   H247      1.0  0.47695  0.21497  0.88705  1.0000
  C   C152      1.0  0.14636  0.65251  0.05276  1.0000
  H   H248      1.0  0.29418  0.61323  0.96059  1.0000
  H   H249      1.0  0.32642  0.25479  0.01094  1.0000
  H   H250      1.0  0.15123  0.55158  0.01824  1.0000
  C   C153      1.0  0.47222  0.64135  0.02284  1.0000
  H   H251      1.0  0.12145  0.24866  0.97175  1.0000
  H   H252      1.0  0.36490  0.50820  0.03538  1.0000
  N   N17       1.0  0.40620  0.46683  0.06015  1.0000
  H   H253      1.0  0.20121  0.48984  0.83924  1.0000
  C   C154      1.0  0.52284  0.37409  0.88800  1.0000
  S   S59       1.0  0.21193  0.52001  0.05898  1.0000
  C   C155      1.0  0.49426  0.59179  0.02182  1.0000
  C   C156      1.0  0.48772  0.54404  0.00154  1.0000
  C   C157      1.0  0.45976  0.54646  0.98169  1.0000
  C   C158      1.0  0.55602  0.37528  0.87679  1.0000
  H   H254      1.0  0.50398  0.50465  0.00169  1.0000
  H   H255      1.0  0.45484  0.50919  0.96621  1.0000
  H   H256      1.0  0.41857  0.62459  0.88935  1.0000
  H   H257      1.0  0.52665  0.24234  0.92875  1.0000
  S   S60       1.0  0.15501  0.69875  0.85789  1.0000
  S   S61       1.0  0.40589  0.39037  0.86510  1.0000
  C   C159      1.0  0.20388  0.44022  0.84280  1.0000
  S   S62       1.0  0.45116  0.49907  0.89730  1.0000
  S   S63       1.0  0.47138  0.32478  0.92182  1.0000
  C   C160      1.0  0.51232  0.32630  0.90682  1.0000
  H   H258      1.0  0.40728  0.39255  0.02814  1.0000
  C   C161      1.0  0.57848  0.32820  0.88395  1.0000
  H   H259      1.0  0.32160  0.67910  0.03476  1.0000
  H   H260      1.0  0.34697  0.67267  0.00043  1.0000
  H   H261      1.0  0.34705  0.25936  0.92795  1.0000
  H   H262      1.0  0.32257  0.29749  0.97571  1.0000
  C   C162      1.0  0.29885  0.20486  0.84349  1.0000
  H   H263      1.0  0.09450  0.30700  0.95639  1.0000
  H   H264      1.0  0.25786  0.62151  0.00746  1.0000
  H   H265      1.0  0.17170  0.21676  0.94331  1.0000
  H   H266      1.0  0.36263  0.29209  0.99527  1.0000
  N   N18       1.0  0.34775  0.21146  0.97110  1.0000
  H   H267      1.0  0.26403  0.49864  0.83915  1.0000
  C   C163      1.0  0.47450  0.27203  0.83206  1.0000
  H   H268      1.0  0.40872  0.24677  0.83097  1.0000
  H   H269      1.0  0.08776  0.67494  0.02292  1.0000
  C   C164      1.0  0.36974  0.47918  0.05599  1.0000
  H   H270      1.0  0.25915  0.68945  0.03033  1.0000
  H   H271      1.0  0.17133  0.62985  0.05488  1.0000
  H   H272      1.0  0.57185  0.54408  0.93494  1.0000
  H   H273      1.0  0.09197  0.59043  0.87535  1.0000
  C   C165      1.0  0.55330  0.39201  0.06012  1.0000
  H   H274      1.0  0.23809  0.34203  0.86092  1.0000
  H   H275      1.0  0.45681  0.67167  0.92837  1.0000
  H   H276      1.0  0.35516  0.43650  0.05291  1.0000
  C   C166      1.0  0.46814  0.69825  0.90916  1.0000
  C   C167      1.0  0.23870  0.35179  0.83575  1.0000
  C   C168      1.0  0.08532  0.41476  0.82503  1.0000
  H   H277      1.0  0.21761  0.32650  0.82478  1.0000
  H   H278      1.0  0.33979  0.23824  0.81571  1.0000
  H   H279      1.0  0.26267  0.33287  0.82645  1.0000
  H   H280      1.0  0.20442  0.17128  0.12254  1.0000
  C   C169      1.0  0.32157  0.06450  0.10009  1.0000
  S   S64       1.0  0.13329  0.19691  0.26494  1.0000
  H   H281      1.0  0.53452  0.87902  0.18423  1.0000
  C   C170      1.0  0.15701  0.10201  0.19165  1.0000
  C   C171      1.0  0.34950  0.08823  0.11580  1.0000
  H   H282      1.0  0.54327  0.12934  0.30878  1.0000
  H   H283      1.0  0.20042  0.94812  0.25268  1.0000
  C   C172      1.0  0.34028  0.92671  0.18577  1.0000
  S   S65       1.0  0.16348  0.81935  0.25975  1.0000
  Fe  Fe35      1.0  0.18087  0.98429  0.08300  1.0000
  S   S66       1.0  0.21830  0.90881  0.08947  1.0000
  C   C173      1.0  0.32609  0.75023  0.31072  1.0000
  H   H284      1.0  0.21453  0.75466  0.15459  1.0000
  C   C174      1.0  0.37650  0.84055  0.19508  1.0000
  C   C175      1.0  0.29726  0.81886  0.27547  1.0000
  H   H285      1.0  0.40813  0.88041  0.14397  1.0000
  S   S67       1.0  0.57767  0.82607  0.13673  1.0000
  C   C176      1.0  0.18476  0.96851  0.31188  1.0000
  H   H286      1.0  0.36038  0.06379  0.13507  1.0000
  S   S68       1.0  0.49088  0.96487  0.29817  1.0000
  C   C177      1.0  0.21004  0.05925  0.17462  1.0000
  H   H287      1.0  0.32199  0.82204  0.15895  1.0000
  S   S69       1.0  0.50104  0.18692  0.16593  1.0000
  C   C178      1.0  0.15797  0.03144  0.14870  1.0000
  H   H288      1.0  0.39067  0.86605  0.21310  1.0000
  H   H289      1.0  0.23726  0.05551  0.17652  1.0000
  H   H290      1.0  0.20707  0.99554  0.13761  1.0000
  H   H291      1.0  0.39429  0.80696  0.18502  1.0000
  H   H292      1.0  0.55708  0.94661  0.26053  1.0000
  Fe  Fe36      1.0  0.50196  0.86508  0.29744  1.0000
  S   S70       1.0  0.30354  0.99570  0.11177  1.0000
  H   H293      1.0  0.14315  0.13144  0.20691  1.0000
  H   H294      1.0  0.33287  0.87635  0.12978  1.0000
  H   H295      1.0  0.13501  0.87213  0.14269  1.0000
  N   N19       1.0  0.56265  0.94346  0.21120  1.0000
  C   C179      1.0  0.09277  0.93377  0.30603  1.0000
  H   H296      1.0  0.52661  0.99044  0.18255  1.0000
  C   C180      1.0  0.32832  0.84390  0.26721  1.0000
  N   N20       1.0  0.19321  0.01454  0.28840  1.0000
  H   H297      1.0  0.40642  0.93941  0.17234  1.0000
  C   C181      1.0  0.36350  0.14367  0.10642  1.0000
  C   C182      1.0  0.19739  0.71729  0.15854  1.0000
  H   H298      1.0  0.11389  0.74107  0.15294  1.0000
  H   H299      1.0  0.27214  0.75276  0.30400  1.0000
  H   H300      1.0  0.16721  0.07524  0.25771  1.0000
  H   H301      1.0  0.35989  0.81210  0.13667  1.0000
  H   H302      1.0  0.26513  0.16879  0.16539  1.0000
  S   S71       1.0  0.21972  0.05777  0.08064  1.0000
  H   H303      1.0  0.17040  0.93050  0.30149  1.0000
  Fe  Fe37      1.0  0.25706  0.98171  0.08302  1.0000
  C   C183      1.0  0.57706  0.94843  0.24258  1.0000
  C   C184      1.0  0.19230  0.09875  0.19374  1.0000
  H   H304      1.0  0.11259  0.07092  0.16711  1.0000
  H   H305      1.0  0.32926  0.88098  0.25094  1.0000
  S   S72       1.0  0.26022  0.84716  0.25856  1.0000
  H   H306      1.0  0.38507  0.16193  0.11858  1.0000
  H   H307      1.0  0.24780  0.19671  0.08224  1.0000
  C   C185      1.0  0.17926  0.71364  0.18621  1.0000
  H   H308      1.0  0.40434  0.05129  0.17863  1.0000
  H   H309      1.0  0.36101  0.17112  0.29444  1.0000
  C   C186      1.0  0.44606  0.11279  0.17324  1.0000
  Fe  Fe38      1.0  0.21527  0.80003  0.27820  1.0000
  C   C187      1.0  0.47587  0.13523  0.18622  1.0000
  S   S73       1.0  0.21544  0.14495  0.21889  1.0000
  C   C188      1.0  0.13977  0.06789  0.16919  1.0000
  H   H310      1.0  0.26267  0.13437  0.12804  1.0000
  C   C189      1.0  0.19291  0.02551  0.15233  1.0000
  C   C190      1.0  0.35819  0.82220  0.28058  1.0000
  H   H311      1.0  0.18245  0.74822  0.20357  1.0000
  H   H312      1.0  0.14615  0.82693  0.17564  1.0000
  H   H313      1.0  0.23809  0.96854  0.27318  1.0000
  H   H314      1.0  0.14701  0.00354  0.26287  1.0000
  H   H315      1.0  0.38202  0.84188  0.27397  1.0000
  H   H316      1.0  0.09857  0.15733  0.13421  1.0000
  H   H317      1.0  0.10377  0.88098  0.26569  1.0000
  C   C191      1.0  0.21257  0.06395  0.30299  1.0000
  H   H318      1.0  0.54920  0.03779  0.20916  1.0000
  H   H319      1.0  0.38143  0.94542  0.13772  1.0000
  S   S74       1.0  0.13830  0.99813  0.11657  1.0000
  H   H320      1.0  0.35379  0.95302  0.20386  1.0000
  H   H321      1.0  0.35602  0.81498  0.20677  1.0000
  H   H322      1.0  0.47588  0.05472  0.25326  1.0000
  S   S75       1.0  0.55087  0.82330  0.28258  1.0000
  C   C192      1.0  0.34353  0.84640  0.14814  1.0000
  C   C193      1.0  0.35712  0.77600  0.30268  1.0000
  N   N21       1.0  0.41022  0.14170  0.30959  1.0000
  C   C194      1.0  0.34932  0.17560  0.08159  1.0000
  C   C195      1.0  0.39095  0.91319  0.15559  1.0000
  N   N22       1.0  0.36280  0.88171  0.17116  1.0000
  C   C196      1.0  0.26893  0.17722  0.14029  1.0000
  H   H323      1.0  0.31804  0.90467  0.19673  1.0000
  C   C197      1.0  0.42726  0.06870  0.18892  1.0000
  S   S76       1.0  0.50423  0.73446  0.09492  1.0000
  H   H324      1.0  0.10178  0.77571  0.20606  1.0000
  H   H325      1.0  0.14510  0.05933  0.29293  1.0000
  C   C198      1.0  0.43849  0.04635  0.21740  1.0000
  C   C199      1.0  0.54580  0.88414  0.20765  1.0000
  H   H326      1.0  0.41300  0.16238  0.26101  1.0000
  C   C200      1.0  0.09488  0.77442  0.14440  1.0000
  Fe  Fe39      1.0  0.44269  0.93928  0.27413  1.0000
  C   C201      1.0  0.42756  0.16895  0.28278  1.0000
  S   S77       1.0  0.45660  0.84158  0.26895  1.0000
  C   C202      1.0  0.48616  0.11516  0.21545  1.0000
  H   H327      1.0  0.33042  0.95984  0.16861  1.0000
  C   C203      1.0  0.53768  0.99223  0.20621  1.0000
  C   C204      1.0  0.09285  0.92219  0.27432  1.0000
  H   H328      1.0  0.29631  0.18608  0.13653  1.0000
  H   H329      1.0  0.43754  0.12907  0.15104  1.0000
  H   H330      1.0  0.12585  0.89909  0.18072  1.0000
  C   C205      1.0  0.46754  0.07054  0.23096  1.0000
  H   H331      1.0  0.50886  0.13336  0.22585  1.0000
  H   H332      1.0  0.51645  0.98808  0.22278  1.0000
  H   H333      1.0  0.52517  0.87819  0.22479  1.0000
  C   C206      1.0  0.21383  0.98655  0.26384  1.0000
  S   S78       1.0  0.41609  0.98763  0.23532  1.0000
  Fe  Fe40      1.0  0.54574  0.74291  0.13006  1.0000
  S   S79       1.0  0.44999  0.14771  0.08603  1.0000
  H   H334      1.0  0.08580  0.15932  0.19132  1.0000
  C   C207      1.0  0.56109  0.76347  0.30732  1.0000
  C   C208      1.0  0.29611  0.77172  0.29713  1.0000
  H   H335      1.0  0.10202  0.78734  0.12047  1.0000
  C   C209      1.0  0.16173  0.03924  0.27490  1.0000
  C   C210      1.0  0.12648  0.85775  0.16606  1.0000
  S   S80       1.0  0.41917  0.72146  0.14194  1.0000
  C   C211      1.0  0.57096  0.70781  0.29495  1.0000
  H   H336      1.0  0.38695  0.07126  0.28269  1.0000
  S   S81       1.0  0.51326  0.71459  0.16979  1.0000
  H   H337      1.0  0.22017  0.01980  0.24541  1.0000
  Fe  Fe41      1.0  0.14779  0.81697  0.30955  1.0000
  N   N23       1.0  0.09307  0.82792  0.16479  1.0000
  H   H338      1.0  0.56388  0.84605  0.21107  1.0000
  C   C212      1.0  0.30749  0.09672  0.07535  1.0000
  H   H339      1.0  0.45306  0.14878  0.27944  1.0000
  H   H340      1.0  0.22075  0.09775  0.28547  1.0000
  H   H341      1.0  0.57995  0.94652  0.16434  1.0000
  S   S82       1.0  0.13677  0.71758  0.31002  1.0000
  Fe  Fe42      1.0  0.43121  0.82877  0.31443  1.0000
  H   H342      1.0  0.42749  0.05238  0.29846  1.0000
  Fe  Fe43      1.0  0.15701  0.71876  0.26186  1.0000
  C   C213      1.0  0.40359  0.07717  0.30324  1.0000
  H   H343      1.0  0.23576  0.04656  0.31459  1.0000
  C   C214      1.0  0.32095  0.15254  0.06646  1.0000
  C   C215      1.0  0.37784  0.17343  0.31503  1.0000
  Fe  Fe44      1.0  0.22939  0.04687  0.54507  1.0000
  Fe  Fe45      1.0  0.45427  0.04401  0.55904  1.0000
  S   S83       1.0  0.11695  0.99828  0.49417  1.0000
  S   S84       1.0  0.15612  0.70517  0.49195  1.0000
  S   S85       1.0  0.41465  0.10527  0.53908  1.0000
  S   S86       1.0  0.21162  0.05515  0.49616  1.0000
  H   H344      1.0  0.15964  0.77271  0.43587  1.0000
  C   C216      1.0  0.16418  0.17975  0.38435  1.0000
  H   H345      1.0  0.21009  0.92586  0.53965  1.0000
  C   C217      1.0  0.18895  0.81112  0.54481  1.0000
  H   H346      1.0  0.23885  0.91393  0.50855  1.0000
  C   C218      1.0  0.56580  0.72147  0.35895  1.0000
  C   C219      1.0  0.22819  0.79462  0.50292  1.0000
  S   S87       1.0  0.39453  0.75256  0.32087  1.0000
  C   C220      1.0  0.34600  0.09829  0.53110  1.0000
  H   H347      1.0  0.55179  0.02610  0.48610  1.0000
  Fe  Fe46      1.0  0.20715  0.15447  0.50694  1.0000
  H   H348      1.0  0.23077  0.74610  0.50941  1.0000
  H   H349      1.0  0.56399  0.09903  0.50109  1.0000
  H   H350      1.0  0.16878  0.98789  0.33057  1.0000
  C   C221      1.0  0.43196  0.14675  0.33726  1.0000
  C   C222      1.0  0.47211  0.13328  0.47907  1.0000
  H   H351      1.0  0.17686  0.74466  0.38309  1.0000
  N   N24       1.0  0.22032  0.83265  0.52999  1.0000
  H   H352      1.0  0.46595  0.70550  0.31813  1.0000
  H   H353      1.0  0.36397  0.15352  0.33492  1.0000
  S   S88       1.0  0.11211  0.88322  0.33200  1.0000
  H   H354      1.0  0.45665  0.12326  0.33390  1.0000
  H   H355      1.0  0.14469  0.92478  0.54316  1.0000
  H   H356      1.0  0.34841  0.13795  0.51660  1.0000
  S   S89       1.0  0.45355  0.94254  0.55734  1.0000
  C   C223      1.0  0.57409  0.14791  0.38158  1.0000
  C   C224      1.0  0.24847  0.82934  0.55246  1.0000
  H   H357      1.0  0.29217  0.09058  0.52414  1.0000
  S   S90       1.0  0.15386  0.14879  0.52367  1.0000
  C   C225      1.0  0.55629  0.20022  0.38978  1.0000
  N   N25       1.0  0.46611  0.17875  0.45461  1.0000
  H   H358      1.0  0.16703  0.81362  0.52869  1.0000
  S   S91       1.0  0.23027  0.14668  0.55408  1.0000
  H   H359      1.0  0.14853  0.10003  0.40918  1.0000
  C   C226      1.0  0.16246  0.14209  0.41019  1.0000
  S   S92       1.0  0.14077  0.16077  0.35147  1.0000
  S   S93       1.0  0.27160  0.98525  0.55930  1.0000
  C   C227      1.0  0.17949  0.71224  0.40163  1.0000
  C   C228      1.0  0.56952  0.12247  0.35234  1.0000
  H   H360      1.0  0.44103  0.77656  0.53760  1.0000
  C   C229      1.0  0.31416  0.07159  0.53543  1.0000
  C   C230      1.0  0.17853  0.15868  0.43759  1.0000
  C   C231      1.0  0.46879  0.77909  0.53373  1.0000
  S   S94       1.0  0.20065  0.80638  0.32797  1.0000
  Fe  Fe47      1.0  0.15968  0.04900  0.51649  1.0000
  H   H361      1.0  0.10721  0.78034  0.40973  1.0000
  H   H362      1.0  0.41983  0.12590  0.35784  1.0000
  H   H363      1.0  0.17586  0.13015  0.45755  1.0000
  H   H364      1.0  0.57357  0.07867  0.46202  1.0000
  H   H365      1.0  0.19719  0.08803  0.32066  1.0000
  H   H366      1.0  0.25272  0.78211  0.56069  1.0000
  C   C232      1.0  0.21563  0.89594  0.51975  1.0000
  C   C233      1.0  0.57198  0.06104  0.48600  1.0000
  H   H367      1.0  0.20783  0.79749  0.48519  1.0000
  H   H368      1.0  0.58134  0.97554  0.52923  1.0000
  H   H369      1.0  0.39117  0.05459  0.32319  1.0000
  H   H370      1.0  0.09238  0.12982  0.40246  1.0000
  H   H371      1.0  0.45220  0.09774  0.47903  1.0000
  H   H372      1.0  0.41216  0.16692  0.45455  1.0000
  Fe  Fe48      1.0  0.50749  0.95198  0.54269  1.0000
  Fe  Fe49      1.0  0.46252  0.94255  0.34149  1.0000
  S   S95       1.0  0.46030  0.00600  0.38176  1.0000
  S   S96       1.0  0.47765  0.84461  0.34299  1.0000
  C   C234      1.0  0.10243  0.87871  0.56366  1.0000
  S   S97       1.0  0.52883  0.90115  0.50247  1.0000
  C   C235      1.0  0.47875  0.97369  0.41481  1.0000
  C   C236      1.0  0.50675  0.93508  0.41266  1.0000
  C   C237      1.0  0.52189  0.91182  0.43960  1.0000
  C   C238      1.0  0.50901  0.92720  0.46862  1.0000
  C   C239      1.0  0.48080  0.96518  0.47064  1.0000
  C   C240      1.0  0.46562  0.98801  0.44379  1.0000
  H   H373      1.0  0.51711  0.92411  0.39029  1.0000
  H   H374      1.0  0.43758  0.19487  0.34266  1.0000
  H   H375      1.0  0.47026  0.97641  0.49284  1.0000
  C   C241      1.0  0.55858  0.77043  0.33931  1.0000
  H   H376      1.0  0.54496  0.15659  0.55204  1.0000
  H   H377      1.0  0.54376  0.88258  0.43790  1.0000
  H   H378      1.0  0.46668  0.18318  0.40496  1.0000
  H   H379      1.0  0.49689  0.11023  0.47619  1.0000
  C   C242      1.0  0.54704  0.14936  0.33130  1.0000
  C   C243      1.0  0.09823  0.94757  0.52009  1.0000
  H   H380      1.0  0.11253  0.79944  0.46695  1.0000
  C   C244      1.0  0.11775  0.91793  0.54244  1.0000
  C   C245      1.0  0.37465  0.07326  0.54528  1.0000
  H   H381      1.0  0.55125  0.81367  0.34892  1.0000
  H   H382      1.0  0.56382  0.72688  0.38369  1.0000
  H   H383      1.0  0.27250  0.84626  0.54230  1.0000
  C   C246      1.0  0.16933  0.72783  0.43148  1.0000
  C   C247      1.0  0.56475  0.18343  0.56215  1.0000
  H   H384      1.0  0.45099  0.11353  0.42047  1.0000
  H   H385      1.0  0.19435  0.90041  0.50301  1.0000
  S   S98       1.0  0.50674  0.05312  0.54074  1.0000
  H   H386      1.0  0.32509  0.71511  0.32815  1.0000
  H   H387      1.0  0.44311  0.01557  0.44543  1.0000
  H   H388      1.0  0.47539  0.82758  0.53043  1.0000
  H   H389      1.0  0.47451  0.75577  0.51161  1.0000
  H   H390      1.0  0.25218  0.80887  0.49175  1.0000
  H   H391      1.0  0.53224  0.73541  0.53242  1.0000
  C   C248      1.0  0.08540  0.81239  0.46671  1.0000
  H   H392      1.0  0.45789  0.71435  0.35856  1.0000
  C   C249      1.0  0.46997  0.14998  0.42402  1.0000
  C   C250      1.0  0.52451  0.75871  0.55401  1.0000
  N   N26       1.0  0.48788  0.75212  0.55973  1.0000
  C   C251      1.0  0.31104  0.01975  0.55388  1.0000
  H   H393      1.0  0.20788  0.94901  0.32272  1.0000
  H   H394      1.0  0.53179  0.80722  0.55173  1.0000
  H   H395      1.0  0.49539  0.12891  0.42121  1.0000
  H   H396      1.0  0.47149  0.15429  0.50240  1.0000
  H   H397      1.0  0.19129  0.76323  0.55245  1.0000
  Fe  Fe50      1.0  0.19093  0.70667  0.32399  1.0000
  C   C252      1.0  0.37135  0.02205  0.56408  1.0000
  C   C253      1.0  0.52946  0.20198  0.33940  1.0000
  H   H398      1.0  0.58308  0.08176  0.34604  1.0000
  C   C254      1.0  0.43146  0.20309  0.45774  1.0000
  S   S99       1.0  0.41346  0.92459  0.31753  1.0000
  S   S100      1.0  0.17765  0.03179  0.56470  1.0000
  H   H399      1.0  0.14768  0.14717  0.72243  1.0000
  C   C255      1.0  0.15352  0.16434  0.67373  1.0000
  S   S101      1.0  0.13692  0.14194  0.79476  1.0000
  C   C256      1.0  0.26750  0.92601  0.78349  1.0000
  C   C257      1.0  0.57730  0.16922  0.59151  1.0000
  Fe  Fe51      1.0  0.17910  0.09107  0.77211  1.0000
  C   C258      1.0  0.15659  0.12944  0.70068  1.0000
  H   H400      1.0  0.22249  0.75837  0.69295  1.0000
  H   H401      1.0  0.48332  0.17378  0.58527  1.0000
  N   N27       1.0  0.29475  0.97158  0.78156  1.0000
  C   C259      1.0  0.46209  0.20230  0.59370  1.0000
  H   H402      1.0  0.54576  0.82021  0.69793  1.0000
  C   C260      1.0  0.10179  0.96544  0.62998  1.0000
  H   H403      1.0  0.48559  0.83238  0.58764  1.0000
  H   H404      1.0  0.12010  0.97223  0.61084  1.0000
  S   S102      1.0  0.17416  0.02718  0.73270  1.0000
  H   H405      1.0  0.55602  0.77956  0.75006  1.0000
  H   H406      1.0  0.45822  0.16071  0.65196  1.0000
  C   C261      1.0  0.18025  0.08428  0.64458  1.0000
  C   C262      1.0  0.22695  0.71007  0.69440  1.0000
  C   C263      1.0  0.18236  0.04864  0.67126  1.0000
  C   C264      1.0  0.17062  0.07125  0.69931  1.0000
  C   C265      1.0  0.55359  0.93348  0.75019  1.0000
  H   H407      1.0  0.33441  0.90479  0.78212  1.0000
  H   H408      1.0  0.11761  0.85573  0.58091  1.0000
  H   H409      1.0  0.19388  0.00420  0.67030  1.0000
  H   H410      1.0  0.23907  0.71202  0.74279  1.0000
  H   H411      1.0  0.27710  0.00797  0.73822  1.0000
  Fe  Fe52      1.0  0.17717  0.13258  0.57003  1.0000
  S   S103      1.0  0.19678  0.72472  0.79376  1.0000
  C   C266      1.0  0.33966  0.99503  0.56815  1.0000
  C   C267      1.0  0.16515  0.14153  0.64559  1.0000
  H   H412      1.0  0.10410  0.07646  0.65500  1.0000
  C   C268      1.0  0.09022  0.07253  0.63273  1.0000
  H   H413      1.0  0.19061  0.06744  0.62338  1.0000
  H   H414      1.0  0.15288  0.71274  0.68222  1.0000
  H   H415      1.0  0.24336  0.85784  0.57313  1.0000
  H   H416      1.0  0.55817  0.97027  0.73311  1.0000
  H   H417      1.0  0.34635  0.97676  0.76633  1.0000
  H   H418      1.0  0.50166  0.16195  0.64027  1.0000
  H   H419      1.0  0.26051  0.04492  0.77167  1.0000
  S   S104      1.0  0.48086  0.04010  0.76740  1.0000
  S   S105      1.0  0.21255  0.17200  0.76687  1.0000
  H   H420      1.0  0.24422  0.94546  0.79390  1.0000
  H   H421      1.0  0.44622  0.19148  0.79320  1.0000
  H   H422      1.0  0.12192  0.72441  0.71177  1.0000
  H   H423      1.0  0.09101  0.91910  0.62754  1.0000
  H   H424      1.0  0.53977  0.73939  0.57322  1.0000
  S   S106      1.0  0.15803  0.18247  0.61148  1.0000
  H   H425      1.0  0.52691  0.93716  0.75781  1.0000
  H   H426      1.0  0.32012  0.92638  0.74428  1.0000
  C   C269      1.0  0.49053  0.01481  0.70654  1.0000
  H   H427      1.0  0.30323  0.05858  0.76049  1.0000
  C   C270      1.0  0.30286  0.99383  0.81285  1.0000
  H   H428      1.0  0.50803  0.05242  0.70669  1.0000
  C   C271      1.0  0.44645  0.91589  0.70622  1.0000
  C   C272      1.0  0.48609  0.98078  0.67960  1.0000
  C   C273      1.0  0.32522  0.94366  0.76794  1.0000
  Fe  Fe53      1.0  0.47474  0.94787  0.60541  1.0000
  H   H429      1.0  0.54722  0.89988  0.69084  1.0000
  C   C274      1.0  0.47317  0.99924  0.73345  1.0000
  H   H430      1.0  0.45145  0.78059  0.59371  1.0000
  S   S107      1.0  0.10246  0.71353  0.77788  1.0000
  H   H431      1.0  0.50075  0.99158  0.65937  1.0000
  C   C275      1.0  0.54083  0.86505  0.70852  1.0000
  H   H432      1.0  0.32673  0.74364  0.80113  1.0000
  H   H433      1.0  0.42926  0.87784  0.70608  1.0000
  H   H434      1.0  0.53941  0.74908  0.65854  1.0000
  H   H435      1.0  0.26050  0.90854  0.76026  1.0000
  S   S108      1.0  0.47013  0.04865  0.60844  1.0000
  H   H436      1.0  0.51328  0.86828  0.71310  1.0000
  S   S109      1.0  0.52890  0.94789  0.59059  1.0000
  C   C276      1.0  0.46360  0.93195  0.67919  1.0000
  H   H437      1.0  0.33728  0.95533  0.58266  1.0000
  S   S110      1.0  0.45758  0.89050  0.64508  1.0000
  Fe  Fe54      1.0  0.52290  0.04878  0.59009  1.0000
  H   H438      1.0  0.43979  0.17245  0.59739  1.0000
  S   S111      1.0  0.56203  0.10740  0.61257  1.0000
  H   H439      1.0  0.43803  0.93687  0.75421  1.0000
  H   H440      1.0  0.10850  0.08190  0.61383  1.0000
  H   H441      1.0  0.27522  0.88663  0.79797  1.0000
  H   H442      1.0  0.56958  0.94314  0.77067  1.0000
  C   C277      1.0  0.47990  0.19118  0.64686  1.0000
  H   H443      1.0  0.56642  0.82942  0.78106  1.0000
  N   N28       1.0  0.56078  0.87310  0.73706  1.0000
  C   C278      1.0  0.55136  0.82562  0.75952  1.0000
  H   H444      1.0  0.52419  0.82884  0.76590  1.0000
  C   C279      1.0  0.28346  0.02287  0.76206  1.0000
  C   C280      1.0  0.45136  0.94936  0.73341  1.0000
  H   H445      1.0  0.48649  0.16307  0.80594  1.0000
  H   H446      1.0  0.10950  0.72395  0.67171  1.0000
  H   H447      1.0  0.49272  0.76419  0.60887  1.0000
  H   H448      1.0  0.11638  0.96686  0.65200  1.0000
  S   S112      1.0  0.20853  0.70740  0.63371  1.0000
  C   C281      1.0  0.55593  0.72439  0.64326  1.0000
  H   H449      1.0  0.39311  0.00341  0.57579  1.0000
  Fe  Fe55      1.0  0.46196  0.99051  0.80887  1.0000
  C   C282      1.0  0.47899  0.78355  0.58868  1.0000
  H   H450      1.0  0.32308  0.02882  0.81229  1.0000
  C   C283      1.0  0.46004  0.17228  0.81336  1.0000
  H   H451      1.0  0.18271  0.83841  0.56558  1.0000
  Fe  Fe56      1.0  0.23312  0.14371  0.81269  1.0000
  S   S113      1.0  0.22892  0.11765  0.99711  1.0000
  C   C284      1.0  0.28552  0.77119  0.83021  1.0000
  C   C285      1.0  0.20379  0.10610  0.96454  1.0000
  S   S114      1.0  0.40727  0.99248  0.82164  1.0000
  C   C286      1.0  0.17009  0.08849  0.96793  1.0000
  Fe  Fe57      1.0  0.22011  0.04089  0.02998  1.0000
  S   S115      1.0  0.26037  0.96991  0.03196  1.0000
  H   H452      1.0  0.15280  0.84843  0.03337  1.0000
  Fe  Fe58      1.0  0.16411  0.11682  0.83840  1.0000
  H   H453      1.0  0.09807  0.95667  0.89650  1.0000
  C   C287      1.0  0.53962  0.04064  0.92025  1.0000
  C   C288      1.0  0.47775  0.18580  0.86621  1.0000
  C   C289      1.0  0.34173  0.81470  0.83222  1.0000
  H   H454      1.0  0.12109  0.86152  0.92054  1.0000
  Fe  Fe59      1.0  0.41528  0.89451  0.83348  1.0000
  C   C290      1.0  0.11432  0.76620  0.97704  1.0000
  Fe  Fe60      1.0  0.20707  0.72863  0.84446  1.0000
  C   C291      1.0  0.29793  0.85106  0.86667  1.0000
  H   H455      1.0  0.15983  0.08216  0.99075  1.0000
  N   N29       1.0  0.13425  0.89636  0.87574  1.0000
  H   H456      1.0  0.34912  0.88500  0.86598  1.0000
  H   H457      1.0  0.44103  0.75669  0.84083  1.0000
  H   H458      1.0  0.15017  0.81534  0.89931  1.0000
  H   H459      1.0  0.18639  0.90301  0.88965  1.0000
  S   S116      1.0  0.40790  0.08614  0.89869  1.0000
  C   C292      1.0  0.21717  0.11539  0.93510  1.0000
  H   H460      1.0  0.19738  0.74385  0.96053  1.0000
  S   S117      1.0  0.23275  0.80859  0.86597  1.0000
  C   C293      1.0  0.33145  0.85314  0.85604  1.0000
  Fe  Fe61      1.0  0.21753  0.90496  0.03776  1.0000
  H   H461      1.0  0.37821  0.13114  0.97605  1.0000
  H   H462      1.0  0.58175  0.94714  0.91139  1.0000
  H   H463      1.0  0.16955  0.96981  0.87160  1.0000
  S   S118      1.0  0.38261  0.81828  0.81701  1.0000
  C   C294      1.0  0.58254  0.07376  0.95603  1.0000
  N   N30       1.0  0.44307  0.71071  0.88457  1.0000
  S   S119      1.0  0.20304  0.05838  0.81589  1.0000
  S   S120      1.0  0.17681  0.97519  0.03144  1.0000
  C   C295      1.0  0.17524  0.76011  0.97255  1.0000
  C   C296      1.0  0.19680  0.10680  0.90901  1.0000
  H   H464      1.0  0.46672  0.14154  0.87294  1.0000
  C   C297      1.0  0.14222  0.87278  0.84470  1.0000
  N   N31       1.0  0.56705  0.02045  0.94107  1.0000
  C   C298      1.0  0.27492  0.81013  0.85367  1.0000
  H   H465      1.0  0.36999  0.18926  0.92734  1.0000
  H   H466      1.0  0.36001  0.15828  0.01129  1.0000
  H   H467      1.0  0.55434  0.94011  0.84361  1.0000
  H   H468      1.0  0.12315  0.06945  0.94429  1.0000
  H   H469      1.0  0.47187  0.19849  0.97640  1.0000
  H   H470      1.0  0.48126  0.72347  0.84997  1.0000
  H   H471      1.0  0.28980  0.88123  0.88485  1.0000
  H   H472      1.0  0.44835  0.12765  0.81875  1.0000
  S   S121      1.0  0.13640  0.08571  0.88022  1.0000
  S   S122      1.0  0.21917  0.81836  0.01083  1.0000
  C   C299      1.0  0.14951  0.08129  0.94184  1.0000
  C   C300      1.0  0.16282  0.09093  0.91243  1.0000
  H   H473      1.0  0.31178  0.95671  0.82810  1.0000
  H   H474      1.0  0.20750  0.11221  0.88632  1.0000
  H   H475      1.0  0.14777  0.91022  0.82823  1.0000
  C   C301      1.0  0.14300  0.74435  0.96193  1.0000
  C   C302      1.0  0.43381  0.09220  0.93138  1.0000
  H   H476      1.0  0.10619  0.81692  0.88875  1.0000
  H   H477      1.0  0.52646  0.00122  0.90972  1.0000
  H   H478      1.0  0.43464  0.18980  0.93068  1.0000
  C   C303      1.0  0.17879  0.79814  0.99813  1.0000
  C   C304      1.0  0.12760  0.84528  0.89699  1.0000
  C   C305      1.0  0.10402  0.93571  0.87383  1.0000
  H   H479      1.0  0.53487  0.00401  0.97999  1.0000
  C   C306      1.0  0.11780  0.80382  0.00275  1.0000
  H   H480      1.0  0.26796  0.73981  0.81987  1.0000
  H   H481      1.0  0.09249  0.94407  0.02985  1.0000
  C   C307      1.0  0.15008  0.81983  0.01331  1.0000
  H   H482      1.0  0.53991  0.94032  0.95451  1.0000
  H   H483      1.0  0.32200  0.76870  0.98164  1.0000
  C   C308      1.0  0.57808  0.80223  0.87155  1.0000
  H   H484      1.0  0.29452  0.77472  0.01456  1.0000
  S   S123      1.0  0.28923  0.14600  0.81822  1.0000
  C   C309      1.0  0.16331  0.93167  0.88739  1.0000
  S   S124      1.0  0.19650  0.19977  0.83973  1.0000
  H   H485      1.0  0.54952  0.06932  0.90117  1.0000
  H   H486      1.0  0.12077  0.84652  0.83497  1.0000
  H   H487      1.0  0.16472  0.84250  0.84529  1.0000
  H   H488      1.0  0.30368  0.16247  0.98610  1.0000
  H   H489      1.0  0.57346  0.96193  0.98036  1.0000
  H   H490      1.0  0.56364  0.09975  0.96972  1.0000
  H   H491      1.0  0.14037  0.71532  0.94198  1.0000
  H   H492      1.0  0.27709  0.77524  0.97644  1.0000
  H   H493      1.0  0.28041  0.01470  0.82403  1.0000
  H   H494      1.0  0.09257  0.99767  0.06098  1.0000
  C   C310      1.0  0.31883  0.77348  0.81953  1.0000
  H   H495      1.0  0.10499  0.02649  0.99323  1.0000
  H   H496      1.0  0.52041  0.06777  0.93282  1.0000
  Fe  Fe62      1.0  0.42682  0.00971  0.86950  1.0000
  C   C311      1.0  0.55317  0.97977  0.96499  1.0000
  S   S125      1.0  0.48119  0.01563  0.85571  1.0000
  S   S126      1.0  0.52314  0.86684  0.89099  1.0000
  H   H497      1.0  0.15799  0.95150  0.91046  1.0000
  H   H498      1.0  0.30980  0.17685  0.04729  1.0000
  Fe  Fe63      1.0  0.48583  0.17672  0.04890  1.0000
  H   H499      1.0  0.24338  0.12825  0.93246  1.0000
  S   S127      1.0  0.50384  0.10747  0.01467  1.0000
  C   C312      1.0  0.56856  0.89846  0.84605  1.0000
  C   C313      1.0  0.46402  0.15426  0.96849  1.0000
  C   C314      1.0  0.47583  0.10206  0.98339  1.0000
  C   C315      1.0  0.46656  0.04497  0.97224  1.0000
  C   C316      1.0  0.44586  0.04005  0.94607  1.0000
  H   H500      1.0  0.46805  0.79138  0.86904  1.0000
  H   H501      1.0  0.47508  0.00446  0.98400  1.0000
  H   H502      1.0  0.43868  0.99583  0.93768  1.0000
  H   H503      1.0  0.47827  0.74105  0.91914  1.0000
  C   C317      1.0  0.29718  0.75449  0.99116  1.0000
  C   C318      1.0  0.55894  0.85519  0.86794  1.0000
  C   C319      1.0  0.45905  0.74716  0.86001  1.0000
  H   H504      1.0  0.39513  0.19719  0.99462  1.0000
  C   C320      1.0  0.44298  0.14931  0.94253  1.0000
  H   H505      1.0  0.39521  0.75602  0.87950  1.0000
  C   C321      1.0  0.31645  0.17729  0.96447  1.0000
  Fe  Fe64      1.0  0.48234  0.91607  0.86497  1.0000
  S   S128      1.0  0.42929  0.91160  0.88284  1.0000
  H   H506      1.0  0.57095  0.76900  0.88871  1.0000
  C   C322      1.0  0.37128  0.17283  0.98901  1.0000
  C   C323      1.0  0.08848  0.05709  0.00691  1.0000
  C   C324      1.0  0.41416  0.74431  0.89766  1.0000
  H   H507      1.0  0.10777  0.97352  0.85714  1.0000
  H   H508      1.0  0.42249  0.78727  0.90862  1.0000
  H   H509      1.0  0.28650  0.07839  0.06260  1.0000
  H   H510      1.0  0.32178  0.13587  0.95069  1.0000
  H   H511      1.0  0.50477  0.17822  0.86031  1.0000
  H   H512      1.0  0.09572  0.82136  0.01422  1.0000
  H   H513      1.0  0.40104  0.71708  0.91568  1.0000
  H   H514      1.0  0.41033  0.17989  0.85439  1.0000
  H   H515      1.0  0.10477  0.08085  0.02400  1.0000
  H   H516      1.0  0.25931  0.18256  0.87556  1.0000
  H   H517      1.0  0.11383  0.18943  0.92418  1.0000
  S   S129      1.0  0.46873  0.89102  0.81652  1.0000
  S   S130      1.0  0.99331  0.69920  0.30321  1.0000
  Fe  Fe65      1.0  0.97063  0.20504  0.30533  1.0000
  S   S131      1.0  0.63467  0.43276  0.24901  1.0000
  S   S132      1.0  0.73290  0.39530  0.10727  1.0000
  H   H518      1.0  0.59497  0.34292  0.29991  1.0000
  H   H519      1.0  0.69227  0.50971  0.25807  1.0000
  H   H520      1.0  0.68181  0.27858  0.29493  1.0000
  H   H521      1.0  0.89121  0.30314  0.07871  1.0000
  H   H522      1.0  0.88235  0.43627  0.29805  1.0000
  H   H523      1.0  0.73362  0.55290  0.22184  1.0000
  H   H524      1.0  0.97233  0.42691  0.27574  1.0000
  N   N32       1.0  0.62801  0.26556  0.29774  1.0000
  C   C325      1.0  0.63832  0.62443  0.17244  1.0000
  H   H525      1.0  0.66104  0.61064  0.23102  1.0000
  C   C326      1.0  0.00588  0.66668  0.18461  1.0000
  C   C327      1.0  0.66465  0.46098  0.22314  1.0000
  C   C328      1.0  0.66263  0.44710  0.19172  1.0000
  C   C329      1.0  0.68620  0.47159  0.17108  1.0000
  C   C330      1.0  0.71175  0.50980  0.18198  1.0000
  C   C331      1.0  0.71389  0.52326  0.21338  1.0000
  C   C332      1.0  0.69047  0.49861  0.23394  1.0000
  H   H526      1.0  0.64280  0.41790  0.18330  1.0000
  H   H527      1.0  0.68412  0.46204  0.14670  1.0000
  S   S133      1.0  0.64974  0.57012  0.30504  1.0000
  N   N33       1.0  0.93358  0.41220  0.30954  1.0000
  C   C333      1.0  0.06351  0.38076  0.29125  1.0000
  Fe  Fe66      1.0  0.64819  0.47058  0.29531  1.0000
  S   S134      1.0  0.70858  0.52013  0.07003  1.0000
  H   H528      1.0  0.61681  0.59198  0.17308  1.0000
  C   C334      1.0  0.68801  0.23579  0.09053  1.0000
  H   H529      1.0  0.06972  0.22736  0.20827  1.0000
  H   H530      1.0  0.05746  0.31696  0.17536  1.0000
  C   C335      1.0  0.88141  0.48571  0.17648  1.0000
  S   S135      1.0  0.74029  0.54328  0.15657  1.0000
  S   S136      1.0  0.01641  0.63581  0.09315  1.0000
  Fe  Fe67      1.0  0.74036  0.49555  0.11128  1.0000
  C   C336      1.0  0.04937  0.42373  0.31112  1.0000
  C   C337      1.0  0.98255  0.20985  0.11128  1.0000
  C   C338      1.0  0.03531  0.48731  0.26733  1.0000
  C   C339      1.0  0.63694  0.63575  0.22779  1.0000
  S   S137      1.0  0.78969  0.49600  0.08636  1.0000
  C   C340      1.0  0.00875  0.67094  0.12869  1.0000
  H   H531      1.0  0.63796  0.64749  0.14958  1.0000
  C   C341      1.0  0.92941  0.34891  0.29949  1.0000
  C   C342      1.0  0.06405  0.39150  0.25947  1.0000
  C   C343      1.0  0.62877  0.20560  0.28268  1.0000
  S   S138      1.0  0.96500  0.59761  0.25379  1.0000
  S   S139      1.0  0.82066  0.32957  0.08550  1.0000
  Fe  Fe68      1.0  0.96856  0.69881  0.25667  1.0000
  Fe  Fe69      1.0  0.94405  0.20402  0.23928  1.0000
  C   C344      1.0  0.84248  0.41728  0.15148  1.0000
  S   S140      1.0  0.87230  0.54775  0.26098  1.0000
  H   H532      1.0  0.85705  0.64265  0.30425  1.0000
  C   C345      1.0  0.59671  0.29780  0.28869  1.0000
  H   H533      1.0  0.95420  0.32844  0.29315  1.0000
  H   H534      1.0  0.61603  0.60200  0.22915  1.0000
  N   N34       1.0  0.63643  0.66850  0.19800  1.0000
  H   H535      1.0  0.88720  0.51286  0.19749  1.0000
  H   H536      1.0  0.95453  0.49423  0.29168  1.0000
  H   H537      1.0  0.07401  0.33935  0.30055  1.0000
  C   C346      1.0  0.94536  0.27899  0.13865  1.0000
  C   C347      1.0  0.83497  0.56681  0.28041  1.0000
  H   H538      1.0  0.85629  0.43640  0.22825  1.0000
  N   N35       1.0  0.84915  0.45266  0.17978  1.0000
  H   H539      1.0  0.81780  0.39324  0.15272  1.0000
  H   H540      1.0  0.63412  0.66725  0.24761  1.0000
  H   H541      1.0  0.02558  0.52925  0.25804  1.0000
  H   H542      1.0  0.62955  0.45987  0.07280  1.0000
  C   C348      1.0  0.80559  0.53256  0.27589  1.0000
  H   H543      1.0  0.90296  0.45406  0.17279  1.0000
  H   H544      1.0  0.69650  0.28298  0.09472  1.0000
  Fe  Fe70      1.0  0.91438  0.60966  0.27585  1.0000
  C   C349      1.0  0.96293  0.26269  0.11165  1.0000
  H   H545      1.0  0.93082  0.45129  0.26402  1.0000
  H   H546      1.0  0.88057  0.51780  0.15665  1.0000
  H   H547      1.0  0.84164  0.44682  0.13069  1.0000
  H   H548      1.0  0.93020  0.31979  0.13898  1.0000
  H   H549      1.0  0.96145  0.29109  0.09132  1.0000
  C   C350      1.0  0.85140  0.41109  0.20650  1.0000
  H   H550      1.0  0.00949  0.64187  0.20587  1.0000
  Fe  Fe71      1.0  0.77942  0.39789  0.07840  1.0000
  H   H551      1.0  0.65820  0.30746  0.26244  1.0000
  H   H552      1.0  0.68272  0.21459  0.11335  1.0000
  C   C351      1.0  0.05758  0.28638  0.15495  1.0000
  H   H553      1.0  0.79667  0.47336  0.18797  1.0000
  H   H554      1.0  0.05034  0.45314  0.22288  1.0000
  S   S141      1.0  0.92696  0.26361  0.19961  1.0000
  H   H555      1.0  0.03111  0.27110  0.15128  1.0000
  C   C352      1.0  0.04948  0.44431  0.24745  1.0000
  C   C353      1.0  0.82139  0.49651  0.18470  1.0000
  H   H556      1.0  0.82750  0.38535  0.20962  1.0000
  H   H557      1.0  0.91263  0.34556  0.27891  1.0000
  H   H558      1.0  0.02084  0.59181  0.15575  1.0000
  H   H559      1.0  0.81835  0.52777  0.16467  1.0000
  C   C354      1.0  0.03534  0.47708  0.29918  1.0000
  H   H560      1.0  0.86238  0.38242  0.14751  1.0000
  H   H561      1.0  0.87224  0.37752  0.20361  1.0000
  H   H562      1.0  0.75304  0.52178  0.28769  1.0000
  H   H563      1.0  0.82598  0.52504  0.20547  1.0000
  C   C355      1.0  0.94803  0.24317  0.16539  1.0000
  H   H564      1.0  0.80581  0.49438  0.26033  1.0000
  C   C356      1.0  0.65774  0.30100  0.28793  1.0000
  Fe  Fe72      1.0  0.98466  0.59912  0.30242  1.0000
  C   C357      1.0  0.94838  0.44767  0.28405  1.0000
  H   H565      1.0  0.06496  0.31390  0.13455  1.0000
  C   C358      1.0  0.83447  0.61613  0.30055  1.0000
  H   H566      1.0  0.59567  0.30596  0.26334  1.0000
  H   H567      1.0  0.66201  0.59739  0.17363  1.0000
  C   C359      1.0  0.01267  0.63858  0.15627  1.0000
  H   H568      1.0  0.65756  0.34679  0.29847  1.0000
  C   C360      1.0  0.77573  0.54783  0.29150  1.0000
  H   H569      1.0  0.66372  0.23885  0.07755  1.0000
  S   S142      1.0  0.99592  0.21620  0.25930  1.0000
  H   H570      1.0  0.62648  0.20979  0.25716  1.0000
  H   H571      1.0  0.69001  0.68461  0.19753  1.0000
  N   N36       1.0  0.08069  0.23446  0.15972  1.0000
  H   H572      1.0  0.75567  0.24423  0.09562  1.0000
  C   C361      1.0  0.77526  0.59737  0.31159  1.0000
  H   H573      1.0  0.86103  0.20394  0.08237  1.0000
  C   C362      1.0  0.61147  0.42621  0.06532  1.0000
  Fe  Fe73      1.0  0.66793  0.43554  0.35941  1.0000
  S   S143      1.0  0.67677  0.35479  0.38937  1.0000
  S   S144      1.0  0.67105  0.53133  0.37587  1.0000
  H   H574      1.0  0.77279  0.26489  0.37569  1.0000
  C   C363      1.0  0.91593  0.20946  0.43034  1.0000
  N   N37       1.0  0.59786  0.42621  0.45513  1.0000
  H   H575      1.0  0.68588  0.30488  0.44964  1.0000
  S   S145      1.0  0.61738  0.44752  0.33693  1.0000
  H   H576      1.0  0.94253  0.56868  0.52197  1.0000
  H   H577      1.0  0.08243  0.28584  0.43604  1.0000
  N   N38       1.0  0.96436  0.48969  0.54317  1.0000
  H   H578      1.0  0.65223  0.23390  0.33939  1.0000
  Fe  Fe74      1.0  0.69716  0.54876  0.33097  1.0000
  H   H579      1.0  0.97560  0.66689  0.36992  1.0000
  C   C364      1.0  0.05041  0.35937  0.53200  1.0000
  H   H580      1.0  0.65005  0.45321  0.45814  1.0000
  C   C365      1.0  0.80462  0.63157  0.31597  1.0000
  S   S146      1.0  0.03272  0.30514  0.50731  1.0000
  H   H581      1.0  0.95995  0.46141  0.34503  1.0000
  C   C366      1.0  0.78396  0.28871  0.39593  1.0000
  C   C367      1.0  0.03232  0.20624  0.44232  1.0000
  H   H582      1.0  0.60690  0.23149  0.33999  1.0000
  C   C368      1.0  0.70307  0.37639  0.41979  1.0000
  C   C369      1.0  0.70211  0.34405  0.44745  1.0000
  C   C370      1.0  0.72440  0.42656  0.41689  1.0000
  H   H583      1.0  0.04940  0.41569  0.33576  1.0000
  H   H584      1.0  0.01760  0.48805  0.55235  1.0000
  C   C371      1.0  0.60311  0.26896  0.55919  1.0000
  H   H585      1.0  0.94650  0.38657  0.35609  1.0000
  H   H586      1.0  0.65161  0.68194  0.34451  1.0000
  S   S147      1.0  0.68250  0.46016  0.54708  1.0000
  C   C372      1.0  0.72117  0.36365  0.47275  1.0000
  H   H587      1.0  0.71984  0.33896  0.49411  1.0000
  Fe  Fe75      1.0  0.62349  0.54541  0.34899  1.0000
  H   H588      1.0  0.90238  0.48589  0.32493  1.0000
  Fe  Fe76      1.0  0.73363  0.41750  0.54443  1.0000
  H   H589      1.0  0.72596  0.45069  0.39520  1.0000
  S   S148      1.0  0.61963  0.33067  0.53889  1.0000
  H   H590      1.0  0.81672  0.24755  0.46559  1.0000
  C   C373      1.0  0.60196  0.40101  0.42382  1.0000
  C   C374      1.0  0.74188  0.41467  0.47025  1.0000
  C   C375      1.0  0.73608  0.61193  0.51496  1.0000
  H   H591      1.0  0.98185  0.39604  0.33090  1.0000
  C   C376      1.0  0.97160  0.67913  0.44798  1.0000
  C   C377      1.0  0.74410  0.44534  0.44206  1.0000
  Fe  Fe77      1.0  0.91991  0.20990  0.50601  1.0000
  H   H592      1.0  0.00303  0.55542  0.53356  1.0000
  S   S149      1.0  0.73836  0.61796  0.33134  1.0000
  S   S150      1.0  0.71610  0.32402  0.55671  1.0000
  H   H593      1.0  0.62864  0.44644  0.49472  1.0000
  S   S151      1.0  0.92235  0.69604  0.54240  1.0000
  H   H594      1.0  0.94517  0.27606  0.45493  1.0000
  C   C378      1.0  0.07156  0.40416  0.51984  1.0000
  H   H595      1.0  0.62840  0.30237  0.34368  1.0000
  S   S152      1.0  0.93703  0.30074  0.52299  1.0000
  Fe  Fe78      1.0  0.98793  0.25715  0.52765  1.0000
  Fe  Fe79      1.0  0.97442  0.69945  0.52297  1.0000
  C   C379      1.0  0.63086  0.42676  0.47119  1.0000
  H   H596      1.0  0.04347  0.26986  0.39065  1.0000
  C   C380      1.0  0.96045  0.27008  0.40737  1.0000
  H   H597      1.0  0.91855  0.32054  0.31826  1.0000
  H   H598      1.0  0.76033  0.48452  0.43991  1.0000
  S   S153      1.0  0.69864  0.45104  0.31702  1.0000
  C   C381      1.0  0.93701  0.53501  0.54048  1.0000
  S   S154      1.0  0.98080  0.26164  0.34737  1.0000
  S   S155      1.0  0.76388  0.44124  0.50262  1.0000
  C   C382      1.0  0.99628  0.52057  0.55113  1.0000
  H   H599      1.0  0.83118  0.30558  0.44000  1.0000
  H   H600      1.0  0.97940  0.30510  0.40952  1.0000
  H   H601      1.0  0.05511  0.68681  0.43074  1.0000
  N   N39       1.0  0.79426  0.24546  0.42030  1.0000
  C   C383      1.0  0.96813  0.68420  0.39216  1.0000
  H   H602      1.0  0.07439  0.21973  0.37425  1.0000
  H   H603      1.0  0.99765  0.61839  0.41729  1.0000
  C   C384      1.0  0.95637  0.41423  0.33661  1.0000
  H   H604      1.0  0.72272  0.63027  0.49434  1.0000
  H   H605      1.0  0.80438  0.66988  0.33150  1.0000
  H   H606      1.0  0.61979  0.42874  0.40992  1.0000
  H   H607      1.0  0.91240  0.51337  0.53483  1.0000
  H   H608      1.0  0.78981  0.31114  0.45675  1.0000
  C   C385      1.0  0.94103  0.25368  0.43309  1.0000
  H   H609      1.0  0.76459  0.32099  0.40448  1.0000
  S   S156      1.0  0.93366  0.60436  0.32434  1.0000
  H   H610      1.0  0.72905  0.56327  0.51727  1.0000
  S   S157      1.0  0.98903  0.64642  0.48128  1.0000
  C   C386      1.0  0.69087  0.64275  0.54900  1.0000
  H   H611      1.0  0.94453  0.43545  0.50620  1.0000
  H   H612      1.0  0.68265  0.59512  0.55250  1.0000
  H   H613      1.0  0.07645  0.40563  0.49529  1.0000
  H   H614      1.0  0.67592  0.66219  0.52960  1.0000
  C   C387      1.0  0.98072  0.65678  0.41903  1.0000
  H   H615      1.0  0.64095  0.38004  0.47422  1.0000
  H   H616      1.0  0.76371  0.61327  0.51019  1.0000
  H   H617      1.0  0.97560  0.49027  0.49467  1.0000
  C   C388      1.0  0.80854  0.27894  0.44682  1.0000
  H   H618      1.0  0.88869  0.41237  0.33737  1.0000
  H   H619      1.0  0.74450  0.24053  0.43984  1.0000
  H   H620      1.0  0.61221  0.35402  0.42461  1.0000
  N   N40       1.0  0.72760  0.64641  0.54312  1.0000
  C   C389      1.0  0.95552  0.24124  0.37899  1.0000
  C   C390      1.0  0.96837  0.45807  0.51337  1.0000
  H   H621      1.0  0.84287  0.22868  0.40005  1.0000
  H   H622      1.0  0.80578  0.31574  0.38754  1.0000
  H   H623      1.0  0.02407  0.25428  0.44446  1.0000
  H   H624      1.0  0.69538  0.69793  0.38402  1.0000
  C   C391      1.0  0.62891  0.25790  0.33164  1.0000
  C   C392      1.0  0.04360  0.35846  0.56363  1.0000
  H   H625      1.0  0.98842  0.42269  0.51470  1.0000
  S   S158      1.0  0.01942  0.53141  0.32457  1.0000
  H   H626      1.0  0.60218  0.51854  0.43962  1.0000
  H   H627      1.0  0.05971  0.70046  0.47129  1.0000
  Fe  Fe80      1.0  0.66556  0.36849  0.56260  1.0000
  C   C393      1.0  0.05249  0.22208  0.39035  1.0000
  C   C394      1.0  0.76450  0.21038  0.43043  1.0000
  C   C395      1.0  0.90028  0.43767  0.31788  1.0000
  H   H628      1.0  0.93181  0.42141  0.56259  1.0000
  H   H629      1.0  0.93367  0.56034  0.56245  1.0000
  C   C396      1.0  0.82007  0.20370  0.40793  1.0000
  Fe  Fe81      1.0  0.72567  0.35327  0.60536  1.0000
  H   H630      1.0  0.04322  0.34175  0.78399  1.0000
  S   S159      1.0  0.69475  0.52353  0.76405  1.0000
  Fe  Fe82      1.0  0.69505  0.47617  0.59674  1.0000
  S   S160      1.0  0.67308  0.38831  0.61301  1.0000
  S   S161      1.0  0.68573  0.56451  0.62049  1.0000
  H   H631      1.0  0.68263  0.63282  0.72796  1.0000
  H   H632      1.0  0.70687  0.46242  0.65703  1.0000
  H   H633      1.0  0.97596  0.41050  0.57032  1.0000
  H   H634      1.0  0.00625  0.21725  0.73766  1.0000
  C   C397      1.0  0.60221  0.20558  0.60485  1.0000
  C   C398      1.0  0.74618  0.62041  0.56967  1.0000
  H   H635      1.0  0.67895  0.64836  0.67118  1.0000
  C   C399      1.0  0.69615  0.53849  0.72438  1.0000
  C   C400      1.0  0.70318  0.49073  0.70425  1.0000
  C   C401      1.0  0.70157  0.49970  0.67231  1.0000
  C   C402      1.0  0.69231  0.55617  0.66032  1.0000
  C   C403      1.0  0.68609  0.60452  0.68040  1.0000
  C   C404      1.0  0.68824  0.59579  0.71250  1.0000
  S   S162      1.0  0.71621  0.69691  0.78420  1.0000
  H   H636      1.0  0.63104  0.48671  0.70841  1.0000
  H   H637      1.0  0.61796  0.56438  0.70674  1.0000
  Fe  Fe83      1.0  0.69495  0.60521  0.79477  1.0000
  H   H638      1.0  0.70926  0.44634  0.71337  1.0000
  H   H639      1.0  0.63163  0.48516  0.65089  1.0000
  H   H640      1.0  0.00332  0.32675  0.72436  1.0000
  N   N41       1.0  0.04602  0.28180  0.74512  1.0000
  H   H641      1.0  0.84944  0.32348  0.57042  1.0000
  H   H642      1.0  0.07992  0.64305  0.72320  1.0000
  H   H643      1.0  0.61388  0.63738  0.58667  1.0000
  S   S163      1.0  0.74813  0.44277  0.59264  1.0000
  H   H644      1.0  0.78840  0.31765  0.58287  1.0000
  H   H645      1.0  0.06726  0.64430  0.68322  1.0000
  Fe  Fe84      1.0  0.99565  0.50256  0.76362  1.0000
  S   S164      1.0  0.97349  0.41868  0.78439  1.0000
  H   H646      1.0  0.99644  0.60752  0.62172  1.0000
  H   H647      1.0  0.05339  0.40027  0.60770  1.0000
  H   H648      1.0  0.03918  0.31804  0.69936  1.0000
  S   S165      1.0  0.87591  0.46444  0.79211  1.0000
  H   H649      1.0  0.00707  0.29372  0.77907  1.0000
  H   H650      1.0  0.77396  0.62653  0.56736  1.0000
  C   C405      1.0  0.82180  0.54181  0.69166  1.0000
  C   C406      1.0  0.99514  0.53093  0.68979  1.0000
  C   C407      1.0  0.61534  0.25499  0.58861  1.0000
  H   H651      1.0  0.95285  0.46806  0.59047  1.0000
  H   H652      1.0  0.84064  0.42427  0.64403  1.0000
  H   H653      1.0  0.03505  0.55791  0.65896  1.0000
  H   H654      1.0  0.82241  0.49616  0.63415  1.0000
  H   H655      1.0  0.81291  0.28035  0.67772  1.0000
  H   H656      1.0  0.81149  0.54706  0.71542  1.0000
  C   C408      1.0  0.03432  0.22049  0.73668  1.0000
  H   H657      1.0  0.83675  0.44802  0.72904  1.0000
  H   H658      1.0  0.80739  0.50541  0.78131  1.0000
  N   N42       1.0  0.82434  0.47729  0.68288  1.0000
  C   C409      1.0  0.84661  0.44518  0.70501  1.0000
  H   H659      1.0  0.87252  0.46477  0.70526  1.0000
  C   C410      1.0  0.95136  0.58494  0.64693  1.0000
  H   H660      1.0  0.59897  0.40834  0.68033  1.0000
  H   H661      1.0  0.86432  0.49245  0.65012  1.0000
  S   S166      1.0  0.02260  0.50392  0.71833  1.0000
  C   C411      1.0  0.82081  0.28958  0.65430  1.0000
  C   C412      1.0  0.93835  0.55575  0.67296  1.0000
  C   C413      1.0  0.96024  0.52898  0.69446  1.0000
  H   H662      1.0  0.00749  0.64321  0.73460  1.0000
  H   H663      1.0  0.99995  0.68581  0.76922  1.0000
  H   H664      1.0  0.91139  0.55482  0.67680  1.0000
  H   H665      1.0  0.95007  0.50648  0.71454  1.0000
  H   H666      1.0  0.84905  0.39631  0.69908  1.0000
  C   C414      1.0  0.86566  0.30657  0.61714  1.0000
  S   S167      1.0  0.00024  0.67958  0.56780  1.0000
  C   C415      1.0  0.80433  0.59477  0.80124  1.0000
  C   C416      1.0  0.80696  0.31059  0.60087  1.0000
  H   H667      1.0  0.84696  0.56428  0.69117  1.0000
  H   H668      1.0  0.93878  0.69179  0.75538  1.0000
  H   H669      1.0  0.94703  0.64950  0.72074  1.0000
  C   C417      1.0  0.98623  0.58556  0.64185  1.0000
  H   H670      1.0  0.63476  0.28249  0.59895  1.0000
  H   H671      1.0  0.77836  0.60142  0.79439  1.0000
  C   C418      1.0  0.79030  0.44979  0.68339  1.0000
  C   C419      1.0  0.03143  0.32693  0.72359  1.0000
  C   C420      1.0  0.79661  0.29861  0.63115  1.0000
  C   C421      1.0  0.83855  0.47240  0.65145  1.0000
  H   H672      1.0  0.77860  0.45322  0.70666  1.0000
  C   C422      1.0  0.60875  0.51440  0.65113  1.0000
  S   S168      1.0  0.92354  0.62122  0.62151  1.0000
  C   C423      1.0  0.82093  0.54067  0.79341  1.0000
  S   S169      1.0  0.90864  0.31796  0.60953  1.0000
  H   H673      1.0  0.59363  0.51038  0.72835  1.0000
  C   C424      1.0  0.00560  0.68996  0.74409  1.0000
  S   S170      1.0  0.95149  0.56203  0.77442  1.0000
  Fe  Fe85      1.0  0.93132  0.48052  0.79893  1.0000
  C   C425      1.0  0.00811  0.55779  0.66308  1.0000
  H   H674      1.0  0.80480  0.56728  0.67568  1.0000
  H   H675      1.0  0.61737  0.56235  0.64965  1.0000
  H   H676      1.0  0.79114  0.40096  0.67709  1.0000
  C   C426      1.0  0.05845  0.40150  0.58317  1.0000
  C   C427      1.0  0.85528  0.29470  0.64741  1.0000
  C   C428      1.0  0.85496  0.53244  0.80123  1.0000
  S   S171      1.0  0.75355  0.29848  0.64063  1.0000
  H   H677      1.0  0.99466  0.54329  0.57395  1.0000
  S   S172      1.0  0.02430  0.52992  0.80568  1.0000
  N   N43       1.0  0.58820  0.50378  0.67904  1.0000
  H   H678      1.0  0.77300  0.47252  0.66668  1.0000
  H   H679      1.0  0.87395  0.28941  0.66552  1.0000
  C   C429      1.0  0.84151  0.31365  0.59377  1.0000
  Fe  Fe86      1.0  0.94827  0.68480  0.58800  1.0000
  H   H680      1.0  0.03979  0.37371  0.72945  1.0000
  H   H681      1.0  0.69133  0.40267  0.79411  1.0000
  H   H682      1.0  0.59425  0.50491  0.62962  1.0000
  H   H683      1.0  0.02733  0.32413  0.57320  1.0000
  C   C430      1.0  0.59763  0.66162  0.60247  1.0000
  C   C431      1.0  0.60855  0.51688  0.70687  1.0000
  C   C432      1.0  0.95589  0.44550  0.56766  1.0000
  H   H684      1.0  0.04553  0.26259  0.79379  1.0000
  H   H685      1.0  0.71223  0.33526  0.80777  1.0000
  H   H686      1.0  0.68264  0.22891  0.63237  1.0000
  H   H687      1.0  0.08039  0.57465  0.70109  1.0000
  H   H688      1.0  0.68388  0.66773  0.57041  1.0000
  H   H689      1.0  0.73842  0.64202  0.59172  1.0000
  H   H690      1.0  0.98956  0.68609  0.68353  1.0000
  Fe  Fe87      1.0  0.92811  0.26212  0.57020  1.0000
  C   C433      1.0  0.03504  0.29573  0.77687  1.0000
  C   C434      1.0  0.07997  0.44578  0.57108  1.0000
  H   H691      1.0  0.74102  0.57123  0.57225  1.0000
  H   H692      1.0  0.73881  0.46577  0.81056  1.0000
  H   H693      1.0  0.04241  0.20794  0.71299  1.0000
  C   C435      1.0  0.94640  0.69587  0.73073  1.0000
  S   S173      1.0  0.98064  0.22487  0.57628  1.0000
  C   C436      1.0  0.08330  0.28410  0.74351  1.0000
  C   C437      1.0  0.69542  0.37334  0.81473  1.0000
  Fe  Fe88      1.0  0.68297  0.63401  0.86211  1.0000
  S   S174      1.0  0.66322  0.59134  0.90531  1.0000
  S   S175      1.0  0.75171  0.41397  0.03421  1.0000
  C   C438      1.0  0.75311  0.60335  0.94952  1.0000
  C   C439      1.0  0.00633  0.21848  0.85594  1.0000
  H   H694      1.0  0.70883  0.52808  0.00464  1.0000
  Fe  Fe89      1.0  0.99927  0.45026  0.82778  1.0000
  H   H695      1.0  0.66413  0.53782  0.96548  1.0000
  C   C440      1.0  0.72782  0.60754  0.92682  1.0000
  H   H696      1.0  0.72762  0.39173  0.88692  1.0000
  C   C441      1.0  0.03220  0.54415  0.89281  1.0000
  H   H697      1.0  0.73911  0.20529  0.02945  1.0000
  H   H698      1.0  0.95194  0.28009  0.89945  1.0000
  H   H699      1.0  0.02948  0.63274  0.93533  1.0000
  C   C442      1.0  0.08113  0.31275  0.84478  1.0000
  H   H700      1.0  0.91556  0.23979  0.91279  1.0000
  C   C443      1.0  0.69561  0.58405  0.93259  1.0000
  C   C444      1.0  0.68891  0.55565  0.96074  1.0000
  C   C445      1.0  0.71425  0.55053  0.98310  1.0000
  H   H701      1.0  0.01603  0.58260  0.88510  1.0000
  Fe  Fe90      1.0  0.70546  0.41924  0.06348  1.0000
  S   S176      1.0  0.67044  0.22030  0.82308  1.0000
  C   C446      1.0  0.59917  0.32999  0.04111  1.0000
  N   N44       1.0  0.71009  0.40799  0.84062  1.0000
  C   C447      1.0  0.84660  0.32732  0.05286  1.0000
  S   S177      1.0  0.62028  0.33228  0.87103  1.0000
  H   H702      1.0  0.73315  0.62973  0.90513  1.0000
  H   H703      1.0  0.69660  0.23437  0.02904  1.0000
  H   H704      1.0  0.60487  0.54195  0.98302  1.0000
  H   H705      1.0  0.06580  0.60930  0.95690  1.0000
  H   H706      1.0  0.86380  0.23517  0.87967  1.0000
  Fe  Fe91      1.0  0.74427  0.68557  0.82869  1.0000
  H   H707      1.0  0.02969  0.56017  0.95431  1.0000
  H   H708      1.0  0.60768  0.28914  0.02974  1.0000
  H   H709      1.0  0.06808  0.27907  0.85824  1.0000
  H   H710      1.0  0.88129  0.45923  0.97290  1.0000
  S   S178      1.0  0.72611  0.59155  0.83736  1.0000
  H   H711      1.0  0.87977  0.33037  0.90644  1.0000
  H   H712      1.0  0.84830  0.60989  0.99739  1.0000
  H   H713      1.0  0.73364  0.32939  0.86082  1.0000
  H   H714      1.0  0.06527  0.65017  0.88957  1.0000
  S   S179      1.0  0.64983  0.64043  0.82027  1.0000
  H   H715      1.0  0.93949  0.21106  0.88073  1.0000
  H   H716      1.0  0.92029  0.54116  0.03920  1.0000
  C   C448      1.0  0.59267  0.49832  0.98932  1.0000
  S   S180      1.0  0.07880  0.41414  0.99436  1.0000
  H   H717      1.0  0.68041  0.48715  0.83027  1.0000
  S   S181      1.0  0.00353  0.67585  0.00644  1.0000
  C   C449      1.0  0.85772  0.50243  0.02654  1.0000
  H   H718      1.0  0.04234  0.52181  0.87180  1.0000
  C   C450      1.0  0.08061  0.61002  0.89659  1.0000
  C   C451      1.0  0.74619  0.57504  0.97772  1.0000
  H   H719      1.0  0.69635  0.48367  0.86928  1.0000
  Fe  Fe92      1.0  0.03951  0.34174  0.99723  1.0000
  N   N45       1.0  0.05986  0.56487  0.91315  1.0000
  H   H720      1.0  0.92239  0.62114  0.86510  1.0000
  H   H721      1.0  0.87775  0.59564  0.96697  1.0000
  S   S182      1.0  0.99395  0.34174  0.02779  1.0000
  N   N46       1.0  0.88095  0.53327  0.00501  1.0000
  H   H722      1.0  0.91297  0.33412  0.82645  1.0000
  S   S183      1.0  0.01195  0.31678  0.95406  1.0000
  C   C452      1.0  0.92833  0.30683  0.84301  1.0000
  S   S184      1.0  0.76672  0.21779  0.83748  1.0000
  H   H723      1.0  0.76097  0.39966  0.82388  1.0000
  H   H724      1.0  0.75412  0.46229  0.84956  1.0000
  H   H725      1.0  0.88845  0.20884  0.84767  1.0000
  C   C453      1.0  0.88902  0.32913  0.00122  1.0000
  S   S185      1.0  0.95458  0.50250  0.84487  1.0000
  C   C454      1.0  0.96645  0.67395  0.87607  1.0000
  C   C455      1.0  0.87952  0.25029  0.85983  1.0000
  H   H726      1.0  0.80691  0.34845  0.02059  1.0000
  S   S186      1.0  0.66539  0.35852  0.04419  1.0000
  S   S187      1.0  0.77676  0.57260  0.00688  1.0000
  C   C456      1.0  0.83347  0.34048  0.02361  1.0000
  C   C457      1.0  0.61234  0.44781  0.94328  1.0000
  H   H727      1.0  0.87926  0.37085  0.87027  1.0000
  H   H728      1.0  0.87142  0.47047  0.04207  1.0000
  C   C458      1.0  0.06813  0.37151  0.84257  1.0000
  H   H729      1.0  0.07670  0.46089  0.82439  1.0000
  H   H730      1.0  0.92820  0.30196  0.03295  1.0000
  H   H731      1.0  0.99890  0.26243  0.84727  1.0000
  H   H732      1.0  0.91434  0.45670  0.00131  1.0000
  C   C459      1.0  0.90193  0.31345  0.03026  1.0000
  H   H733      1.0  0.01573  0.51051  0.90460  1.0000
  Fe  Fe93      1.0  0.96747  0.30719  0.98528  1.0000
  H   H734      1.0  0.69229  0.34650  0.87530  1.0000
  Fe  Fe94      1.0  0.64613  0.24181  0.86832  1.0000
  S   S188      1.0  0.05472  0.24655  0.00881  1.0000
  C   C460      1.0  0.82139  0.64007  0.81769  1.0000
  C   C461      1.0  0.93761  0.68678  0.93471  1.0000
  C   C462      1.0  0.71625  0.36710  0.86708  1.0000
  C   C463      1.0  0.85467  0.34199  0.99784  1.0000
  H   H735      1.0  0.06553  0.61002  0.03770  1.0000
  H   H736      1.0  0.89293  0.60610  0.03608  1.0000
  C   C464      1.0  0.08105  0.51237  0.92196  1.0000
  H   H737      1.0  0.86261  0.27534  0.84362  1.0000
  C   C465      1.0  0.89913  0.48771  0.98644  1.0000
  H   H738      1.0  0.06609  0.47728  0.93434  1.0000
  H   H739      1.0  0.84144  0.54785  0.97153  1.0000
  S   S189      1.0  0.91599  0.33537  0.96949  1.0000
  H   H740      1.0  0.91675  0.50946  0.96980  1.0000
  C   C466      1.0  0.89525  0.34274  0.88595  1.0000
  H   H741      1.0  0.66169  0.43690  0.85770  1.0000
  S   S190      1.0  0.02888  0.38870  0.85914  1.0000
  H   H742      1.0  0.77788  0.62225  0.94528  1.0000
  S   S191      1.0  0.98336  0.67170  0.83887  1.0000
  H   H743      1.0  0.06978  0.36687  0.05587  1.0000
  H   H744      1.0  0.72978  0.27769  0.04638  1.0000
  Fe  Fe95      1.0  0.00632  0.24348  0.03546  1.0000
  S   S192      1.0  0.69186  0.21840  0.89663  1.0000
  C   C467      1.0  0.86129  0.57334  0.98429  1.0000
  C   C468      1.0  0.88085  0.31328  0.05613  1.0000
  C   C469      1.0  0.92971  0.25318  0.89167  1.0000
  H   H745      1.0  0.93822  0.26674  0.83031  1.0000
  Fe  Fe96      1.0  0.00374  0.70242  0.05598  1.0000
  C   C470      1.0  0.90564  0.56965  0.02268  1.0000
  H   H746      1.0  0.84441  0.35296  0.97533  1.0000
  H   H747      1.0  0.01951  0.25214  0.90075  1.0000
  H   H748      1.0  0.92410  0.59220  0.00712  1.0000
  C   C471      1.0  0.92093  0.65307  0.91199  1.0000
  H   H749      1.0  0.69339  0.69670  0.96921  1.0000
  H   H750      1.0  0.89644  0.63354  0.91665  1.0000
  C   C472      1.0  0.93561  0.64601  0.88277  1.0000
  Fe  Fe97      1.0  0.75777  0.51213  0.04456  1.0000
  C   C473      1.0  0.04553  0.59283  0.94118  1.0000
  C   C474      1.0  0.85565  0.63245  0.82469  1.0000
  H   H751      1.0  0.62507  0.48875  0.93390  1.0000
  Fe  Fe98      1.0  0.02336  0.22119  0.96787  1.0000
  H   H752      1.0  0.95047  0.33485  0.84998  1.0000
  N   N47       1.0  0.90819  0.28824  0.87011  1.0000
  H   H753      1.0  0.63115  0.42210  0.95732  1.0000
  C   C475      1.0  0.74244  0.43513  0.83075  1.0000
  C   C476      1.0  0.68619  0.45614  0.84988  1.0000
  H   H754      1.0  0.91633  0.37169  0.89443  1.0000
  H   H755      1.0  0.83820  0.47587  0.01389  1.0000
  H   H756      1.0  0.86908  0.66720  0.83723  1.0000
  H   H757      1.0  0.67043  0.35398  0.82106  1.0000
  C   C477      1.0  0.01791  0.21257  0.88644  1.0000
  H   H758      1.0  0.61092  0.47201  0.00365  1.0000
  H   H759      1.0  0.84396  0.53578  0.04109  1.0000
  H   H760      1.0  0.89864  0.57322  0.82211  1.0000
  H   H761      1.0  0.60551  0.41908  0.92318  1.0000
  C   C478      1.0  0.62262  0.37300  0.05107  1.0000
  C   C479      1.0  0.72008  0.23082  0.04318  1.0000
  H   H762      1.0  0.75610  0.70027  0.01111  1.0000
  S   S193      1.0  0.97621  0.20907  0.99542  1.0000
  H   H763      1.0  0.71567  0.66896  0.02061  1.0000
  S   S194      1.0  0.91858  0.70020  0.97056  1.0000
  Fe  Fe99      1.0  0.97767  0.57971  0.81903  1.0000
  H   H764      1.0  0.58526  0.24429  0.90864  1.0000
  C   C480      1.0  0.87238  0.57894  0.81630  1.0000
  H   H765      1.0  0.08054  0.66693  0.06364  1.0000
  Fe  Fe100     1.0  0.77850  0.02037  0.07301  1.0000
  C   C481      1.0  0.85841  0.15751  0.07284  1.0000
  C   C482      1.0  0.61978  0.82101  0.12431  1.0000
  C   C483      1.0  0.74535  0.19814  0.09116  1.0000
  S   S195      1.0  0.71274  0.08248  0.16540  1.0000
  H   H766      1.0  0.67524  0.06911  0.27234  1.0000
  C   C484      1.0  0.67527  0.86685  0.12032  1.0000
  S   S196      1.0  0.97741  0.10450  0.30711  1.0000
  C   C485      1.0  0.66565  0.70998  0.19622  1.0000
  H   H767      1.0  0.94171  0.82492  0.30157  1.0000
  H   H768      1.0  0.67068  0.90380  0.22058  1.0000
  C   C486      1.0  0.68750  0.81533  0.10546  1.0000
  S   S197      1.0  0.72697  0.99125  0.08828  1.0000
  H   H769      1.0  0.60882  0.91184  0.19113  1.0000
  C   C487      1.0  0.66606  0.76593  0.10055  1.0000
  Fe  Fe101     1.0  0.74335  0.02129  0.13518  1.0000
  H   H770      1.0  0.69170  0.90484  0.12446  1.0000
  H   H771      1.0  0.69316  0.95749  0.17466  1.0000
  Fe  Fe102     1.0  0.75302  0.90419  0.10088  1.0000
  C   C488      1.0  0.08023  0.19534  0.13209  1.0000
  H   H772      1.0  0.63225  0.91076  0.14013  1.0000
  C   C489      1.0  0.67147  0.98291  0.24960  1.0000
  C   C490      1.0  0.67893  0.04470  0.25113  1.0000
  C   C491      1.0  0.69086  0.07534  0.22497  1.0000
  C   C492      1.0  0.69619  0.04394  0.19740  1.0000
  C   C493      1.0  0.68920  0.98192  0.19593  1.0000
  C   C494      1.0  0.67641  0.95162  0.22189  1.0000
  S   S198      1.0  0.91575  0.71122  0.27436  1.0000
  H   H773      1.0  0.76516  0.17232  0.07856  1.0000
  H   H774      1.0  0.83729  0.13548  0.08529  1.0000
  C   C495      1.0  0.97149  0.95118  0.26638  1.0000
  C   C496      1.0  0.81151  0.15027  0.31351  1.0000
  S   S199      1.0  0.65558  0.94439  0.28192  1.0000
  S   S200      1.0  0.76521  0.93187  0.14937  1.0000
  H   H775      1.0  0.04316  0.18233  0.18402  1.0000
  S   S201      1.0  0.00627  0.18793  0.07896  1.0000
  H   H776      1.0  0.69649  0.12321  0.22624  1.0000
  C   C497      1.0  0.64150  0.86987  0.12952  1.0000
  H   H777      1.0  0.97037  0.16308  0.18507  1.0000
  H   H778      1.0  0.66568  0.73572  0.17404  1.0000
  H   H779      1.0  0.05822  0.78511  0.19597  1.0000
  C   C498      1.0  0.89434  0.91344  0.10414  1.0000
  C   C499      1.0  0.06113  0.02654  0.29659  1.0000
  H   H780      1.0  0.66537  0.74353  0.21533  1.0000
  H   H781      1.0  0.91802  0.88616  0.28500  1.0000
  H   H782      1.0  0.90387  0.16770  0.11823  1.0000
  S   S202      1.0  0.94714  0.10262  0.23632  1.0000
  Fe  Fe103     1.0  0.81341  0.96607  0.12869  1.0000
  H   H783      1.0  0.67547  0.72584  0.08909  1.0000
  C   C500      1.0  0.90061  0.12117  0.10884  1.0000
  H   H784      1.0  0.80817  0.02499  0.18795  1.0000
  H   H785      1.0  0.75574  0.00426  0.25853  1.0000
  H   H786      1.0  0.85711  0.14743  0.28696  1.0000
  H   H787      1.0  0.07017  0.75043  0.14328  1.0000
  C   C501      1.0  0.83948  0.99952  0.24089  1.0000
  H   H788      1.0  0.98361  0.80643  0.15826  1.0000
  C   C502      1.0  0.98431  0.17345  0.13768  1.0000
  N   N48       1.0  0.80295  0.99339  0.23460  1.0000
  C   C503      1.0  0.78344  0.00912  0.26251  1.0000
  H   H789      1.0  0.97501  0.93198  0.24285  1.0000
  S   S203      1.0  0.79262  0.05818  0.11894  1.0000
  C   C504      1.0  0.79339  0.03471  0.20917  1.0000
  S   S204      1.0  0.86291  0.96647  0.15392  1.0000
  H   H790      1.0  0.87068  0.89083  0.09959  1.0000
  H   H791      1.0  0.94479  0.84034  0.26095  1.0000
  H   H792      1.0  0.99902  0.13207  0.13749  1.0000
  C   C505      1.0  0.95598  0.97070  0.11605  1.0000
  H   H793      1.0  0.00385  0.83213  0.30662  1.0000
  C   C506      1.0  0.96772  0.19066  0.16471  1.0000
  C   C507      1.0  0.70082  0.13914  0.06781  1.0000
  Fe  Fe104     1.0  0.99767  0.11474  0.25912  1.0000
  H   H794      1.0  0.59124  0.99143  0.24576  1.0000
  S   S205      1.0  0.98685  0.76339  0.22038  1.0000
  H   H795      1.0  0.65291  0.18151  0.28756  1.0000
  H   H796      1.0  0.60312  0.72790  0.17304  1.0000
  Fe  Fe105     1.0  0.92659  0.10248  0.28434  1.0000
  H   H797      1.0  0.04230  0.85011  0.15089  1.0000
  H   H798      1.0  0.99609  0.75739  0.10844  1.0000
  H   H799      1.0  0.05492  0.17502  0.12841  1.0000
  H   H800      1.0  0.90815  0.03252  0.06648  1.0000
  H   H801      1.0  0.59491  0.91058  0.24757  1.0000
  H   H802      1.0  0.02522  0.89886  0.29363  1.0000
  H   H803      1.0  0.86518  0.03613  0.07933  1.0000
  C   C508      1.0  0.79561  0.93020  0.22569  1.0000
  C   C509      1.0  0.06944  0.19934  0.18695  1.0000
  H   H804      1.0  0.76830  0.92392  0.22032  1.0000
  H   H805      1.0  0.84764  0.96935  0.26012  1.0000
  H   H806      1.0  0.06544  0.91175  0.16762  1.0000
  H   H807      1.0  0.00726  0.84782  0.26608  1.0000
  H   H808      1.0  0.80411  0.19448  0.30500  1.0000
  H   H809      1.0  0.78808  0.05676  0.26965  1.0000
  C   C510      1.0  0.00329  0.86893  0.28906  1.0000
  H   H810      1.0  0.92522  0.09735  0.11181  1.0000
  C   C511      1.0  0.89757  0.95127  0.12987  1.0000
  H   H811      1.0  0.94738  0.97716  0.26630  1.0000
  H   H812      1.0  0.93129  0.00814  0.15598  1.0000
  H   H813      1.0  0.79045  0.97962  0.28240  1.0000
  C   C512      1.0  0.99199  0.75973  0.15779  1.0000
  S   S206      1.0  0.04141  0.06389  0.23868  1.0000
  H   H814      1.0  0.07472  0.88751  0.12909  1.0000
  C   C513      1.0  0.95286  0.93258  0.09045  1.0000
  C   C514      1.0  0.63214  0.76902  0.10974  1.0000
  C   C515      1.0  0.92860  0.97903  0.13606  1.0000
  H   H815      1.0  0.97969  0.99335  0.12062  1.0000
  H   H816      1.0  0.84616  0.04678  0.24727  1.0000
  N   N49       1.0  0.71358  0.20104  0.07316  1.0000
  C   C516      1.0  0.99879  0.73176  0.12953  1.0000
  H   H817      1.0  0.79800  0.08287  0.21536  1.0000
  H   H818      1.0  0.81037  0.91673  0.20491  1.0000
  H   H819      1.0  0.04933  0.06725  0.30524  1.0000
  H   H820      1.0  0.61552  0.73180  0.10482  1.0000
  H   H821      1.0  0.80239  0.89797  0.24451  1.0000
  C   C517      1.0  0.06168  0.01520  0.26485  1.0000
  N   N50       1.0  0.97119  0.90311  0.29014  1.0000
  H   H822      1.0  0.60274  0.73820  0.21410  1.0000
  H   H823      1.0  0.88173  0.09731  0.12350  1.0000
  H   H824      1.0  0.85490  0.98745  0.22033  1.0000
  H   H825      1.0  0.76620  0.03027  0.20325  1.0000
  H   H826      1.0  0.69523  0.11566  0.09000  1.0000
  H   H827      1.0  0.07789  0.95426  0.22922  1.0000
  S   S207      1.0  0.80333  0.93061  0.08115  1.0000
  C   C518      1.0  0.92209  0.90356  0.08462  1.0000
  H   H828      1.0  0.99236  0.98384  0.27041  1.0000
  S   S208      1.0  0.72892  0.81440  0.09142  1.0000
  H   H829      1.0  0.74146  0.17550  0.11388  1.0000
  C   C519      1.0  0.06776  0.87117  0.15256  1.0000
  C   C520      1.0  0.94265  0.86181  0.28410  1.0000
  S   S209      1.0  0.88973  0.03406  0.30252  1.0000
  H   H830      1.0  0.60771  0.17633  0.29087  1.0000
  C   C521      1.0  0.07774  0.96323  0.25374  1.0000
  C   C522      1.0  0.99517  0.72708  0.18532  1.0000
  S   S210      1.0  0.91847  0.20275  0.28547  1.0000
  C   C523      1.0  0.59003  0.94901  0.18833  1.0000
  H   H831      1.0  0.60379  0.99269  0.19070  1.0000
  C   C524      1.0  0.84186  0.12409  0.30368  1.0000
  N   N51       1.0  0.89009  0.12244  0.07608  1.0000
  C   C525      1.0  0.85164  0.06705  0.31460  1.0000
  C   C526      1.0  0.60476  0.70373  0.19551  1.0000
  H   H832      1.0  0.08120  0.84723  0.21219  1.0000
  C   C527      1.0  0.08318  0.80830  0.19613  1.0000
  S   S211      1.0  0.98727  0.92419  0.06533  1.0000
  H   H833      1.0  0.92197  0.19821  0.06532  1.0000
  Fe  Fe106     1.0  0.66637  0.99177  0.32670  1.0000
  S   S212      1.0  0.69421  0.06400  0.40402  1.0000
  H   H834      1.0  0.68388  0.87124  0.53174  1.0000
  S   S213      1.0  0.69345  0.99278  0.55575  1.0000
  C   C528      1.0  0.71501  0.99679  0.49641  1.0000
  H   H835      1.0  0.94242  0.74610  0.47240  1.0000
  Fe  Fe107     1.0  0.64313  0.06513  0.38197  1.0000
  S   S214      1.0  0.64206  0.96578  0.37159  1.0000
  H   H836      1.0  0.72965  0.00179  0.44880  1.0000
  C   C529      1.0  0.71891  0.97372  0.46662  1.0000
  H   H837      1.0  0.92683  0.17366  0.35449  1.0000
  H   H838      1.0  0.98856  0.96163  0.32639  1.0000
  H   H839      1.0  0.07680  0.99535  0.34165  1.0000
  H   H840      1.0  0.69454  0.85735  0.35627  1.0000
  S   S215      1.0  0.71927  0.98325  0.34443  1.0000
  Fe  Fe108     1.0  0.69493  0.96612  0.39025  1.0000
  C   C530      1.0  0.93072  0.19641  0.37628  1.0000
  H   H841      1.0  0.02732  0.84663  0.44089  1.0000
  C   C531      1.0  0.63069  0.08306  0.49587  1.0000
  Fe  Fe109     1.0  0.71353  0.08131  0.35642  1.0000
  C   C532      1.0  0.69414  0.89959  0.51376  1.0000
  C   C533      1.0  0.70208  0.96014  0.51987  1.0000
  H   H842      1.0  0.66317  0.84531  0.32687  1.0000
  H   H843      1.0  0.62410  0.80444  0.36515  1.0000
  H   H844      1.0  0.96647  0.89487  0.33933  1.0000
  C   C534      1.0  0.70928  0.91435  0.45999  1.0000
  N   N52       1.0  0.60459  0.03526  0.49628  1.0000
  N   N53       1.0  0.67338  0.76806  0.35578  1.0000
  C   C535      1.0  0.03053  0.79690  0.44372  1.0000
  H   H845      1.0  0.01890  0.78352  0.46608  1.0000
  C   C536      1.0  0.60110  0.01119  0.52798  1.0000
  S   S216      1.0  0.66217  0.09157  0.33529  1.0000
  C   C537      1.0  0.61450  0.98582  0.47518  1.0000
  H   H846      1.0  0.59536  0.94887  0.47505  1.0000
  H   H847      1.0  0.72177  0.04330  0.50119  1.0000
  C   C538      1.0  0.69773  0.87665  0.48374  1.0000
  H   H848      1.0  0.62506  0.99023  0.53622  1.0000
  H   H849      1.0  0.69032  0.83060  0.47868  1.0000
  H   H850      1.0  0.83776  0.99105  0.34310  1.0000
  C   C539      1.0  0.64587  0.78322  0.37743  1.0000
  S   S217      1.0  0.60324  0.11667  0.40747  1.0000
  C   C540      1.0  0.83039  0.03536  0.33469  1.0000
  S   S218      1.0  0.70907  0.88905  0.42171  1.0000
  H   H851      1.0  0.75306  0.18483  0.41087  1.0000
  H   H852      1.0  0.70476  0.81377  0.32269  1.0000
  Fe  Fe110     1.0  0.95874  0.14113  0.55525  1.0000
  S   S219      1.0  0.89106  0.18979  0.46242  1.0000
  H   H853      1.0  0.01578  0.77446  0.42508  1.0000
  C   C541      1.0  0.66101  0.72369  0.33295  1.0000
  C   C542      1.0  0.07215  0.13629  0.41989  1.0000
  H   H854      1.0  0.77134  0.17699  0.44868  1.0000
  S   S220      1.0  0.97154  0.16938  0.50704  1.0000
  H   H855      1.0  0.61716  0.00247  0.45101  1.0000
  C   C543      1.0  0.89940  0.02257  0.50697  1.0000
  H   H856      1.0  0.73050  0.73781  0.55965  1.0000
  H   H857      1.0  0.04809  0.96159  0.50203  1.0000
  S   S221      1.0  0.97901  0.80018  0.52643  1.0000
  H   H858      1.0  0.82850  0.17042  0.42569  1.0000
  H   H859      1.0  0.90546  0.05945  0.44810  1.0000
  H   H860      1.0  0.87046  0.96852  0.45813  1.0000
  H   H861      1.0  0.93953  0.92658  0.51307  1.0000
  C   C544      1.0  0.94623  0.73385  0.39415  1.0000
  H   H862      1.0  0.03845  0.19001  0.46604  1.0000
  C   C545      1.0  0.06337  0.93769  0.51886  1.0000
  C   C546      1.0  0.92750  0.03459  0.45800  1.0000
  H   H863      1.0  0.96523  0.99086  0.50440  1.0000
  C   C547      1.0  0.79029  0.11864  0.33357  1.0000
  H   H864      1.0  0.87705  0.04832  0.49837  1.0000
  H   H865      1.0  0.05077  0.10676  0.41281  1.0000
  H   H866      1.0  0.94089  0.01205  0.43863  1.0000
  H   H867      1.0  0.88487  0.91189  0.48479  1.0000
  H   H868      1.0  0.07535  0.80244  0.49017  1.0000
  H   H869      1.0  0.72409  0.73303  0.35761  1.0000
  H   H870      1.0  0.94342  0.95682  0.32266  1.0000
  H   H871      1.0  0.78381  0.03710  0.36028  1.0000
  C   C548      1.0  0.96730  0.93040  0.32103  1.0000
  S   S222      1.0  0.93010  0.76740  0.36044  1.0000
  C   C549      1.0  0.89346  0.94602  0.46760  1.0000
  H   H872      1.0  0.59422  0.04743  0.54468  1.0000
  N   N54       1.0  0.06172  0.20052  0.42159  1.0000
  N   N55       1.0  0.91678  0.99039  0.48169  1.0000
  H   H873      1.0  0.89169  0.14613  0.39961  1.0000
  H   H874      1.0  0.94476  0.06923  0.46790  1.0000
  C   C550      1.0  0.91079  0.18085  0.40188  1.0000
  H   H875      1.0  0.63913  0.96549  0.48209  1.0000
  H   H876      1.0  0.92015  0.79463  0.42474  1.0000
  C   C551      1.0  0.94984  0.72902  0.45008  1.0000
  H   H877      1.0  0.95993  0.93189  0.47619  1.0000
  C   C552      1.0  0.04796  0.89937  0.54044  1.0000
  H   H878      1.0  0.91658  0.05548  0.51842  1.0000
  C   C553      1.0  0.93727  0.75655  0.42314  1.0000
  S   S223      1.0  0.88555  0.85793  0.54353  1.0000
  H   H879      1.0  0.63638  0.74210  0.38951  1.0000
  C   C554      1.0  0.70220  0.74184  0.37305  1.0000
  H   H880      1.0  0.81020  0.17766  0.38792  1.0000
  H   H881      1.0  0.90573  0.92077  0.44845  1.0000
  H   H882      1.0  0.81415  0.88538  0.54259  1.0000
  C   C555      1.0  0.94672  0.95851  0.49426  1.0000
  H   H883      1.0  0.89064  0.99042  0.52511  1.0000
  H   H884      1.0  0.71120  0.77290  0.39150  1.0000
  H   H885      1.0  0.65452  0.81590  0.39532  1.0000
  C   C556      1.0  0.79974  0.06118  0.34422  1.0000
  C   C557      1.0  0.08031  0.79416  0.41180  1.0000
  H   H886      1.0  0.63442  0.10133  0.47213  1.0000
  C   C558      1.0  0.68444  0.82357  0.33966  1.0000
  S   S224      1.0  0.90547  0.17519  0.55293  1.0000
  Fe  Fe111     1.0  0.92929  0.79511  0.55090  1.0000
  H   H887      1.0  0.02082  0.89567  0.54080  1.0000
  S   S225      1.0  0.75221  0.15179  0.34521  1.0000
  H   H888      1.0  0.62372  0.12158  0.51114  1.0000
  N   N56       1.0  0.06651  0.77922  0.44258  1.0000
  H   H889      1.0  0.65544  0.06533  0.50413  1.0000
  H   H890      1.0  0.76503  0.71546  0.53558  1.0000
  C   C559      1.0  0.81845  0.84773  0.55815  1.0000
  H   H891      1.0  0.01028  0.17997  0.43367  1.0000
  Fe  Fe112     1.0  0.94045  0.70460  0.32094  1.0000
  H   H892      1.0  0.03196  0.19413  0.38013  1.0000
  C   C560      1.0  0.06959  0.71331  0.44814  1.0000
  H   H893      1.0  0.06625  0.77047  0.39309  1.0000
  H   H894      1.0  0.72433  0.73143  0.51878  1.0000
  H   H895      1.0  0.07900  0.84365  0.40693  1.0000
  C   C561      1.0  0.06748  0.86951  0.56277  1.0000
  H   H896      1.0  0.68149  0.70969  0.31688  1.0000
  H   H897      1.0  0.63982  0.74261  0.31897  1.0000
  H   H898      1.0  0.08190  0.11940  0.44249  1.0000
  C   C562      1.0  0.07680  0.98597  0.31715  1.0000
  C   C563      1.0  0.73729  0.71055  0.53901  1.0000
  C   C564      1.0  0.85110  0.82468  0.56231  1.0000
  H   H899      1.0  0.08413  0.86229  0.46312  1.0000
  Fe  Fe113     1.0  0.67433  0.73136  0.81442  1.0000
  S   S226      1.0  0.74066  0.91451  0.62030  1.0000
  H   H900      1.0  0.81667  0.87788  0.66707  1.0000
  H   H901      1.0  0.62171  0.98881  0.74404  1.0000
  H   H902      1.0  0.71851  0.04697  0.63922  1.0000
  C   C565      1.0  0.70269  0.01685  0.72242  1.0000
  C   C566      1.0  0.67069  0.99018  0.72248  1.0000
  H   H903      1.0  0.73590  0.09770  0.61106  1.0000
  C   C567      1.0  0.70993  0.06433  0.74268  1.0000
  C   C568      1.0  0.72432  0.15636  0.66478  1.0000
  H   H904      1.0  0.84721  0.03254  0.64729  1.0000
  H   H905      1.0  0.04443  0.18569  0.75298  1.0000
  C   C569      1.0  0.03532  0.84700  0.79438  1.0000
  H   H906      1.0  0.96939  0.75896  0.68186  1.0000
  H   H907      1.0  0.01334  0.75358  0.69159  1.0000
  H   H908      1.0  0.67154  0.08145  0.67292  1.0000
  C   C570      1.0  0.66741  0.12006  0.65680  1.0000
  C   C571      1.0  0.05118  0.00103  0.65502  1.0000
  H   H909      1.0  0.66500  0.95342  0.70689  1.0000
  C   C572      1.0  0.64626  0.00982  0.74352  1.0000
  C   C573      1.0  0.65389  0.05543  0.76467  1.0000
  Fe  Fe114     1.0  0.71029  0.92791  0.66283  1.0000
  S   S227      1.0  0.69883  0.82956  0.66952  1.0000
  S   S228      1.0  0.66228  0.94831  0.63740  1.0000
  C   C574      1.0  0.71246  0.08576  0.62378  1.0000
  S   S229      1.0  0.67877  0.82778  0.59474  1.0000
  Fe  Fe115     1.0  0.90500  0.99885  0.79515  1.0000
  C   C575      1.0  0.77213  0.89215  0.80526  1.0000
  H   H910      1.0  0.73463  0.08530  0.74254  1.0000
  C   C576      1.0  0.97753  0.78712  0.74154  1.0000
  Fe  Fe116     1.0  0.65323  0.84787  0.63989  1.0000
  C   C577      1.0  0.05649  0.00906  0.59969  1.0000
  S   S230      1.0  0.73382  0.99029  0.69737  1.0000
  H   H911      1.0  0.03036  0.03493  0.65502  1.0000
  H   H912      1.0  0.81682  0.99038  0.62516  1.0000
  Fe  Fe117     1.0  0.69195  0.92658  0.59494  1.0000
  C   C578      1.0  0.68551  0.08362  0.76387  1.0000
  N   N57       1.0  0.69919  0.13776  0.64136  1.0000
  H   H913      1.0  0.69149  0.11914  0.78011  1.0000
  H   H914      1.0  0.69365  0.06971  0.60656  1.0000
  H   H915      1.0  0.60473  0.90092  0.71172  1.0000
  Fe  Fe118     1.0  0.72510  0.81773  0.62422  1.0000
  H   H916      1.0  0.61308  0.87628  0.75070  1.0000
  C   C579      1.0  0.05782  0.80738  0.77977  1.0000
  H   H917      1.0  0.07385  0.01373  0.57966  1.0000
  H   H918      1.0  0.77316  0.84169  0.80526  1.0000
  H   H919      1.0  0.07081  0.10902  0.63205  1.0000
  H   H920      1.0  0.03939  0.95539  0.65320  1.0000
  C   C580      1.0  0.85640  0.77562  0.58223  1.0000
  Fe  Fe119     1.0  0.00101  0.78050  0.57320  1.0000
  H   H921      1.0  0.63493  0.72956  0.61284  1.0000
  H   H922      1.0  0.72947  0.11937  0.68162  1.0000
  S   S231      1.0  0.76444  0.74636  0.61802  1.0000
  C   C581      1.0  0.98837  0.73133  0.69475  1.0000
  H   H923      1.0  0.60504  0.92236  0.81119  1.0000
  S   S232      1.0  0.97046  0.04392  0.56587  1.0000
  Fe  Fe120     1.0  0.95594  0.97860  0.74394  1.0000
  H   H924      1.0  0.86321  0.93640  0.59855  1.0000
  S   S233      1.0  0.60184  0.81425  0.65411  1.0000
  H   H925      1.0  0.81796  0.87921  0.62585  1.0000
  H   H926      1.0  0.97501  0.88039  0.64052  1.0000
  H   H927      1.0  0.89079  0.97861  0.67783  1.0000
  C   C582      1.0  0.87760  0.93685  0.62066  1.0000
  H   H928      1.0  0.65670  0.15807  0.67047  1.0000
  H   H929      1.0  0.95640  0.81397  0.73142  1.0000
  C   C583      1.0  0.69260  0.18863  0.61994  1.0000
  C   C584      1.0  0.83398  0.88058  0.64691  1.0000
  H   H930      1.0  0.97752  0.92469  0.58840  1.0000
  C   C585      1.0  0.83994  0.10414  0.80748  1.0000
  H   H931      1.0  0.95479  0.10030  0.62564  1.0000
  H   H932      1.0  0.81458  0.99022  0.66652  1.0000
  S   S234      1.0  0.04828  0.82451  0.59111  1.0000
  C   C586      1.0  0.96622  0.01533  0.60350  1.0000
  S   S235      1.0  0.95152  0.78399  0.59814  1.0000
  H   H933      1.0  0.04291  0.96531  0.59720  1.0000
  H   H934      1.0  0.60368  0.82206  0.72123  1.0000
  C   C587      1.0  0.95737  0.02672  0.65884  1.0000
  H   H935      1.0  0.64786  0.10549  0.63980  1.0000
  C   C588      1.0  0.58848  0.74619  0.63711  1.0000
  H   H936      1.0  0.89395  0.97782  0.62056  1.0000
  S   S236      1.0  0.96195  0.92871  0.69914  1.0000
  H   H937      1.0  0.84994  0.83899  0.64688  1.0000
  H   H938      1.0  0.89252  0.89756  0.67761  1.0000
  C   C589      1.0  0.60954  0.71403  0.61713  1.0000
  H   H939      1.0  0.78731  0.90871  0.78537  1.0000
  H   H940      1.0  0.75194  0.00058  0.78489  1.0000
  C   C590      1.0  0.79129  0.82212  0.57430  1.0000
  H   H941      1.0  0.72030  0.84273  0.77363  1.0000
  H   H942      1.0  0.82588  0.19767  0.80026  1.0000
  C   C591      1.0  0.95890  0.05224  0.62895  1.0000
  H   H943      1.0  0.86021  0.10524  0.79083  1.0000
  H   H944      1.0  0.02206  0.88093  0.78105  1.0000
  Fe  Fe121     1.0  0.96542  0.08113  0.78863  1.0000
  N   N58       1.0  0.97952  0.72605  0.72778  1.0000
  H   H945      1.0  0.92620  0.72145  0.71839  1.0000
  C   C592      1.0  0.07514  0.76340  0.79692  1.0000
  C   C593      1.0  0.97011  0.92824  0.63742  1.0000
  C   C594      1.0  0.83239  0.98974  0.64662  1.0000
  H   H946      1.0  0.67401  0.17584  0.60179  1.0000
  C   C595      1.0  0.72092  0.89308  0.77471  1.0000
  N   N59       1.0  0.85477  0.93607  0.64763  1.0000
  H   H947      1.0  0.85867  0.93587  0.69719  1.0000
  C   C596      1.0  0.96318  0.96451  0.66296  1.0000
  H   H948      1.0  0.83381  0.71266  0.61399  1.0000
  N   N60       1.0  0.73692  0.91446  0.80356  1.0000
  C   C597      1.0  0.79693  0.77390  0.59476  1.0000
  Fe  Fe122     1.0  0.97558  0.95301  0.81061  1.0000
  S   S237      1.0  0.93445  0.91773  0.78034  1.0000
  H   H949      1.0  0.03723  0.04563  0.59773  1.0000
  S   S238      1.0  0.98466  0.17362  0.80042  1.0000
  H   H950      1.0  0.95194  0.05501  0.67857  1.0000
  H   H951      1.0  0.06211  0.81129  0.75521  1.0000
  C   C598      1.0  0.82934  0.74988  0.59818  1.0000
  S   S239      1.0  0.62459  0.07381  0.79323  1.0000
  S   S240      1.0  0.00018  0.00694  0.77309  1.0000
  C   C599      1.0  0.97162  0.95341  0.60789  1.0000
  H   H952      1.0  0.69426  0.90904  0.77286  1.0000
  H   H953      1.0  0.74881  0.16881  0.65394  1.0000
  S   S241      1.0  0.92276  0.05781  0.75608  1.0000
  H   H954      1.0  0.06418  0.00338  0.67781  1.0000
  H   H955      1.0  0.97363  0.78486  0.76698  1.0000
  H   H956      1.0  0.89464  0.89662  0.62043  1.0000
  H   H957      1.0  0.73461  0.90986  0.75400  1.0000
  S   S242      1.0  0.64669  0.81729  0.80286  1.0000
  H   H958      1.0  0.88144  0.75791  0.58598  1.0000
  C   C600      1.0  0.87501  0.93703  0.67634  1.0000
  H   H959      1.0  0.76608  0.83995  0.57099  1.0000
  C   C601      1.0  0.59716  0.86801  0.72991  1.0000
  H   H960      1.0  0.00102  0.81339  0.73735  1.0000
  N   N61       1.0  0.07491  0.01200  0.62935  1.0000
  H   H961      1.0  0.03096  0.71125  0.74227  1.0000
  H   H962      1.0  0.61128  0.19565  0.62787  1.0000
  H   H963      1.0  0.71551  0.19653  0.67800  1.0000
  C   C602      1.0  0.73671  0.98124  0.80407  1.0000
  H   H964      1.0  0.71052  0.99909  0.80211  1.0000
  H   H965      1.0  0.71614  0.20309  0.60802  1.0000
  C   C603      1.0  0.82054  0.15643  0.81284  1.0000
  S   S243      1.0  0.85294  0.98224  0.81361  1.0000
  Fe  Fe123     1.0  0.66992  0.12472  0.89752  1.0000
  S   S244      1.0  0.66771  0.06180  0.93815  1.0000
  C   C604      1.0  0.98326  0.70659  0.89890  1.0000
  H   H966      1.0  0.68350  0.79235  0.03933  1.0000
  H   H967      1.0  0.68766  0.98658  0.98865  1.0000
  C   C605      1.0  0.92662  0.79748  0.84791  1.0000
  C   C606      1.0  0.60575  0.79101  0.85217  1.0000
  H   H968      1.0  0.73645  0.99065  0.02438  1.0000
  Fe  Fe124     1.0  0.95874  0.73685  0.00196  1.0000
  H   H969      1.0  0.69662  0.77319  0.95540  1.0000
  H   H970      1.0  0.72561  0.14244  0.94062  1.0000
  C   C607      1.0  0.70640  0.02182  0.98611  1.0000
  H   H971      1.0  0.08317  0.72501  0.84208  1.0000
  C   C608      1.0  0.07643  0.97653  0.04287  1.0000
  C   C609      1.0  0.71768  0.89168  0.83031  1.0000
  C   C610      1.0  0.73381  0.02451  0.00657  1.0000
  S   S245      1.0  0.69602  0.09317  0.85471  1.0000
  C   C611      1.0  0.73069  0.71154  0.02043  1.0000
  H   H972      1.0  0.73387  0.72713  0.95906  1.0000
  H   H973      1.0  0.94112  0.12573  0.05920  1.0000
  C   C612      1.0  0.61484  0.83354  0.82973  1.0000
  C   C613      1.0  0.96916  0.71206  0.92825  1.0000
  H   H974      1.0  0.86974  0.82273  0.90505  1.0000
  C   C614      1.0  0.70314  0.06472  0.96248  1.0000
  C   C615      1.0  0.72771  0.10969  0.95902  1.0000
  C   C616      1.0  0.04024  0.06465  0.04056  1.0000
  S   S246      1.0  0.62172  0.15085  0.87347  1.0000
  H   H975      1.0  0.73953  0.83139  0.02604  1.0000
  H   H976      1.0  0.93232  0.89454  0.88409  1.0000
  C   C617      1.0  0.78661  0.10122  0.84971  1.0000
  S   S247      1.0  0.07435  0.74556  0.96356  1.0000
  Fe  Fe125     1.0  0.64982  0.12737  0.83043  1.0000
  H   H977      1.0  0.02880  0.02662  0.98239  1.0000
  H   H978      1.0  0.87398  0.85214  0.82045  1.0000
  H   H979      1.0  0.76058  0.80546  0.99199  1.0000
  H   H980      1.0  0.88240  0.75164  0.88874  1.0000
  S   S248      1.0  0.95530  0.75494  0.05283  1.0000
  C   C618      1.0  0.80592  0.04906  0.84433  1.0000
  H   H981      1.0  0.01939  0.04035  0.05252  1.0000
  H   H982      1.0  0.08130  0.91011  0.86613  1.0000
  H   H983      1.0  0.61392  0.97150  0.93791  1.0000
  H   H984      1.0  0.98256  0.73726  0.94552  1.0000
  H   H985      1.0  0.91977  0.74976  0.84269  1.0000
  C   C619      1.0  0.75483  0.11305  0.97989  1.0000
  C   C620      1.0  0.89053  0.79925  0.89266  1.0000
  Fe  Fe126     1.0  0.03343  0.75997  0.99850  1.0000
  C   C621      1.0  0.75758  0.07099  0.00397  1.0000
  H   H986      1.0  0.61964  0.74900  0.85431  1.0000
  H   H987      1.0  0.69116  0.90883  0.82998  1.0000
  C   C622      1.0  0.90906  0.89287  0.86953  1.0000
  C   C623      1.0  0.59706  0.88827  0.82756  1.0000
  C   C624      1.0  0.73527  0.81456  0.00212  1.0000
  S   S249      1.0  0.98864  0.82056  0.99106  1.0000
  H   H988      1.0  0.03597  0.06211  0.88670  1.0000
  S   S250      1.0  0.04148  0.14742  0.93648  1.0000
  S   S251      1.0  0.03805  0.78136  0.04885  1.0000
  H   H989      1.0  0.66449  0.73278  0.01725  1.0000
  S   S252      1.0  0.78922  0.07934  0.03207  1.0000
  C   C625      1.0  0.59277  0.98748  0.92299  1.0000
  C   C626      1.0  0.04010  0.99289  0.99862  1.0000
  H   H990      1.0  0.71964  0.11136  0.05516  1.0000
  H   H991      1.0  0.93386  0.81954  0.82588  1.0000
  H   H992      1.0  0.91284  0.79803  0.90840  1.0000
  C   C627      1.0  0.00387  0.16759  0.83699  1.0000
  C   C628      1.0  0.79323  0.15448  0.83333  1.0000
  N   N62       1.0  0.06129  0.02274  0.02226  1.0000
  C   C629      1.0  0.02751  0.10579  0.87831  1.0000
  C   C630      1.0  0.91686  0.15122  0.05743  1.0000
  H   H993      1.0  0.60323  0.06013  0.97208  1.0000
  C   C631      1.0  0.03011  0.84275  0.82618  1.0000
  Fe  Fe127     1.0  0.98968  0.83321  0.04239  1.0000
  H   H994      1.0  0.01894  0.96731  0.00936  1.0000
  S   S253      1.0  0.94434  0.02939  0.82853  1.0000
  C   C632      1.0  0.86859  0.82987  0.84296  1.0000
  C   C633      1.0  0.07027  0.75950  0.82881  1.0000
  H   H995      1.0  0.84716  0.85484  0.85361  1.0000
  H   H996      1.0  0.78506  0.90825  0.82655  1.0000
  N   N63       1.0  0.89867  0.82986  0.86327  1.0000
  H   H997      1.0  0.88880  0.91886  0.88136  1.0000
  H   H998      1.0  0.59371  0.10513  0.93873  1.0000
  H   H999      1.0  0.05503  0.96024  0.98465  1.0000
  H   H1000     1.0  0.04388  0.79620  0.86806  1.0000
  H   H1001     1.0  0.80046  0.00786  0.85687  1.0000
  C   C634      1.0  0.83195  0.04997  0.82260  1.0000
  H   H1002     1.0  0.72334  0.85205  0.98874  1.0000
  Fe  Fe128     1.0  0.71441  0.18911  0.85167  1.0000
  S   S254      1.0  0.00167  0.89171  0.84446  1.0000
  C   C635      1.0  0.01517  0.11144  0.84802  1.0000
  H   H1003     1.0  0.87542  0.05917  0.04080  1.0000
  H   H1004     1.0  0.73429  0.72548  0.04488  1.0000
  H   H1005     1.0  0.05664  0.94983  0.05495  1.0000
  H   H1006     1.0  0.02848  0.10023  0.02575  1.0000
  C   C636      1.0  0.04783  0.79938  0.84344  1.0000
  C   C637      1.0  0.68070  0.77382  0.01564  1.0000
  H   H1007     1.0  0.90970  0.15355  0.03260  1.0000
  C   C638      1.0  0.02812  0.15608  0.89788  1.0000
  H   H1008     1.0  0.77334  0.14880  0.97763  1.0000
  H   H1009     1.0  0.01446  0.07207  0.83330  1.0000
  H   H1010     1.0  0.72932  0.90592  0.85253  1.0000
  N   N64       1.0  0.71398  0.75957  0.00205  1.0000
  H   H1011     1.0  0.71637  0.84151  0.83012  1.0000
  H   H1012     1.0  0.85981  0.78297  0.83806  1.0000
  H   H1013     1.0  0.66687  0.80839  0.00178  1.0000
  H   H1014     1.0  0.76667  0.10026  0.86665  1.0000
  H   H1015     1.0  0.91481  0.91721  0.84776  1.0000
  H   H1016     1.0  0.94983  0.79690  0.86252  1.0000
  S   S255      1.0  0.70429  0.72762  0.85843  1.0000
  H   H1017     1.0  0.60402  0.01683  0.90480  1.0000
  H   H1018     1.0  0.85051  0.16177  0.04823  1.0000
  C   C639      1.0  0.70925  0.73831  0.97002  1.0000
  H   H1019     1.0  0.74713  0.99893  0.82604  1.0000
  H   H1020     1.0  0.05533  0.08803  0.05867  1.0000
  H   H1021     1.0  0.07802  0.09188  0.99080  1.0000
  H   H1022     1.0  0.00716  0.72808  0.89390  1.0000
  H   H1023     1.0  0.67722  0.13958  0.05376  1.0000
  H   H1024     1.0  0.91944  0.87441  0.06475  1.0000
  S   S256      1.0  0.79982  0.70502  0.83060  1.0000
  C   C640      1.0  0.88451  0.05986  0.06515  1.0000
