data_image0
_chemical_formula_structural       FeHFeSFeS2HFeS2C2H2CHC7H3SHCHCHCHSHCSHCH2NH5FeCSH2SH2CSC3HCH5CH2NH2CHC2H2FeHCHCSH3CH2NH4C2H2SHSH3C2FeSH2CH3C2NC4FeHS2FeHCHSCHSHSCH3CHCH2CH2CH2C2HCHCS3CFe2HCH2C3H2SCH2SH2CHCHSFeSFeHSH2C2H3CSCHCNC2S2C2H2CFeC2H5SFe2SH4CH3CH2FeCFeH3SCH2CSC2H2CNHC2H2CHSH2CFeSH2NCH3FeCSHCHSC2FeHCHSHC3HCH3C3H3S2CHSH2S2C2H2CHCH3CHC3FeC2HNH2CH2CH2S2NFeSHFe2SHCSHNHC6H5S2H3FeC3NC2H4SHC2H7CH3CNCH3CH4C2H6CHCH5C2FeS2CH5CHC6SH4C2H3CHCHNC4H3FeC2HSHS2HFeC3S3CFeHSH4SHFeH4CNCFeH3SH3C2NHCH2SC5H5SCFeSH3CH3FeHSHCHCFeHFeSC2SC6HCH2NH2SCFeSHNC2H3CSHCH3CSHFeH9NCH2SH2FeC2S2CH2C2HCH2CH2CH2CFeS2FeS2FeSFeNS2HC2H2CH6C7H4CH3C4HCNHCHCSH2C2H2SCH9CHCH3CH6NHCNCH3CH2CH2CH2CHCHC2HNCNH3SFeHSHSCH3SC2FeSCFeHC2HCS2CFeCH3C3H6CH3CHCH2CHCH2NH5C2NH2CHCH2C2H3SH2CH4FeSH2SFeSFeSCFeHC6H3CHSH2SCSH4FeHCNHCHSHCHCHSH3C2HSH3CHCHCNCHCHCFeS2FeHFeS3H2CHCH4CSHC2H2NC3SCH2CHFeSH2CSC2HSHCHCH2C2SCH2FeHFeH3C2SH2CHCHCH2CFeCHC2H6CH3NH5FeSHNC3H3CH4SHSCSCHCH2CH3S3NHFeCHFeCSHCFeH3FeHSHCH2CSHC3H2C2HCH8CS
_chemical_formula_sum              "Fe64 H512 S128 C320 N32"
_cell_length_a       27.1093
_cell_length_b       27.417
_cell_length_c       60.3604
_cell_angle_alpha    91.0594
_cell_angle_beta     87.886
_cell_angle_gamma    85.2766

_space_group_name_H-M_alt    "P 1"
_space_group_IT_number       1

loop_
  _space_group_symop_operation_xyz
  'x, y, z'

loop_
  _atom_site_type_symbol
  _atom_site_label
  _atom_site_symmetry_multiplicity
  _atom_site_fract_x
  _atom_site_fract_y
  _atom_site_fract_z
  _atom_site_occupancy
  Fe  Fe1       1.0  0.27400  0.25253  0.19298  1.0000
  H   H1        1.0  0.08892  0.11916  0.21043  1.0000
  Fe  Fe2       1.0  0.19451  0.29305  0.16345  1.0000
  S   S1        1.0  0.55253  0.46509  0.08677  1.0000
  Fe  Fe3       1.0  0.24455  0.19195  0.15377  1.0000
  S   S2        1.0  0.23577  0.11771  0.13895  1.0000
  S   S3        1.0  0.11999  0.33583  0.16491  1.0000
  H   H2        1.0  0.11858  0.23469  0.15146  1.0000
  Fe  Fe4       1.0  0.30150  0.28105  0.14594  1.0000
  S   S4        1.0  0.36291  0.29691  0.12151  1.0000
  S   S5        1.0  0.23081  0.25740  0.13261  1.0000
  C   C1        1.0  0.34127  0.09827  0.08795  1.0000
  C   C2        1.0  0.32411  0.18584  0.08616  1.0000
  H   H3        1.0  0.33116  0.38414  0.14803  1.0000
  H   H4        1.0  0.33151  0.14867  0.12655  1.0000
  C   C3        1.0  0.17180  0.29123  0.26121  1.0000
  H   H5        1.0  0.39331  0.12132  0.12315  1.0000
  C   C4        1.0  0.54705  0.43259  0.14269  1.0000
  C   C5        1.0  0.30389  0.08383  0.16865  1.0000
  C   C6        1.0  0.40676  0.45386  0.11801  1.0000
  C   C7        1.0  0.37207  0.44153  0.13431  1.0000
  C   C8        1.0  0.37870  0.35762  0.12028  1.0000
  C   C9        1.0  0.41344  0.36999  0.10400  1.0000
  C   C10       1.0  0.42729  0.41807  0.10280  1.0000
  H   H6        1.0  0.42927  0.34242  0.09216  1.0000
  H   H7        1.0  0.45329  0.42756  0.08991  1.0000
  H   H8        1.0  0.38136  0.18662  0.12152  1.0000
  S   S6        1.0  0.48440  0.54390  0.05810  1.0000
  H   H9        1.0  0.33805  0.09214  0.06980  1.0000
  C   C11       1.0  0.50788  0.35982  0.15282  1.0000
  H   H10       1.0  0.28981  0.11430  0.17933  1.0000
  C   C12       1.0  0.28212  0.07563  0.14840  1.0000
  H   H11       1.0  0.43622  0.12032  0.08584  1.0000
  C   C13       1.0  0.36707  0.15091  0.11708  1.0000
  H   H12       1.0  0.16667  0.18640  0.22624  1.0000
  S   S7        1.0  0.20211  0.22509  0.18351  1.0000
  H   H13       1.0  0.54856  0.10262  0.03619  1.0000
  C   C14       1.0  0.35799  0.39344  0.13544  1.0000
  S   S8        1.0  0.31767  0.21283  0.16508  1.0000
  H   H14       1.0  0.33718  0.22253  0.08978  1.0000
  C   C15       1.0  0.40818  0.14963  0.08091  1.0000
  H   H15       1.0  0.52651  0.37155  0.10941  1.0000
  H   H16       1.0  0.54233  0.44795  0.15989  1.0000
  N   N1        1.0  0.36023  0.14611  0.09299  1.0000
  H   H17       1.0  0.42332  0.18542  0.08438  1.0000
  H   H18       1.0  0.28775  0.18442  0.09530  1.0000
  H   H19       1.0  0.14133  0.31871  0.25929  1.0000
  H   H20       1.0  0.40453  0.14567  0.06267  1.0000
  H   H21       1.0  0.50195  0.37282  0.17036  1.0000
  Fe  Fe5       1.0  0.48943  0.52184  0.09347  1.0000
  C   C16       1.0  0.34419  0.05260  0.17511  1.0000
  S   S9        1.0  0.26401  0.32349  0.17511  1.0000
  H   H22       1.0  0.36136  0.05931  0.19066  1.0000
  H   H23       1.0  0.30400  0.09561  0.09602  1.0000
  S   S10       1.0  0.42503  0.51377  0.11718  1.0000
  H   H24       1.0  0.35602  0.46916  0.14607  1.0000
  H   H25       1.0  0.47398  0.37243  0.14393  1.0000
  C   C17       1.0  0.08232  0.24738  0.15840  1.0000
  S   S11       1.0  0.29895  0.24328  0.22775  1.0000
  C   C18       1.0  0.51793  0.08298  0.03084  1.0000
  C   C19       1.0  0.24919  0.24911  0.24716  1.0000
  C   C20       1.0  0.20849  0.28288  0.24421  1.0000
  H   H26       1.0  0.14229  0.13640  0.24062  1.0000
  C   C21       1.0  0.07268  0.29596  0.16577  1.0000
  H   H27       1.0  0.20639  0.30398  0.22924  1.0000
  H   H28       1.0  0.36615  0.06740  0.09398  1.0000
  H   H29       1.0  0.08392  0.26438  0.23803  1.0000
  H   H30       1.0  0.11056  0.25120  0.21073  1.0000
  H   H31       1.0  0.31753  0.18332  0.06812  1.0000
  C   C22       1.0  0.08137  0.24115  0.22286  1.0000
  H   H32       1.0  0.51403  0.44668  0.13354  1.0000
  H   H33       1.0  0.13898  0.19585  0.25356  1.0000
  N   N2        1.0  0.08700  0.18846  0.22795  1.0000
  H   H34       1.0  0.52267  0.30156  0.02395  1.0000
  H   H35       1.0  0.51032  0.31907  0.15260  1.0000
  C   C23       1.0  0.13585  0.17622  0.23747  1.0000
  H   H36       1.0  0.11115  0.16799  0.19446  1.0000
  C   C24       1.0  0.08311  0.15908  0.20740  1.0000
  C   C25       1.0  0.49029  0.05783  0.04635  1.0000
  H   H37       1.0  0.49944  0.05877  0.06362  1.0000
  H   H38       1.0  0.05278  0.17742  0.15416  1.0000
  Fe  Fe6       1.0  0.15205  0.25230  0.33639  1.0000
  H   H39       1.0  0.42678  0.13062  0.39948  1.0000
  C   C26       1.0  0.27740  0.30044  0.31703  1.0000
  H   H40       1.0  0.47856  0.15210  0.44264  1.0000
  C   C27       1.0  0.51434  0.16498  0.38872  1.0000
  S   S12       1.0  0.13039  0.27759  0.30241  1.0000
  H   H41       1.0  0.29161  0.26212  0.31257  1.0000
  H   H42       1.0  0.52630  0.23516  0.41922  1.0000
  H   H43       1.0  0.21630  0.20749  0.29780  1.0000
  C   C28       1.0  0.28600  0.38626  0.31198  1.0000
  H   H44       1.0  0.28293  0.19535  0.26869  1.0000
  H   H45       1.0  0.50232  0.18863  0.37486  1.0000
  N   N3        1.0  0.30698  0.33620  0.30577  1.0000
  H   H46       1.0  0.40323  0.17806  0.32814  1.0000
  H   H47       1.0  0.30749  0.41441  0.30393  1.0000
  H   H48       1.0  0.28610  0.39271  0.33027  1.0000
  H   H49       1.0  0.09339  0.11482  0.34287  1.0000
  C   C29       1.0  0.35745  0.22506  0.35107  1.0000
  C   C30       1.0  0.35881  0.32929  0.31265  1.0000
  H   H50       1.0  0.51255  0.12632  0.38307  1.0000
  H   H51       1.0  0.46425  0.23850  0.43107  1.0000
  S   S13       1.0  0.21988  0.20286  0.34321  1.0000
  H   H52       1.0  0.54036  0.14928  0.43052  1.0000
  S   S14       1.0  0.50056  0.21230  0.32854  1.0000
  H   H53       1.0  0.38261  0.35486  0.30410  1.0000
  H   H54       1.0  0.40643  0.17805  0.41956  1.0000
  H   H55       1.0  0.10376  0.11920  0.41416  1.0000
  C   C31       1.0  0.40188  0.20941  0.33938  1.0000
  C   C32       1.0  0.44467  0.23373  0.34246  1.0000
  Fe  Fe7       1.0  0.11974  0.26361  0.38515  1.0000
  S   S15       1.0  0.18516  0.21586  0.39585  1.0000
  H   H56       1.0  0.39714  0.32093  0.38003  1.0000
  H   H57       1.0  0.36126  0.33577  0.33081  1.0000
  C   C33       1.0  0.39846  0.28951  0.36882  1.0000
  H   H58       1.0  0.24687  0.39249  0.30695  1.0000
  H   H59       1.0  0.10199  0.13582  0.44312  1.0000
  H   H60       1.0  0.47496  0.29410  0.35896  1.0000
  C   C34       1.0  0.44270  0.27410  0.35704  1.0000
  C   C35       1.0  0.11178  0.06599  0.36939  1.0000
  N   N4        1.0  0.48334  0.17666  0.40905  1.0000
  C   C36       1.0  0.08018  0.08790  0.35397  1.0000
  C   C37       1.0  0.43116  0.16915  0.40466  1.0000
  C   C38       1.0  0.35570  0.26517  0.36581  1.0000
  C   C39       1.0  0.21449  0.22939  0.28320  1.0000
  Fe  Fe8       1.0  0.22941  0.25586  0.37116  1.0000
  H   H61       1.0  0.41710  0.19290  0.39109  1.0000
  S   S16       1.0  0.30077  0.28667  0.38038  1.0000
  S   S17       1.0  0.10043  0.21250  0.35817  1.0000
  Fe  Fe9       1.0  0.16932  0.16757  0.36715  1.0000
  H   H62       1.0  0.09633  0.18249  0.42262  1.0000
  C   C40       1.0  0.48728  0.22828  0.41579  1.0000
  H   H63       1.0  0.49885  0.10504  0.42238  1.0000
  S   S18       1.0  0.16507  0.30835  0.36274  1.0000
  C   C41       1.0  0.50094  0.14432  0.42696  1.0000
  H   H64       1.0  0.47463  0.25370  0.40259  1.0000
  S   S19       1.0  0.17019  0.08708  0.37330  1.0000
  H   H65       1.0  0.32484  0.20567  0.34884  1.0000
  S   S20       1.0  0.06348  0.28801  0.41226  1.0000
  C   C42       1.0  0.08573  0.14533  0.42697  1.0000
  H   H66       1.0  0.27811  0.30469  0.33537  1.0000
  H   H67       1.0  0.23782  0.30520  0.31260  1.0000
  H   H68       1.0  0.37522  0.29132  0.30882  1.0000
  C   C43       1.0  0.17521  0.26502  0.28090  1.0000
  H   H69       1.0  0.32152  0.29143  0.27621  1.0000
  C   C44       1.0  0.30553  0.32877  0.28149  1.0000
  H   H70       1.0  0.32693  0.35544  0.27236  1.0000
  H   H71       1.0  0.26686  0.33295  0.27579  1.0000
  C   C45       1.0  0.25182  0.22201  0.26654  1.0000
  H   H72       1.0  0.06635  0.39096  0.56142  1.0000
  H   H73       1.0  0.08689  0.45129  0.55897  1.0000
  C   C46       1.0  0.06219  0.42516  0.55175  1.0000
  H   H74       1.0  0.07602  0.41613  0.53443  1.0000
  H   H75       1.0  0.39950  0.52118  0.91621  1.0000
  C   C47       1.0  0.50723  0.08095  0.00835  1.0000
  C   C48       1.0  0.51787  0.24667  0.98674  1.0000
  H   H76       1.0  0.50078  0.16935  0.92591  1.0000
  C   C49       1.0  0.42915  0.54628  0.91316  1.0000
  H   H77       1.0  0.44010  0.49777  0.95101  1.0000
  C   C50       1.0  0.54339  0.26438  0.88392  1.0000
  S   S21       1.0  0.49618  0.49359  0.84463  1.0000
  S   S22       1.0  0.54505  0.44942  0.90184  1.0000
  S   S23       1.0  0.48949  0.13080  0.88233  1.0000
  C   C51       1.0  0.55144  0.27050  0.90655  1.0000
  Fe  Fe10      1.0  0.51429  0.07649  0.90791  1.0000
  Fe  Fe11      1.0  0.54272  0.06864  0.95583  1.0000
  H   H78       1.0  0.48069  0.53780  0.96374  1.0000
  C   C52       1.0  0.51289  0.19551  0.91411  1.0000
  H   H79       1.0  0.49473  0.27269  0.97671  1.0000
  H   H80       1.0  0.50052  0.50455  0.93890  1.0000
  C   C53       1.0  0.50730  0.18761  0.89148  1.0000
  C   C54       1.0  0.52127  0.22272  0.87636  1.0000
  C   C55       1.0  0.53527  0.23650  0.92156  1.0000
  H   H81       1.0  0.45943  0.52537  0.90317  1.0000
  H   H82       1.0  0.52884  0.21353  0.97615  1.0000
  S   S24       1.0  0.54464  0.10857  0.98866  1.0000
  C   C56       1.0  0.46785  0.52464  0.94753  1.0000
  H   H83       1.0  0.49413  0.23453  0.00069  1.0000
  H   H84       1.0  0.51660  0.21683  0.85881  1.0000
  S   S25       1.0  0.47225  0.05722  0.93881  1.0000
  H   H85       1.0  0.55029  0.54508  0.80602  1.0000
  H   H86       1.0  0.52321  0.34049  0.00033  1.0000
  C   C57       1.0  0.54560  0.31195  0.00939  1.0000
  H   H87       1.0  0.54087  0.24135  0.93899  1.0000
  C   C58       1.0  0.46746  0.05556  0.00162  1.0000
  H   H88       1.0  0.45826  0.05455  0.98443  1.0000
  S   S26       1.0  0.46210  0.91668  0.10985  1.0000
  Fe  Fe12      1.0  0.46607  0.97309  0.13695  1.0000
  S   S27       1.0  0.54940  0.97329  0.08372  1.0000
  Fe  Fe13      1.0  0.46662  0.98074  0.08740  1.0000
  H   H89       1.0  0.49365  0.67579  0.13531  1.0000
  S   S28       1.0  0.46344  0.03716  0.11454  1.0000
  H   H90       1.0  0.42769  0.62211  0.12627  1.0000
  H   H91       1.0  0.50392  0.68389  0.10624  1.0000
  C   C59       1.0  0.30010  0.03571  0.13480  1.0000
  C   C60       1.0  0.41467  0.72936  0.09876  1.0000
  H   H92       1.0  0.43461  0.71545  0.08314  1.0000
  H   H93       1.0  0.35656  0.97595  0.12993  1.0000
  H   H94       1.0  0.40962  0.69388  0.15242  1.0000
  C   C61       1.0  0.40023  0.71689  0.13790  1.0000
  S   S29       1.0  0.41766  0.97891  0.16770  1.0000
  C   C62       1.0  0.47050  0.89679  0.02751  1.0000
  H   H95       1.0  0.28290  0.02881  0.11930  1.0000
  C   C63       1.0  0.48190  0.69866  0.12109  1.0000
  N   N5        1.0  0.42826  0.69805  0.11763  1.0000
  C   C64       1.0  0.54236  0.72275  0.06797  1.0000
  C   C65       1.0  0.45134  0.03143  0.03945  1.0000
  S   S30       1.0  0.51698  0.67454  0.05411  1.0000
  S   S31       1.0  0.41973  0.99585  0.05818  1.0000
  C   C66       1.0  0.41645  0.64732  0.11274  1.0000
  C   C67       1.0  0.34163  0.00573  0.14083  1.0000
  H   H96       1.0  0.40854  0.75504  0.14209  1.0000
  H   H97       1.0  0.43596  0.63243  0.09718  1.0000
  C   C68       1.0  0.36366  0.01415  0.16100  1.0000
  Fe  Fe14      1.0  0.54519  0.91507  0.10903  1.0000
  C   C69       1.0  0.53761  0.80919  0.07828  1.0000
  C   C70       1.0  0.52018  0.77044  0.06617  1.0000
  H   H98       1.0  0.42435  0.76764  0.10159  1.0000
  H   H99       1.0  0.37430  0.73047  0.09587  1.0000
  H   H100      1.0  0.37611  0.64501  0.11061  1.0000
  H   H101      1.0  0.48881  0.77718  0.05576  1.0000
  H   H102      1.0  0.49263  0.73647  0.12424  1.0000
  S   S32       1.0  0.53730  0.58092  0.10263  1.0000
  Fe  Fe15      1.0  0.54581  0.02536  0.11289  1.0000
  Fe  Fe16      1.0  0.53794  0.59889  0.06662  1.0000
  S   S33       1.0  0.54867  0.96642  0.13812  1.0000
  H   H103      1.0  0.35955  0.71712  0.13589  1.0000
  H   H104      1.0  0.52012  0.84586  0.07701  1.0000
  H   H105      1.0  0.46006  0.86384  0.03646  1.0000
  H   H106      1.0  0.54183  0.82274  0.02368  1.0000
  C   C71       1.0  0.43915  0.03139  0.01717  1.0000
  H   H107      1.0  0.48881  0.92005  0.03953  1.0000
  H   H108      1.0  0.43566  0.91792  0.02287  1.0000
  H   H109      1.0  0.12000  0.01149  0.39453  1.0000
  C   C72       1.0  0.09532  0.02918  0.38288  1.0000
  H   H110      1.0  0.34744  0.71673  0.60497  1.0000
  H   H111      1.0  0.27627  0.77716  0.61515  1.0000
  Fe  Fe17      1.0  0.07928  0.66080  0.69946  1.0000
  C   C73       1.0  0.32816  0.68884  0.61437  1.0000
  Fe  Fe18      1.0  0.12403  0.72316  0.66473  1.0000
  H   H112      1.0  0.35709  0.66166  0.62047  1.0000
  H   H113      1.0  0.24705  0.65424  0.63401  1.0000
  H   H114      1.0  0.24890  0.68899  0.65925  1.0000
  S   S34       1.0  0.13838  0.64398  0.67272  1.0000
  C   C74       1.0  0.25909  0.74751  0.62422  1.0000
  H   H115      1.0  0.23457  0.72979  0.61263  1.0000
  H   H116      1.0  0.29925  0.64522  0.65159  1.0000
  C   C75       1.0  0.32804  0.73687  0.64828  1.0000
  S   S35       1.0  0.13193  0.74634  0.62954  1.0000
  C   C76       1.0  0.27203  0.67329  0.64488  1.0000
  C   C77       1.0  0.24705  0.80734  0.75569  1.0000
  H   H117      1.0  0.17015  0.83291  0.61257  1.0000
  H   H118      1.0  0.34789  0.76572  0.63986  1.0000
  C   C78       1.0  0.10937  0.88879  0.61441  1.0000
  N   N6        1.0  0.29684  0.71163  0.63293  1.0000
  H   H119      1.0  0.35653  0.71082  0.65544  1.0000
  C   C79       1.0  0.13135  0.84130  0.61704  1.0000
  C   C80       1.0  0.10332  0.80495  0.62566  1.0000
  H   H120      1.0  0.30567  0.66939  0.60251  1.0000
  H   H121      1.0  0.30541  0.75488  0.66236  1.0000
  C   C81       1.0  0.36198  0.65111  0.69688  1.0000
  H   H122      1.0  0.13123  0.91699  0.60794  1.0000
  S   S36       1.0  0.26522  0.63001  0.70013  1.0000
  H   H123      1.0  0.12962  0.90372  0.71466  1.0000
  H   H124      1.0  0.09289  0.83973  0.69384  1.0000
  C   C82       1.0  0.39978  0.68316  0.69635  1.0000
  Fe  Fe19      1.0  0.11808  0.75548  0.71314  1.0000
  S   S37       1.0  0.10330  0.81392  0.73957  1.0000
  H   H125      1.0  0.43740  0.66938  0.69193  1.0000
  H   H126      1.0  0.33055  0.78956  0.70955  1.0000
  N   N7        1.0  0.07277  0.91667  0.69102  1.0000
  C   C83       1.0  0.20376  0.80679  0.74373  1.0000
  H   H127      1.0  0.23462  0.76510  0.63785  1.0000
  H   H128      1.0  0.20646  0.79948  0.72612  1.0000
  H   H129      1.0  0.26453  0.73245  0.71155  1.0000
  Fe  Fe20      1.0  0.19033  0.67075  0.69733  1.0000
  C   C84       1.0  0.38828  0.73321  0.70057  1.0000
  S   S38       1.0  0.43371  0.77478  0.69878  1.0000
  H   H130      1.0  0.11473  0.96705  0.70864  1.0000
  C   C85       1.0  0.31285  0.66915  0.70169  1.0000
  H   H131      1.0  0.37062  0.61256  0.69304  1.0000
  S   S39       1.0  0.13300  0.67913  0.72499  1.0000
  C   C86       1.0  0.33939  0.75092  0.70595  1.0000
  C   C87       1.0  0.05955  0.95167  0.67344  1.0000
  Fe  Fe21      1.0  0.51195  0.74391  0.70300  1.0000
  H   H132      1.0  0.48185  0.68195  0.76211  1.0000
  C   C88       1.0  0.30185  0.71882  0.70676  1.0000
  H   H133      1.0  0.28285  0.79992  0.74725  1.0000
  S   S40       1.0  0.18006  0.74929  0.68742  1.0000
  H   H134      1.0  0.45267  0.76903  0.76534  1.0000
  C   C89       1.0  0.11890  0.92943  0.70121  1.0000
  C   C90       1.0  0.44340  0.67384  0.75846  1.0000
  C   C91       1.0  0.41451  0.75923  0.76219  1.0000
  H   H135      1.0  0.35084  0.69800  0.74622  1.0000
  C   C92       1.0  0.15738  0.81664  0.75449  1.0000
  H   H136      1.0  0.43862  0.63578  0.76370  1.0000
  H   H137      1.0  0.15037  0.92765  0.68875  1.0000
  H   H138      1.0  0.44027  0.67482  0.74012  1.0000
  C   C93       1.0  0.35610  0.69727  0.76437  1.0000
  C   C94       1.0  0.05903  0.89970  0.61982  1.0000
  C   C95       1.0  0.08039  0.86668  0.68129  1.0000
  H   H139      1.0  0.40906  0.76260  0.74414  1.0000
  H   H140      1.0  0.08917  0.95107  0.66012  1.0000
  H   H141      1.0  0.10890  0.86431  0.66746  1.0000
  S   S41       1.0  0.53800  0.66502  0.70748  1.0000
  S   S42       1.0  0.06024  0.73801  0.68934  1.0000
  C   C96       1.0  0.05304  0.81584  0.63129  1.0000
  H   H142      1.0  0.05327  0.98988  0.68007  1.0000
  S   S43       1.0  0.54996  0.77099  0.73258  1.0000
  H   H143      1.0  0.06400  0.64159  0.75874  1.0000
  H   H144      1.0  0.46304  0.90830  0.85957  1.0000
  S   S44       1.0  0.29890  0.81547  0.79324  1.0000
  S   S45       1.0  0.54248  0.99901  0.89915  1.0000
  C   C97       1.0  0.19764  0.82706  0.78933  1.0000
  C   C98       1.0  0.24408  0.81674  0.77856  1.0000
  H   H145      1.0  0.40562  0.67051  0.80042  1.0000
  H   H146      1.0  0.19506  0.83562  0.80684  1.0000
  C   C99       1.0  0.10441  0.75806  0.84474  1.0000
  H   H147      1.0  0.08990  0.91572  0.92061  1.0000
  C   C100      1.0  0.15431  0.82758  0.77726  1.0000
  H   H148      1.0  0.10142  0.71730  0.77132  1.0000
  H   H149      1.0  0.05473  0.81316  0.83033  1.0000
  H   H150      1.0  0.11904  0.85271  0.86618  1.0000
  C   C101      1.0  0.06511  0.83123  0.90218  1.0000
  H   H151      1.0  0.47128  0.63183  0.92038  1.0000
  C   C102      1.0  0.47797  0.85225  0.99251  1.0000
  C   C103      1.0  0.49249  0.81101  0.89212  1.0000
  C   C104      1.0  0.06540  0.69688  0.86595  1.0000
  Fe  Fe22      1.0  0.28896  0.79434  0.82862  1.0000
  C   C105      1.0  0.48927  0.81313  0.85230  1.0000
  C   C106      1.0  0.07114  0.72219  0.78434  1.0000
  H   H152      1.0  0.09423  0.90868  0.87966  1.0000
  N   N8        1.0  0.40647  0.70943  0.76978  1.0000
  H   H153      1.0  0.49253  0.83530  0.83714  1.0000
  H   H154      1.0  0.11856  0.83579  0.78564  1.0000
  C   C107      1.0  0.10850  0.71678  0.85804  1.0000
  H   H155      1.0  0.06506  0.76214  0.78819  1.0000
  H   H156      1.0  0.15210  0.78347  0.88854  1.0000
  C   C108      1.0  0.41179  0.62251  0.85148  1.0000
  H   H157      1.0  0.51843  0.77736  0.89091  1.0000
  H   H158      1.0  0.50681  0.65054  0.88332  1.0000
  S   S46       1.0  0.34138  0.81663  0.85390  1.0000
  S   S47       1.0  0.47437  0.91026  0.93884  1.0000
  N   N9        1.0  0.50330  0.88363  0.00786  1.0000
  Fe  Fe23      1.0  0.34316  0.73879  0.86455  1.0000
  S   S48       1.0  0.27938  0.75213  0.88924  1.0000
  H   H159      1.0  0.50158  0.84220  0.97735  1.0000
  Fe  Fe24      1.0  0.23166  0.73616  0.86070  1.0000
  Fe  Fe25      1.0  0.27436  0.82841  0.87658  1.0000
  S   S49       1.0  0.26419  0.89489  0.89883  1.0000
  H   H160      1.0  0.06826  0.66463  0.87606  1.0000
  C   C109      1.0  0.41197  0.70741  0.79403  1.0000
  S   S50       1.0  0.41835  0.70885  0.87500  1.0000
  H   H161      1.0  0.05788  0.81132  0.91772  1.0000
  N   N10       1.0  0.49798  0.84192  0.87252  1.0000
  H   H162      1.0  0.45159  0.79972  0.85297  1.0000
  C   C110      1.0  0.32096  0.90023  0.91136  1.0000
  C   C111      1.0  0.34888  0.85817  0.91796  1.0000
  C   C112      1.0  0.39494  0.86196  0.92735  1.0000
  C   C113      1.0  0.41425  0.90756  0.92931  1.0000
  C   C114      1.0  0.38660  0.94967  0.92257  1.0000
  C   C115      1.0  0.33956  0.94608  0.91394  1.0000
  H   H163      1.0  0.33473  0.82268  0.91603  1.0000
  H   H164      1.0  0.41608  0.82932  0.93261  1.0000
  H   H165      1.0  0.40135  0.98500  0.92394  1.0000
  H   H166      1.0  0.31825  0.97865  0.90867  1.0000
  H   H167      1.0  0.08476  0.70405  0.79958  1.0000
  S   S51       1.0  0.22140  0.81417  0.85024  1.0000
  S   S52       1.0  0.16671  0.69073  0.86582  1.0000
  H   H168      1.0  0.38813  0.78737  0.77064  1.0000
  H   H169      1.0  0.38482  0.73438  0.80293  1.0000
  H   H170      1.0  0.46837  0.81783  0.00049  1.0000
  Fe  Fe26      1.0  0.50784  0.98117  0.93210  1.0000
  C   C116      1.0  0.43952  0.64977  0.86551  1.0000
  C   C117      1.0  0.48630  0.59876  0.92912  1.0000
  C   C118      1.0  0.46150  0.88512  0.87448  1.0000
  N   N11       1.0  0.11458  0.85034  0.90176  1.0000
  C   C119      1.0  0.12217  0.87691  0.88098  1.0000
  C   C120      1.0  0.11836  0.88410  0.92089  1.0000
  H   H171      1.0  0.13719  0.77232  0.83767  1.0000
  H   H172      1.0  0.37653  0.63796  0.84594  1.0000
  H   H173      1.0  0.40865  0.01158  0.01179  1.0000
  H   H174      1.0  0.11338  0.86522  0.93689  1.0000
  S   S53       1.0  0.29629  0.71486  0.83709  1.0000
  H   H175      1.0  0.54102  0.91997  0.98186  1.0000
  C   C121      1.0  0.15301  0.80911  0.90296  1.0000
  C   C122      1.0  0.48493  0.62935  0.87271  1.0000
  H   H176      1.0  0.14792  0.78748  0.91817  1.0000
  H   H177      1.0  0.32719  0.72379  0.77230  1.0000
  H   H178      1.0  0.46841  0.90872  0.88905  1.0000
  H   H179      1.0  0.49986  0.83112  0.90766  1.0000
  H   H180      1.0  0.45427  0.79902  0.89385  1.0000
  H   H181      1.0  0.48142  0.94860  0.99001  1.0000
  H   H182      1.0  0.19076  0.82227  0.90309  1.0000
  C   C123      1.0  0.50195  0.58130  0.86654  1.0000
  H   H183      1.0  0.38904  0.62380  0.93706  1.0000
  H   H184      1.0  0.44977  0.71583  0.79866  1.0000
  H   H185      1.0  0.06167  0.80498  0.88812  1.0000
  C   C124      1.0  0.51524  0.92862  0.99642  1.0000
  N   N12       1.0  0.44726  0.56559  0.93415  1.0000
  C   C125      1.0  0.54861  0.85833  0.87128  1.0000
  H   H186      1.0  0.44307  0.87154  0.98676  1.0000
  H   H187      1.0  0.42291  0.87425  0.87660  1.0000
  H   H188      1.0  0.41830  0.60848  0.96258  1.0000
  C   C126      1.0  0.42964  0.57471  0.84475  1.0000
  H   H189      1.0  0.15956  0.89116  0.87998  1.0000
  H   H190      1.0  0.15544  0.89911  0.92083  1.0000
  H   H191      1.0  0.50359  0.61113  0.94448  1.0000
  H   H192      1.0  0.51617  0.78025  0.85033  1.0000
  C   C127      1.0  0.05761  0.78076  0.84033  1.0000
  C   C128      1.0  0.40576  0.59289  0.94678  1.0000
  H   H193      1.0  0.41382  0.57635  0.90258  1.0000
  H   H194      1.0  0.53264  0.95440  0.00765  1.0000
  H   H195      1.0  0.34857  0.66013  0.77004  1.0000
  H   H196      1.0  0.37584  0.56878  0.95104  1.0000
  H   H197      1.0  0.51658  0.58019  0.91828  1.0000
  H   H198      1.0  0.53622  0.56570  0.87276  1.0000
  C   C129      1.0  0.54948  0.85699  0.01500  1.0000
  H   H199      1.0  0.40816  0.55354  0.83394  1.0000
  C   C130      1.0  0.47459  0.55387  0.85246  1.0000
  H   H200      1.0  0.85553  0.32517  0.09514  1.0000
  H   H201      1.0  0.91018  0.29678  0.08093  1.0000
  H   H202      1.0  0.71639  0.17041  0.15010  1.0000
  H   H203      1.0  0.71394  0.46765  0.15334  1.0000
  H   H204      1.0  0.04500  0.25146  0.21553  1.0000
  C   C131      1.0  0.98811  0.27970  0.17610  1.0000
  C   C132      1.0  0.99804  0.23094  0.16893  1.0000
  Fe  Fe27      1.0  0.78650  0.27274  0.15677  1.0000
  S   S54       1.0  0.76480  0.30246  0.12369  1.0000
  S   S55       1.0  0.81746  0.19427  0.15497  1.0000
  C   C133      1.0  0.02534  0.31231  0.17436  1.0000
  H   H205      1.0  0.01003  0.18617  0.23749  1.0000
  H   H206      1.0  0.63075  0.15476  0.22143  1.0000
  H   H207      1.0  0.92279  0.23719  0.11143  1.0000
  H   H208      1.0  0.65732  0.20886  0.21242  1.0000
  H   H209      1.0  0.57006  0.21946  0.02194  1.0000
  C   C134      1.0  0.61803  0.07566  0.15360  1.0000
  H   H210      1.0  0.98465  0.35271  0.10719  1.0000
  C   C135      1.0  0.68696  0.45608  0.12067  1.0000
  C   C136      1.0  0.71221  0.44180  0.13967  1.0000
  C   C137      1.0  0.73535  0.39422  0.14103  1.0000
  C   C138      1.0  0.73398  0.36122  0.12318  1.0000
  C   C139      1.0  0.70863  0.37547  0.10423  1.0000
  C   C140      1.0  0.68474  0.42267  0.10305  1.0000
  S   S56       1.0  0.82993  0.20179  0.20840  1.0000
  H   H211      1.0  0.75494  0.38345  0.15570  1.0000
  H   H212      1.0  0.70770  0.35003  0.09035  1.0000
  H   H213      1.0  0.63102  0.37513  0.14723  1.0000
  H   H214      1.0  0.91662  0.34841  0.14790  1.0000
  C   C141      1.0  0.64798  0.08283  0.17165  1.0000
  C   C142      1.0  0.78169  0.29552  0.26168  1.0000
  H   H215      1.0  0.99000  0.28823  0.10042  1.0000
  H   H216      1.0  0.90520  0.36151  0.08718  1.0000
  H   H217      1.0  0.99195  0.30869  0.12869  1.0000
  C   C143      1.0  0.70450  0.17362  0.24782  1.0000
  H   H218      1.0  0.86644  0.26479  0.12437  1.0000
  C   C144      1.0  0.68928  0.14375  0.15115  1.0000
  H   H219      1.0  0.92211  0.25948  0.13949  1.0000
  N   N13       1.0  0.91942  0.31573  0.11517  1.0000
  C   C145      1.0  0.89972  0.35396  0.13150  1.0000
  C   C146      1.0  0.97384  0.31644  0.11270  1.0000
  C   C147      1.0  0.89671  0.32524  0.09361  1.0000
  C   C148      1.0  0.90717  0.26720  0.12292  1.0000
  H   H220      1.0  0.85876  0.35384  0.13404  1.0000
  H   H221      1.0  0.90750  0.39116  0.12599  1.0000
  H   H222      1.0  0.66574  0.43362  0.08826  1.0000
  Fe  Fe28      1.0  0.60058  0.52570  0.09356  1.0000
  C   C149      1.0  0.65987  0.13605  0.13302  1.0000
  C   C150      1.0  0.68397  0.11657  0.17033  1.0000
  H   H223      1.0  0.72078  0.17579  0.26442  1.0000
  S   S57       1.0  0.65835  0.51569  0.11925  1.0000
  H   H224      1.0  0.01796  0.34983  0.18024  1.0000
  S   S58       1.0  0.60661  0.54932  0.05808  1.0000
  S   S59       1.0  0.73448  0.26235  0.18571  1.0000
  H   H225      1.0  0.61823  0.14060  0.26183  1.0000
  Fe  Fe29      1.0  0.87411  0.21870  0.17788  1.0000
  C   C151      1.0  0.63360  0.19411  0.22574  1.0000
  C   C152      1.0  0.55912  0.35978  0.11927  1.0000
  C   C153      1.0  0.65888  0.25270  0.25253  1.0000
  S   S60       1.0  0.95324  0.18852  0.17168  1.0000
  S   S61       1.0  0.84678  0.29817  0.17753  1.0000
  S   S62       1.0  0.72274  0.12405  0.19248  1.0000
  C   C154      1.0  0.04499  0.21505  0.15986  1.0000
  Fe  Fe30      1.0  0.77014  0.18576  0.18555  1.0000
  H   H226      1.0  0.59249  0.37332  0.11087  1.0000
  S   S63       1.0  0.59110  0.09006  0.11058  1.0000
  H   H227      1.0  0.62241  0.27429  0.25185  1.0000
  H   H228      1.0  0.56373  0.31905  0.11848  1.0000
  H   H229      1.0  0.66483  0.15648  0.11804  1.0000
  H   H230      1.0  0.95233  0.29200  0.18356  1.0000
  S   S64       1.0  0.78280  0.32815  0.23692  1.0000
  H   H231      1.0  0.58010  0.44805  0.13489  1.0000
  Fe  Fe31      1.0  0.79800  0.27961  0.20656  1.0000
  H   H232      1.0  0.59351  0.37519  0.17233  1.0000
  H   H233      1.0  0.60236  0.32095  0.15488  1.0000
  H   H234      1.0  0.68504  0.26861  0.24050  1.0000
  H   H235      1.0  0.83416  0.23684  0.25006  1.0000
  C   C155      1.0  0.59673  0.36164  0.15481  1.0000
  N   N14       1.0  0.65478  0.20015  0.24775  1.0000
  C   C156      1.0  0.62462  0.10162  0.13412  1.0000
  Fe  Fe32      1.0  0.55262  0.49283  0.05206  1.0000
  H   H236      1.0  0.59590  0.21325  0.22506  1.0000
  H   H237      1.0  0.73058  0.18902  0.23563  1.0000
  H   H238      1.0  0.64323  0.06232  0.18662  1.0000
  S   S65       1.0  0.55894  0.43970  0.02306  1.0000
  H   H239      1.0  0.70328  0.13421  0.24327  1.0000
  H   H240      1.0  0.04932  0.19909  0.25987  1.0000
  H   H241      1.0  0.04589  0.16587  0.20031  1.0000
  C   C157      1.0  0.04744  0.17738  0.24416  1.0000
  C   C158      1.0  0.80784  0.24964  0.26305  1.0000
  N   N15       1.0  0.55267  0.37846  0.14241  1.0000
  H   H242      1.0  0.05053  0.13796  0.24844  1.0000
  C   C159      1.0  0.62228  0.18018  0.26496  1.0000
  H   H243      1.0  0.58450  0.19961  0.26554  1.0000
  H   H244      1.0  0.74236  0.45929  0.50195  1.0000
  S   S66       1.0  0.74899  0.19585  0.31868  1.0000
  C   C160      1.0  0.02179  0.35856  0.38512  1.0000
  C   C161      1.0  0.84127  0.10106  0.35263  1.0000
  C   C162      1.0  0.76633  0.23676  0.29842  1.0000
  C   C163      1.0  0.74399  0.28460  0.29818  1.0000
  C   C164      1.0  0.78877  0.05926  0.32849  1.0000
  H   H245      1.0  0.88141  0.38130  0.36201  1.0000
  H   H246      1.0  0.71978  0.29860  0.31182  1.0000
  H   H247      1.0  0.02037  0.19315  0.40093  1.0000
  H   H248      1.0  0.03595  0.06583  0.42211  1.0000
  H   H249      1.0  0.67287  0.25848  0.26937  1.0000
  S   S67       1.0  0.62292  0.28023  0.32559  1.0000
  C   C165      1.0  0.75154  0.31396  0.27975  1.0000
  Fe  Fe33      1.0  0.68150  0.22660  0.33835  1.0000
  S   S68       1.0  0.93248  0.05538  0.47889  1.0000
  H   H250      1.0  0.76816  0.42651  0.39474  1.0000
  H   H251      1.0  0.04449  0.34083  0.37169  1.0000
  H   H252      1.0  0.74392  0.37787  0.36247  1.0000
  C   C166      1.0  0.72076  0.49188  0.50973  1.0000
  H   H253      1.0  0.97111  0.15380  0.40573  1.0000
  H   H254      1.0  0.83203  0.13702  0.34483  1.0000
  H   H255      1.0  0.75464  0.33940  0.39894  1.0000
  Fe  Fe34      1.0  0.63234  0.22485  0.38401  1.0000
  H   H256      1.0  0.03145  0.08432  0.45081  1.0000
  S   S69       1.0  0.63766  0.19410  0.41802  1.0000
  H   H257      1.0  0.85159  0.10812  0.37001  1.0000
  C   C167      1.0  0.01191  0.15570  0.40592  1.0000
  H   H258      1.0  0.61024  0.44189  0.51368  1.0000
  C   C168      1.0  0.79455  0.33044  0.39425  1.0000
  Fe  Fe35      1.0  0.86593  0.52620  0.47295  1.0000
  H   H259      1.0  0.84513  0.43878  0.49898  1.0000
  Fe  Fe36      1.0  0.77613  0.49966  0.44922  1.0000
  S   S70       1.0  0.71051  0.45591  0.45446  1.0000
  C   C169      1.0  0.80004  0.22013  0.28134  1.0000
  C   C170      1.0  0.64492  0.45306  0.50557  1.0000
  S   S71       1.0  0.89994  0.52327  0.50622  1.0000
  C   C171      1.0  0.65185  0.41628  0.38735  1.0000
  C   C172      1.0  0.66649  0.46333  0.39131  1.0000
  C   C173      1.0  0.68340  0.47609  0.41214  1.0000
  C   C174      1.0  0.68540  0.44187  0.42905  1.0000
  C   C175      1.0  0.66924  0.39535  0.42532  1.0000
  C   C176      1.0  0.65279  0.38244  0.40443  1.0000
  H   H260      1.0  0.66539  0.48967  0.37816  1.0000
  C   C177      1.0  0.80744  0.41568  0.38980  1.0000
  H   H261      1.0  0.67055  0.36887  0.43841  1.0000
  H   H262      1.0  0.64100  0.34622  0.40154  1.0000
  N   N16       1.0  0.81300  0.36678  0.37888  1.0000
  H   H263      1.0  0.78682  0.33112  0.34998  1.0000
  H   H264      1.0  0.72152  0.15130  0.44072  1.0000
  S   S72       1.0  0.85058  0.45977  0.45298  1.0000
  C   C178      1.0  0.73340  0.07650  0.42865  1.0000
  Fe  Fe37      1.0  0.87465  0.50239  0.42371  1.0000
  S   S73       1.0  0.57010  0.27949  0.37585  1.0000
  H   H265      1.0  0.66574  0.41958  0.49814  1.0000
  N   N17       1.0  0.79946  0.06977  0.35184  1.0000
  C   C179      1.0  0.70862  0.12356  0.42988  1.0000
  C   C180      1.0  0.96327  0.40483  0.41983  1.0000
  H   H266      1.0  0.63742  0.18402  0.28178  1.0000
  H   H267      1.0  0.02889  0.12979  0.39290  1.0000
  H   H268      1.0  0.82929  0.41656  0.40504  1.0000
  C   C181      1.0  0.99493  0.36319  0.42384  1.0000
  S   S74       1.0  0.69188  0.26811  0.36974  1.0000
  H   H269      1.0  0.00657  0.09309  0.34140  1.0000
  C   C182      1.0  0.66773  0.13493  0.41684  1.0000
  H   H270      1.0  0.55375  0.17075  0.39144  1.0000
  H   H271      1.0  0.77921  0.09359  0.31947  1.0000
  H   H272      1.0  0.94172  0.42292  0.43339  1.0000
  C   C183      1.0  0.98946  0.39994  0.38105  1.0000
  S   S75       1.0  0.91857  0.47384  0.39314  1.0000
  H   H273      1.0  0.73225  0.35004  0.27907  1.0000
  Fe  Fe38      1.0  0.56927  0.23622  0.34395  1.0000
  H   H274      1.0  0.61923  0.10713  0.39299  1.0000
  H   H275      1.0  0.81876  0.18377  0.28179  1.0000
  H   H276      1.0  0.01754  0.21763  0.44047  1.0000
  H   H277      1.0  0.72284  0.07319  0.36263  1.0000
  H   H278      1.0  0.02303  0.17190  0.46140  1.0000
  H   H279      1.0  0.81518  0.32932  0.40987  1.0000
  H   H280      1.0  0.76187  0.10328  0.38097  1.0000
  H   H281      1.0  0.69472  0.51245  0.41512  1.0000
  H   H282      1.0  0.98732  0.41398  0.36444  1.0000
  N   N18       1.0  0.03131  0.14369  0.42790  1.0000
  C   C184      1.0  0.96019  0.42314  0.39843  1.0000
  H   H283      1.0  0.74459  0.13103  0.35540  1.0000
  H   H284      1.0  0.79827  0.29298  0.38662  1.0000
  S   S76       1.0  0.79838  0.53621  0.41804  1.0000
  H   H285      1.0  0.87491  0.08336  0.34368  1.0000
  H   H286      1.0  0.82043  0.44427  0.37866  1.0000
  Fe  Fe39      1.0  0.62913  0.31852  0.35842  1.0000
  C   C185      1.0  0.03128  0.07508  0.35294  1.0000
  C   C186      1.0  0.65089  0.09886  0.40300  1.0000
  S   S77       1.0  0.62749  0.17814  0.35352  1.0000
  S   S78       1.0  0.63526  0.39924  0.36073  1.0000
  C   C187      1.0  0.78399  0.36758  0.35858  1.0000
  H   H287      1.0  0.79689  0.39457  0.34658  1.0000
  H   H288      1.0  0.87161  0.31743  0.36421  1.0000
  C   C188      1.0  0.01865  0.09413  0.43403  1.0000
  C   C189      1.0  0.86592  0.35362  0.37299  1.0000
  H   H289      1.0  0.97790  0.09122  0.43431  1.0000
  C   C190      1.0  0.02442  0.34014  0.40655  1.0000
  H   H290      1.0  0.99712  0.34923  0.44045  1.0000
  H   H291      1.0  0.88865  0.35182  0.38801  1.0000
  C   C191      1.0  0.75526  0.09546  0.36320  1.0000
  H   H292      1.0  0.96791  0.17917  0.44581  1.0000
  H   H293      1.0  0.76514  0.06794  0.43865  1.0000
  C   C192      1.0  0.00894  0.17974  0.44464  1.0000
  H   H294      1.0  0.63451  0.47700  0.49146  1.0000
  H   H295      1.0  0.71185  0.51754  0.49610  1.0000
  C   C193      1.0  0.96438  0.54216  0.64694  1.0000
  Fe  Fe40      1.0  0.80861  0.42105  0.65497  1.0000
  S   S79       1.0  0.89027  0.40948  0.65965  1.0000
  S   S80       1.0  0.76077  0.44320  0.68516  1.0000
  Fe  Fe41      1.0  0.81926  0.39975  0.60573  1.0000
  S   S81       1.0  0.90166  0.38613  0.60631  1.0000
  S   S82       1.0  0.78600  0.39266  0.57250  1.0000
  Fe  Fe42      1.0  0.88645  0.34435  0.63703  1.0000
  S   S83       1.0  0.93215  0.27436  0.64361  1.0000
  Fe  Fe43      1.0  0.89719  0.45239  0.62875  1.0000
  N   N19       1.0  0.67522  0.47818  0.52138  1.0000
  S   S84       1.0  0.80390  0.35226  0.63469  1.0000
  S   S85       1.0  0.81586  0.46968  0.62576  1.0000
  H   H296      1.0  0.76798  0.13961  0.62106  1.0000
  C   C194      1.0  0.81708  0.42927  0.55403  1.0000
  C   C195      1.0  0.84042  0.46938  0.56196  1.0000
  H   H297      1.0  0.99673  0.42544  0.58619  1.0000
  H   H298      1.0  0.83940  0.47801  0.57949  1.0000
  C   C196      1.0  0.71984  0.49307  0.67838  1.0000
  H   H299      1.0  0.84507  0.08138  0.57421  1.0000
  H   H300      1.0  0.96660  0.17303  0.64059  1.0000
  H   H301      1.0  0.91972  0.50251  0.66939  1.0000
  H   H302      1.0  0.86392  0.18648  0.58301  1.0000
  H   H303      1.0  0.83484  0.19308  0.61017  1.0000
  H   H304      1.0  0.71165  0.46283  0.55186  1.0000
  C   C197      1.0  0.81669  0.11040  0.56934  1.0000
  C   C198      1.0  0.85360  0.13561  0.65539  1.0000
  C   C199      1.0  0.82702  0.18150  0.65793  1.0000
  C   C200      1.0  0.85036  0.22431  0.65360  1.0000
  C   C201      1.0  0.90081  0.22139  0.64742  1.0000
  C   C202      1.0  0.92749  0.17549  0.64523  1.0000
  C   C203      1.0  0.90380  0.13261  0.64891  1.0000
  H   H305      1.0  0.78811  0.18383  0.66292  1.0000
  H   H306      1.0  0.82927  0.25933  0.65523  1.0000
  H   H307      1.0  0.95996  0.32737  0.71661  1.0000
  H   H308      1.0  0.91982  0.37775  0.70727  1.0000
  C   C204      1.0  0.67928  0.54211  0.65026  1.0000
  H   H309      1.0  0.73124  0.16664  0.57468  1.0000
  H   H310      1.0  0.66885  0.54272  0.54237  1.0000
  H   H311      1.0  0.87305  0.13842  0.60263  1.0000
  C   C205      1.0  0.76457  0.18255  0.58108  1.0000
  C   C206      1.0  0.77918  0.11592  0.60625  1.0000
  C   C207      1.0  0.97860  0.40997  0.54296  1.0000
  C   C208      1.0  0.84441  0.32547  0.69671  1.0000
  H   H312      1.0  0.96819  0.50951  0.54044  1.0000
  C   C209      1.0  0.89829  0.25738  0.70877  1.0000
  N   N20       1.0  0.80139  0.14386  0.58826  1.0000
  H   H313      1.0  0.75203  0.20823  0.59506  1.0000
  C   C210      1.0  0.86472  0.49899  0.54717  1.0000
  H   H314      1.0  0.92780  0.24456  0.72014  1.0000
  C   C211      1.0  0.70675  0.49934  0.65638  1.0000
  S   S86       1.0  0.94708  0.51243  0.62278  1.0000
  H   H315      1.0  0.78494  0.09145  0.56312  1.0000
  H   H316      1.0  0.71784  0.47119  0.64402  1.0000
  C   C212      1.0  0.94569  0.53004  0.66786  1.0000
  C   C213      1.0  0.81848  0.41857  0.53126  1.0000
  H   H317      1.0  0.03147  0.51827  0.54515  1.0000
  H   H318      1.0  0.80122  0.38709  0.52507  1.0000
  S   S87       1.0  0.82326  0.08249  0.65993  1.0000
  C   C214      1.0  0.84521  0.16645  0.59634  1.0000
  H   H319      1.0  0.93899  0.42418  0.54352  1.0000
  H   H320      1.0  0.65517  0.43392  0.54889  1.0000
  H   H321      1.0  0.83299  0.12994  0.55520  1.0000
  H   H322      1.0  0.61213  0.51396  0.53945  1.0000
  H   H323      1.0  0.81114  0.30516  0.70009  1.0000
  H   H324      1.0  0.89809  0.31188  0.74644  1.0000
  H   H325      1.0  0.80574  0.08604  0.61190  1.0000
  H   H326      1.0  0.94224  0.32903  0.68827  1.0000
  H   H327      1.0  0.92463  0.09726  0.64712  1.0000
  C   C215      1.0  0.70315  0.52857  0.69453  1.0000
  H   H328      1.0  0.74597  0.09835  0.60078  1.0000
  C   C216      1.0  0.92865  0.33739  0.70571  1.0000
  H   H329      1.0  0.91261  0.24780  0.69158  1.0000
  H   H330      1.0  0.83255  0.36525  0.69868  1.0000
  H   H331      1.0  0.67012  0.54722  0.63311  1.0000
  C   C217      1.0  0.86839  0.32229  0.73475  1.0000
  H   H332      1.0  0.88217  0.53031  0.55340  1.0000
  H   H333      1.0  0.78029  0.20458  0.56762  1.0000
  H   H334      1.0  0.83544  0.30263  0.73961  1.0000
  H   H335      1.0  0.85620  0.31851  0.67904  1.0000
  H   H336      1.0  0.85782  0.36223  0.73725  1.0000
  H   H337      1.0  0.86577  0.23590  0.71203  1.0000
  N   N21       1.0  0.88494  0.31061  0.71151  1.0000
  H   H338      1.0  0.71311  0.52376  0.71159  1.0000
  C   C218      1.0  0.68854  0.44509  0.53967  1.0000
  N   N22       1.0  0.01014  0.44609  0.55234  1.0000
  C   C219      1.0  0.86643  0.48812  0.52440  1.0000
  H   H339      1.0  0.98095  0.37540  0.55239  1.0000
  H   H340      1.0  0.01526  0.48334  0.52128  1.0000
  H   H341      1.0  0.74549  0.50977  0.52115  1.0000
  C   C220      1.0  0.00630  0.49116  0.53922  1.0000
  H   H342      1.0  0.95392  0.47307  0.57665  1.0000
  H   H343      1.0  0.71031  0.41108  0.53342  1.0000
  C   C221      1.0  0.99346  0.45814  0.57553  1.0000
  H   H344      1.0  0.01543  0.48628  0.58308  1.0000
  H   H345      1.0  0.94741  0.54323  0.70319  1.0000
  C   C222      1.0  0.64676  0.52284  0.53049  1.0000
  H   H346      1.0  0.63617  0.54861  0.51708  1.0000
  H   H347      1.0  0.98923  0.40083  0.52528  1.0000
  C   C223      1.0  0.84321  0.44794  0.51646  1.0000
  H   H348      1.0  0.78654  0.51125  0.82340  1.0000
  C   C224      1.0  0.66077  0.16551  0.89573  1.0000
  H   H349      1.0  0.82614  0.49581  0.90267  1.0000
  C   C225      1.0  0.79497  0.50786  0.84070  1.0000
  C   C226      1.0  0.58748  0.54310  0.97825  1.0000
  H   H350      1.0  0.70637  0.50617  0.79962  1.0000
  N   N23       1.0  0.66724  0.14400  0.87307  1.0000
  C   C227      1.0  0.57510  0.52013  0.99807  1.0000
  N   N24       1.0  0.62689  0.51905  0.80024  1.0000
  H   H351      1.0  0.60562  0.25379  0.96469  1.0000
  H   H352      1.0  0.66426  0.16852  0.83945  1.0000
  H   H353      1.0  0.68713  0.21133  0.85877  1.0000
  S   S88       1.0  0.61154  0.54394  0.93377  1.0000
  Fe  Fe44      1.0  0.55740  0.46333  0.86580  1.0000
  H   H354      1.0  0.63387  0.09121  0.85280  1.0000
  S   S89       1.0  0.58537  0.31715  0.91681  1.0000
  H   H355      1.0  0.74650  0.14504  0.87275  1.0000
  S   S90       1.0  0.73101  0.43576  0.84202  1.0000
  C   C228      1.0  0.77412  0.47223  0.85351  1.0000
  H   H356      1.0  0.64776  0.44159  0.80031  1.0000
  H   H357      1.0  0.59194  0.12514  0.87214  1.0000
  H   H358      1.0  0.62460  0.30337  0.98137  1.0000
  S   S91       1.0  0.66588  0.41999  0.90268  1.0000
  C   C229      1.0  0.81741  0.49932  0.88540  1.0000
  C   C230      1.0  0.59463  0.46452  0.95895  1.0000
  Fe  Fe45      1.0  0.59718  0.38241  0.89588  1.0000
  S   S92       1.0  0.62234  0.50702  0.87073  1.0000
  C   C231      1.0  0.71762  0.11919  0.87004  1.0000
  Fe  Fe46      1.0  0.66663  0.43489  0.86625  1.0000
  H   H359      1.0  0.72395  0.10282  0.85306  1.0000
  C   C232      1.0  0.83567  0.53700  0.87299  1.0000
  C   C233      1.0  0.78563  0.46774  0.87582  1.0000
  H   H360      1.0  0.77016  0.43980  0.88569  1.0000
  C   C234      1.0  0.63040  0.10793  0.86977  1.0000
  S   S93       1.0  0.58214  0.09387  0.92556  1.0000
  S   S94       1.0  0.60216  0.39159  0.85895  1.0000
  C   C235      1.0  0.58246  0.44160  0.97874  1.0000
  Fe  Fe47      1.0  0.61375  0.48759  0.90629  1.0000
  C   C236      1.0  0.59747  0.51524  0.95870  1.0000
  H   H361      1.0  0.72358  0.08877  0.88195  1.0000
  H   H362      1.0  0.62220  0.18200  0.89905  1.0000
  H   H363      1.0  0.60226  0.44265  0.94396  1.0000
  C   C237      1.0  0.62382  0.52000  0.77585  1.0000
  C   C238      1.0  0.67619  0.53261  0.80665  1.0000
  C   C239      1.0  0.57305  0.46927  0.99836  1.0000
  H   H364      1.0  0.63480  0.07754  0.88168  1.0000
  H   H365      1.0  0.66868  0.13736  0.90847  1.0000
  H   H366      1.0  0.56724  0.54180  0.01311  1.0000
  H   H367      1.0  0.68593  0.19499  0.89839  1.0000
  H   H368      1.0  0.67958  0.53276  0.82499  1.0000
  H   H369      1.0  0.62291  0.46696  0.82615  1.0000
  C   C240      1.0  0.61949  0.46923  0.80794  1.0000
  H   H370      1.0  0.57779  0.32984  0.01585  1.0000
  H   H371      1.0  0.62230  0.20262  0.85882  1.0000
  H   H372      1.0  0.58088  0.40236  0.97885  1.0000
  C   C241      1.0  0.66005  0.18331  0.85677  1.0000
  H   H373      1.0  0.60417  0.19959  0.99703  1.0000
  C   C242      1.0  0.59175  0.23257  0.00752  1.0000
  H   H374      1.0  0.55555  0.29077  0.87225  1.0000
  H   H375      1.0  0.58201  0.45826  0.80410  1.0000
  C   C243      1.0  0.82516  0.54067  0.85052  1.0000
  H   H376      1.0  0.58728  0.50939  0.77048  1.0000
  C   C244      1.0  0.59183  0.28516  0.97584  1.0000
  H   H377      1.0  0.65318  0.49457  0.76752  1.0000
  H   H378      1.0  0.56996  0.31189  0.96560  1.0000
  N   N25       1.0  0.56175  0.26910  0.99488  1.0000
  H   H379      1.0  0.62530  0.24799  0.01392  1.0000
  H   H380      1.0  0.76066  0.89152  0.13268  1.0000
  H   H381      1.0  0.71452  0.02289  0.14078  1.0000
  H   H382      1.0  0.64926  0.90886  0.14427  1.0000
  H   H383      1.0  0.64662  0.93985  0.10593  1.0000
  C   C245      1.0  0.60048  0.75285  0.09348  1.0000
  C   C246      1.0  0.57770  0.80037  0.09202  1.0000
  N   N26       1.0  0.70434  0.95028  0.12860  1.0000
  H   H384      1.0  0.65163  0.96988  0.15542  1.0000
  H   H385      1.0  0.75729  0.91444  0.10498  1.0000
  C   C247      1.0  0.73668  0.98894  0.13466  1.0000
  H   H386      1.0  0.63153  0.74594  0.10408  1.0000
  C   C248      1.0  0.58266  0.71396  0.08155  1.0000
  H   H387      1.0  0.76189  0.97705  0.14803  1.0000
  H   H388      1.0  0.69875  0.92296  0.16172  1.0000
  C   C249      1.0  0.67086  0.96839  0.11125  1.0000
  C   C250      1.0  0.67473  0.93741  0.14838  1.0000
  H   H389      1.0  0.59992  0.67716  0.08297  1.0000
  H   H390      1.0  0.64632  0.00065  0.11733  1.0000
  H   H391      1.0  0.75989  0.99931  0.12018  1.0000
  S   S95       1.0  0.59912  0.84831  0.10765  1.0000
  H   H392      1.0  0.69171  0.97983  0.09628  1.0000
  H   H393      1.0  0.71107  0.87654  0.11546  1.0000
  C   C251      1.0  0.73482  0.90627  0.12006  1.0000
  H   H394      1.0  0.58974  0.05032  0.15484  1.0000
  H   H395      1.0  0.56928  0.87976  0.02668  1.0000
  H   H396      1.0  0.96132  0.64037  0.35461  1.0000
  H   H397      1.0  0.90891  0.62641  0.33894  1.0000
  Fe  Fe48      1.0  0.90855  0.01242  0.44972  1.0000
  S   S96       1.0  0.86002  0.95010  0.45269  1.0000
  H   H398      1.0  0.82931  0.61289  0.35838  1.0000
  H   H399      1.0  0.87630  0.85288  0.47547  1.0000
  S   S97       1.0  0.87989  0.93311  0.39879  1.0000
  Fe  Fe49      1.0  0.82705  0.97912  0.42152  1.0000
  S   S98       1.0  0.74744  0.98190  0.41242  1.0000
  Fe  Fe50      1.0  0.91734  0.91019  0.42986  1.0000
  S   S99       1.0  0.94820  0.83432  0.43806  1.0000
  C   C252      1.0  0.71632  0.04041  0.41490  1.0000
  Fe  Fe51      1.0  0.81905  0.59678  0.44045  1.0000
  H   H400      1.0  0.95340  0.64707  0.39579  1.0000
  C   C253      1.0  0.90519  0.79015  0.43634  1.0000
  C   C254      1.0  0.91733  0.74303  0.44414  1.0000
  C   C255      1.0  0.88317  0.70737  0.44310  1.0000
  C   C256      1.0  0.83719  0.71847  0.43382  1.0000
  C   C257      1.0  0.82483  0.76582  0.42633  1.0000
  C   C258      1.0  0.85864  0.80174  0.42772  1.0000
  H   H401      1.0  0.93263  0.58634  0.39622  1.0000
  H   H402      1.0  0.78914  0.77469  0.41927  1.0000
  H   H403      1.0  0.84883  0.83821  0.42190  1.0000
  C   C259      1.0  0.84975  0.60729  0.37389  1.0000
  H   H404      1.0  0.86272  0.79981  0.49067  1.0000
  S   S100      1.0  0.96839  0.97055  0.42900  1.0000
  H   H405      1.0  0.95315  0.73417  0.45106  1.0000
  H   H406      1.0  0.89265  0.67128  0.44932  1.0000
  S   S101      1.0  0.95090  0.03040  0.36825  1.0000
  C   C260      1.0  0.87854  0.68828  0.37291  1.0000
  S   S102      1.0  0.89728  0.56545  0.44405  1.0000
  H   H407      1.0  0.66120  0.02342  0.39182  1.0000
  H   H408      1.0  0.89564  0.63670  0.40947  1.0000
  H   H409      1.0  0.82340  0.61874  0.38800  1.0000
  H   H410      1.0  0.92578  0.81416  0.48621  1.0000
  Fe  Fe52      1.0  0.92536  0.99750  0.40000  1.0000
  H   H411      1.0  0.03370  0.98849  0.39252  1.0000
  C   C261      1.0  0.92746  0.61996  0.35489  1.0000
  N   N27       1.0  0.89400  0.63541  0.37408  1.0000
  H   H412      1.0  0.85924  0.69707  0.35735  1.0000
  C   C262      1.0  0.01392  0.04049  0.36742  1.0000
  H   H413      1.0  0.93970  0.58015  0.35547  1.0000
  S   S103      1.0  0.79574  0.67330  0.43002  1.0000
  H   H414      1.0  0.91078  0.71085  0.37372  1.0000
  C   C263      1.0  0.85085  0.02629  0.50118  1.0000
  H   H415      1.0  0.85998  0.56728  0.37536  1.0000
  C   C264      1.0  0.92020  0.62591  0.39477  1.0000
  H   H416      1.0  0.95684  0.88417  0.50534  1.0000
  S   S104      1.0  0.78949  0.56333  0.47127  1.0000
  H   H417      1.0  0.81948  0.02980  0.38084  1.0000
  H   H418      1.0  0.78212  0.99839  0.36259  1.0000
  H   H419      1.0  0.85247  0.70061  0.38700  1.0000
  C   C265      1.0  0.88726  0.83038  0.48993  1.0000
  C   C266      1.0  0.81254  0.02328  0.36307  1.0000
  H   H420      1.0  0.84676  0.00353  0.35545  1.0000
  S   S105      1.0  0.87011  0.04544  0.42072  1.0000
  H   H421      1.0  0.82140  0.03958  0.31955  1.0000
  H   H422      1.0  0.82150  0.90751  0.50079  1.0000
  H   H423      1.0  0.75706  0.03616  0.32729  1.0000
  C   C267      1.0  0.91794  0.89938  0.50886  1.0000
  H   H424      1.0  0.90798  0.92478  0.49526  1.0000
  C   C268      1.0  0.04635  0.01652  0.38192  1.0000
  H   H425      1.0  0.83251  0.02997  0.48561  1.0000
  C   C269      1.0  0.89969  0.03841  0.50271  1.0000
  N   N28       1.0  0.88374  0.86019  0.51065  1.0000
  C   C270      1.0  0.67457  0.05142  0.40238  1.0000
  H   H426      1.0  0.80543  0.85372  0.51504  1.0000
  C   C271      1.0  0.83239  0.88218  0.51431  1.0000
  H   H427      1.0  0.87954  0.65022  0.66881  1.0000
  C   C272      1.0  0.72222  0.79980  0.68132  1.0000
  Fe  Fe53      1.0  0.86402  0.90641  0.63434  1.0000
  S   S106      1.0  0.90793  0.90748  0.60213  1.0000
  S   S107      1.0  0.84457  0.83326  0.64666  1.0000
  Fe  Fe54      1.0  0.94998  0.96219  0.61996  1.0000
  H   H428      1.0  0.03121  0.78764  0.63780  1.0000
  Fe  Fe55      1.0  0.85602  0.97214  0.59439  1.0000
  S   S108      1.0  0.81626  0.98170  0.56257  1.0000
  S   S109      1.0  0.91025  0.95648  0.65293  1.0000
  S   S110      1.0  0.80797  0.96640  0.62504  1.0000
  H   H429      1.0  0.76579  0.68649  0.63809  1.0000
  H   H430      1.0  0.70658  0.86939  0.75379  1.0000
  C   C273      1.0  0.03074  0.86317  0.62817  1.0000
  H   H431      1.0  0.02506  0.94273  0.66533  1.0000
  C   C274      1.0  0.00874  0.72733  0.75672  1.0000
  H   H432      1.0  0.73228  0.77429  0.72827  1.0000
  H   H433      1.0  0.78752  0.00064  0.51851  1.0000
  H   H434      1.0  0.87679  0.59699  0.63541  1.0000
  H   H435      1.0  0.84349  0.64524  0.62113  1.0000
  C   C275      1.0  0.84205  0.66687  0.66483  1.0000
  S   S111      1.0  0.63332  0.63316  0.65765  1.0000
  H   H436      1.0  0.91587  0.01357  0.55727  1.0000
  C   C276      1.0  0.92276  0.03489  0.52309  1.0000
  C   C277      1.0  0.76492  0.79681  0.66740  1.0000
  H   H437      1.0  0.82791  0.90358  0.53020  1.0000
  H   H438      1.0  0.74065  0.62818  0.64031  1.0000
  N   N29       1.0  0.81302  0.63106  0.65356  1.0000
  C   C278      1.0  0.99500  0.58906  0.68520  1.0000
  C   C279      1.0  0.79098  0.83816  0.66396  1.0000
  C   C280      1.0  0.74649  0.85662  0.75109  1.0000
  S   S112      1.0  0.90238  0.02746  0.60903  1.0000
  C   C281      1.0  0.84881  0.00484  0.54001  1.0000
  H   H439      1.0  0.75524  0.85976  0.73304  1.0000
  H   H440      1.0  0.99182  0.87141  0.63245  1.0000
  C   C282      1.0  0.76339  0.65424  0.64888  1.0000
  H   H441      1.0  0.83448  0.81256  0.76226  1.0000
  Fe  Fe56      1.0  0.85831  0.01708  0.64047  1.0000
  S   S113      1.0  0.64944  0.70436  0.71365  1.0000
  H   H442      1.0  0.84757  0.69904  0.65425  1.0000
  H   H443      1.0  0.03706  0.63108  0.66266  1.0000
  C   C283      1.0  0.89747  0.01763  0.54173  1.0000
  S   S114      1.0  0.57312  0.75926  0.67882  1.0000
  C   C284      1.0  0.73493  0.63939  0.76339  1.0000
  C   C285      1.0  0.67502  0.57123  0.68844  1.0000
  H   H444      1.0  0.77727  0.76276  0.65895  1.0000
  S   S115      1.0  0.01689  0.61586  0.70915  1.0000
  H   H445      1.0  0.82315  0.68091  0.68064  1.0000
  C   C286      1.0  0.66387  0.57833  0.66621  1.0000
  H   H446      1.0  0.97426  0.71307  0.75067  1.0000
  C   C287      1.0  0.73222  0.88542  0.68885  1.0000
  H   H447      1.0  0.81817  0.75088  0.75842  1.0000
  H   H448      1.0  0.89492  0.85039  0.54543  1.0000
  C   C288      1.0  0.77446  0.88261  0.67457  1.0000
  C   C289      1.0  0.89735  0.82884  0.52951  1.0000
  S   S116      1.0  0.03265  0.95970  0.61711  1.0000
  C   C290      1.0  0.99682  0.57912  0.64514  1.0000
  H   H449      1.0  0.79446  0.91470  0.67193  1.0000
  H   H450      1.0  0.01073  0.58929  0.62898  1.0000
  Fe  Fe57      1.0  0.58177  0.69354  0.73491  1.0000
  H   H451      1.0  0.96066  0.04407  0.52429  1.0000
  Fe  Fe58      1.0  0.60300  0.68254  0.68577  1.0000
  H   H452      1.0  0.00098  0.63309  0.76625  1.0000
  H   H453      1.0  0.67352  0.62349  0.74362  1.0000
  H   H454      1.0  0.76264  0.62561  0.75096  1.0000
  C   C291      1.0  0.80766  0.58867  0.66799  1.0000
  C   C292      1.0  0.03215  0.91864  0.70813  1.0000
  S   S117      1.0  0.65530  0.84698  0.71118  1.0000
  H   H455      1.0  0.71967  0.91973  0.69718  1.0000
  H   H456      1.0  0.70187  0.76792  0.68362  1.0000
  C   C293      1.0  0.68457  0.63859  0.75918  1.0000
  H   H457      1.0  0.87231  0.79885  0.53138  1.0000
  C   C294      1.0  0.01199  0.60262  0.66423  1.0000
  H   H458      1.0  0.04073  0.89231  0.72156  1.0000
  C   C295      1.0  0.96104  0.55341  0.68700  1.0000
  H   H459      1.0  0.81869  0.79105  0.73526  1.0000
  H   H460      1.0  0.00176  0.76754  0.75970  1.0000
  C   C296      1.0  0.70610  0.84401  0.69223  1.0000
  Fe  Fe59      1.0  0.61367  0.77972  0.70879  1.0000
  C   C297      1.0  0.80943  0.78942  0.75336  1.0000
  H   H461      1.0  0.81870  0.58661  0.62367  1.0000
  C   C298      1.0  0.72515  0.77344  0.74652  1.0000
  C   C299      1.0  0.83907  0.61427  0.63250  1.0000
  H   H462      1.0  0.73185  0.73486  0.75159  1.0000
  H   H463      1.0  0.66278  0.59891  0.70085  1.0000
  H   H464      1.0  0.91725  0.92171  0.52446  1.0000
  H   H465      1.0  0.68507  0.78467  0.74978  1.0000
  H   H466      1.0  0.76872  0.88241  0.76005  1.0000
  H   H467      1.0  0.93596  0.81174  0.52728  1.0000
  C   C300      1.0  0.82536  0.00994  0.51983  1.0000
  H   H468      1.0  0.74222  0.66693  0.66439  1.0000
  H   H469      1.0  0.78700  0.59967  0.68382  1.0000
  H   H470      1.0  0.04556  0.85468  0.67458  1.0000
  N   N30       1.0  0.75681  0.80576  0.75839  1.0000
  H   H471      1.0  0.84433  0.57068  0.67219  1.0000
  H   H472      1.0  0.99681  0.90922  0.70091  1.0000
  H   H473      1.0  0.02554  0.95579  0.71594  1.0000
  H   H474      1.0  0.78698  0.56046  0.65976  1.0000
  H   H475      1.0  0.03720  0.72180  0.74298  1.0000
  Fe  Fe60      1.0  0.82568  0.68899  0.82191  1.0000
  S   S118      1.0  0.81210  0.66705  0.78693  1.0000
  H   H476      1.0  0.59257  0.59222  0.80521  1.0000
  N   N31       1.0  0.02527  0.70223  0.77695  1.0000
  C   C301      1.0  0.74941  0.65968  0.78331  1.0000
  C   C302      1.0  0.71349  0.67720  0.79941  1.0000
  C   C303      1.0  0.66307  0.67580  0.79530  1.0000
  H   H477      1.0  0.55622  0.88004  0.88639  1.0000
  H   H478      1.0  0.72438  0.69361  0.81468  1.0000
  H   H479      1.0  0.63533  0.69060  0.80751  1.0000
  C   C304      1.0  0.66348  0.85164  0.89986  1.0000
  H   H480      1.0  0.74645  0.61208  0.95291  1.0000
  H   H481      1.0  0.62832  0.55722  0.76948  1.0000
  H   H482      1.0  0.68231  0.60816  0.94761  1.0000
  H   H483      1.0  0.70665  0.55995  0.91323  1.0000
  S   S119      1.0  0.57583  0.99136  0.95116  1.0000
  H   H484      1.0  0.70539  0.66699  0.95205  1.0000
  S   S120      1.0  0.82102  0.76740  0.83332  1.0000
  C   C305      1.0  0.03478  0.64915  0.77209  1.0000
  S   S121      1.0  0.89976  0.66814  0.83565  1.0000
  C   C306      1.0  0.98622  0.71030  0.79468  1.0000
  H   H485      1.0  0.77090  0.56515  0.91823  1.0000
  C   C307      1.0  0.65662  0.90200  0.90473  1.0000
  H   H486      1.0  0.58929  0.58236  0.97814  1.0000
  H   H487      1.0  0.76860  0.82805  0.79203  1.0000
  C   C308      1.0  0.73773  0.58357  0.91063  1.0000
  H   H488      1.0  0.74597  0.58466  0.89244  1.0000
  H   H489      1.0  0.75477  0.76571  0.78860  1.0000
  H   H490      1.0  0.84005  0.56901  0.84070  1.0000
  S   S122      1.0  0.78297  0.66445  0.85135  1.0000
  S   S123      1.0  0.95655  0.79163  0.84371  1.0000
  S   S124      1.0  0.86641  0.58265  0.88621  1.0000
  N   N32       1.0  0.72570  0.63326  0.92023  1.0000
  H   H491      1.0  0.63541  0.82797  0.90505  1.0000
  Fe  Fe61      1.0  0.85665  0.65083  0.86644  1.0000
  C   C309      1.0  0.01460  0.76154  0.84873  1.0000
  H   H492      1.0  0.77830  0.66490  0.89870  1.0000
  Fe  Fe62      1.0  0.89284  0.74503  0.84935  1.0000
  C   C310      1.0  0.73653  0.91284  0.88708  1.0000
  S   S125      1.0  0.85658  0.72600  0.88183  1.0000
  H   H493      1.0  0.98542  0.70383  0.86767  1.0000
  C   C311      1.0  0.76857  0.66254  0.91663  1.0000
  Fe  Fe63      1.0  0.60769  0.01539  0.91884  1.0000
  H   H494      1.0  0.68991  0.65986  0.89111  1.0000
  H   H495      1.0  0.76073  0.70071  0.92319  1.0000
  H   H496      1.0  0.62331  0.91701  0.91363  1.0000
  Fe  Fe64      1.0  0.78516  0.74099  0.86453  1.0000
  H   H497      1.0  0.64935  0.63539  0.91162  1.0000
  S   S126      1.0  0.71358  0.76870  0.88235  1.0000
  H   H498      1.0  0.03508  0.86114  0.90085  1.0000
  C   C312      1.0  0.68230  0.65676  0.90928  1.0000
  H   H499      1.0  0.97775  0.74999  0.79868  1.0000
  H   H500      1.0  0.76491  0.93645  0.88219  1.0000
  C   C313      1.0  0.69313  0.93270  0.89836  1.0000
  S   S127      1.0  0.68439  0.99588  0.90432  1.0000
  H   H501      1.0  0.77682  0.84718  0.87338  1.0000
  C   C314      1.0  0.74328  0.86238  0.88208  1.0000
  C   C315      1.0  0.70667  0.83179  0.88846  1.0000
  C   C316      1.0  0.01849  0.71905  0.86122  1.0000
  H   H502      1.0  0.80220  0.64577  0.92453  1.0000
  H   H503      1.0  0.67244  0.69459  0.91594  1.0000
  C   C317      1.0  0.74611  0.80339  0.78252  1.0000
  C   C318      1.0  0.71446  0.63008  0.94428  1.0000
  H   H504      1.0  0.04708  0.62895  0.78701  1.0000
  C   C319      1.0  0.64869  0.65760  0.77496  1.0000
  H   H505      1.0  0.95113  0.69525  0.78986  1.0000
  H   H506      1.0  0.58873  0.55401  0.82893  1.0000
  H   H507      1.0  0.57725  0.82675  0.86984  1.0000
  H   H508      1.0  0.70632  0.81397  0.78678  1.0000
  H   H509      1.0  0.57531  0.84667  0.00060  1.0000
  H   H510      1.0  0.99774  0.69246  0.81032  1.0000
  H   H511      1.0  0.68358  0.56963  0.80078  1.0000
  H   H512      1.0  0.55407  0.88199  0.85676  1.0000
  C   C320      1.0  0.58799  0.55417  0.81053  1.0000
  S   S128      1.0  0.58611  0.66116  0.76868  1.0000
