data_image0
_chemical_formula_structural       CFeSHFeSCFeHFeSCSHC3NH4CHCHC4HC3H2S2HCH2CHC2H4CHCH4CNH2SHSHC2H2CHCNC2SHC2Fe2SH5S2NH2C3H5CSHNHC2H4C2H4CH4CH5FeHS2FeHCH3FeH2FeCS2FeSHSCSHSFeSH2C6H6C2SCHCHCH4CH4CH7CHNCHFeH3C2HCHFeC2H2SHFeHCNCHCNC4S2C3H2SFeSFeSFe2SCH2SCSH3C2HCH3SH2FeSCFeSHFeSFeS3H2CHC4H5CH4CHCH7CHCNH2CHCH2NHSCHFeSC3HCH3SHCHCNHCH3C3H6CHC3HCH7FeHSC2FeSHC3NSCSHC3HSHCH4CH2SCH6SHFeSC5HNHFeH2CH2CH3S2CSCHC2H4CH2FeH6SCH3FeCH7S2FeSC7HCFeCFeCSH3C2HC2HC2SCSH10SH3FeCHFe2S2FeSFeH2CHCSHCHCSCH3SCH2SCH5C6S3HCHCH3CH2SCH2NHSH2C2H4C2NCH4SH2CHCNC3H2CH2CSH4CSHC2SH4C2H2CH3C2H3CS2CNCHC2HSH3C2H2NH3CH2CHSCFeHCFeHSH5SC2HCSCHC7SH4FeNHNC4H8CH3SC2SHSH2CH4SNH5CH2S2HFeHSHCH5CH7C2SH2C2H2FeHC2SNH3CH2C2FeSFeSCFeSFeS2HCSH3FeSHCHCHC8H5CHNCHSFeHC3HCH2SHCHC3HSH2C4H2C2NH3CH3CSCH2NH2CH2C2HCNH6CSH3NH2SH4CH5FeHSH2CFe2HSH3NCH2SHCH2C2HFeSH2CHC3H2FeSHCHCFeCFeSH2SHFeSFeCSH2CSC6H3CH5S2H3C2H3CNCH2CNSHFeSCHNCHCHC2H2NC4HCH9CHNSH2SCSC2SHCH3CFeC4H4CH4CHCH2CH2CH3C2NCH3CHCHCHCH2CHSFeSHFeSHFeHFeSHSCHCSCHCH2C4H4CH4NCHCH5SH2SCHC2H3NCH2CSH2CSCNCSH2SH2CHCH2C2H2CSCH2CH2FeCHCSH2FeHSC2H3C2HNH2FeHCFeCH2C2HCSH5CHCHCHCH2C2H2Fe2SFeSCFeSFeS3CSCHFeSH2CH3NHCH2C2H2C6H5C2HSNCH5CH3SHCSCH3C2H2NHC3HSH3CSNH2C2H2FeSHCHSHC2HCHCH3SFeCH3C3HCH6CH3SCHC2H2FeHC3HCSH3SHC3H5SFeS2FeSHFeNFeHS2HC2H3CH2CHCFeHC2H2C2FeC6H2C2HNSNCHC3H2SHCNSCH4SH4SCHCH3CHCH2S2FeCFeH3CSHSCH2SC2S2H2CHC2H5SH2C3HC2HFeH3CHCHCH3FeH2SCHC2FeSHNFeH2SC2HCHSCH4SH3CSC5H3C3SHCH3C2SHCH6CH3CNH2C3H2SCSC3HSHNFeH3CHCHFeH3FeH2C3FeHNCSHFeHNS3C6H4SFeSCH4CH3CSH5CHCH6CFeCH2S3FeHC4HFeCH4CFeSH2FeHCSCSH2C2NH2NCFeCSCHCS2H2FeSHSC2H4C6H3C2H2CSFeH2S2H2CH9NHCHNHCHSCSCHFeHFeCNHSHC3H3CH3C2HSHCHSH3CFeSCFeSCFeSFeHS2H3FeS2H3CH5C3NH5FeH2CNH4C2HC2NFeCHCH3CSHC2HC3SH2CH2CH2CH2FeH3CHC4HCH2CHSH3C3S2HCS2H2C5H2CH2CHCHCHCH2NFe2SCFeSHCFeSHCSFeHFeSH2SH5C2HSNC6H4SHS3H9Fe2C2HSH4C2H2FeH8CFeH3S2HFeSHC3H2C2H4NH2CSCHCHSH4CH2FeSCFeHSFeHFeCS3HCH2C2NHCHSC3HCH4C3HSHC2H2NCHSH6CHCH3C4H2SHCHC2
_chemical_formula_sum              "C640 Fe128 S256 H1024 N64"
_cell_length_a       31.0823
_cell_length_b       25.9279
_cell_length_c       67.4962
_cell_angle_alpha    89.6254
_cell_angle_beta     89.8112
_cell_angle_gamma    89.8378

_space_group_name_H-M_alt    "P 1"
_space_group_IT_number       1

loop_
  _space_group_symop_operation_xyz
  'x, y, z'

loop_
  _atom_site_type_symbol
  _atom_site_label
  _atom_site_symmetry_multiplicity
  _atom_site_fract_x
  _atom_site_fract_y
  _atom_site_fract_z
  _atom_site_occupancy
  C   C1        1.0  0.55673  0.45500  0.14291  1.0000
  Fe  Fe1       1.0  0.50703  0.57225  0.20139  1.0000
  S   S1        1.0  0.50085  0.49543  0.18666  1.0000
  H   H1        1.0  0.29508  0.70638  0.21449  1.0000
  Fe  Fe2       1.0  0.56087  0.53083  0.23508  1.0000
  S   S2        1.0  0.56041  0.44997  0.22349  1.0000
  C   C2        1.0  0.12869  0.63458  0.02395  1.0000
  Fe  Fe3       1.0  0.57088  0.48675  0.19367  1.0000
  H   H2        1.0  0.44556  0.62814  0.08591  1.0000
  Fe  Fe4       1.0  0.49087  0.46529  0.21741  1.0000
  S   S3        1.0  0.43913  0.40811  0.22425  1.0000
  C   C3        1.0  0.53287  0.34180  0.19249  1.0000
  S   S4        1.0  0.49011  0.54314  0.23166  1.0000
  H   H3        1.0  0.27425  0.69171  0.07190  1.0000
  C   C4        1.0  0.32468  0.46497  0.24164  1.0000
  C   C5        1.0  0.39925  0.67570  0.22455  1.0000
  C   C6        1.0  0.39206  0.44499  0.22525  1.0000
  N   N1        1.0  0.50237  0.31832  0.17846  1.0000
  H   H4        1.0  0.52156  0.65553  0.08815  1.0000
  H   H5        1.0  0.38564  0.55833  0.14346  1.0000
  H   H6        1.0  0.41642  0.50420  0.20573  1.0000
  H   H7        1.0  0.20476  0.72129  0.05810  1.0000
  C   C7        1.0  0.32457  0.51396  0.23279  1.0000
  H   H8        1.0  0.29976  0.45418  0.25192  1.0000
  C   C8        1.0  0.35669  0.52692  0.21913  1.0000
  H   H9        1.0  0.24862  0.63537  0.08185  1.0000
  C   C9        1.0  0.40265  0.59345  0.14696  1.0000
  C   C10       1.0  0.47340  0.35862  0.17046  1.0000
  C   C11       1.0  0.55378  0.39439  0.11569  1.0000
  C   C12       1.0  0.53663  0.43675  0.12578  1.0000
  H   H10       1.0  0.15865  0.62262  0.03072  1.0000
  C   C13       1.0  0.51301  0.52519  0.08414  1.0000
  C   C14       1.0  0.29050  0.73530  0.01902  1.0000
  C   C15       1.0  0.32233  0.68232  0.21995  1.0000
  H   H11       1.0  0.50719  0.45458  0.12068  1.0000
  H   H12       1.0  0.16818  0.49972  0.24432  1.0000
  S   S5        1.0  0.52727  0.37030  0.09484  1.0000
  S   S6        1.0  0.59236  0.55888  0.26286  1.0000
  H   H13       1.0  0.45957  0.59061  0.06468  1.0000
  C   C16       1.0  0.37074  0.71627  0.19511  1.0000
  H   H14       1.0  0.54554  0.32357  0.15362  1.0000
  H   H15       1.0  0.54423  0.51408  0.09103  1.0000
  C   C17       1.0  0.59389  0.43077  0.15006  1.0000
  H   H16       1.0  0.54369  0.48805  0.15049  1.0000
  C   C18       1.0  0.22899  0.76104  0.09306  1.0000
  C   C19       1.0  0.35809  0.43009  0.23761  1.0000
  H   H17       1.0  0.27892  0.67687  0.09778  1.0000
  H   H18       1.0  0.42964  0.56322  0.17408  1.0000
  H   H19       1.0  0.35629  0.56402  0.21181  1.0000
  H   H20       1.0  0.60584  0.33950  0.11444  1.0000
  C   C20       1.0  0.25637  0.67638  0.08497  1.0000
  H   H21       1.0  0.53551  0.61597  0.06753  1.0000
  C   C21       1.0  0.39072  0.49282  0.21560  1.0000
  H   H22       1.0  0.17558  0.44422  0.19356  1.0000
  H   H23       1.0  0.37124  0.67909  0.18697  1.0000
  H   H24       1.0  0.21604  0.41036  0.20760  1.0000
  H   H25       1.0  0.46941  0.55127  0.11750  1.0000
  C   C22       1.0  0.59181  0.37137  0.12240  1.0000
  N   N2        1.0  0.49912  0.57723  0.09037  1.0000
  H   H26       1.0  0.43199  0.56137  0.08549  1.0000
  H   H27       1.0  0.55559  0.31264  0.19866  1.0000
  S   S7        1.0  0.57829  0.56647  0.20581  1.0000
  H   H28       1.0  0.51703  0.52310  0.06777  1.0000
  S   S8        1.0  0.28681  0.56088  0.23965  1.0000
  H   H29       1.0  0.57927  0.69132  0.02074  1.0000
  C   C23       1.0  0.36403  0.75852  0.22676  1.0000
  C   C24       1.0  0.42784  0.59604  0.16417  1.0000
  H   H30       1.0  0.17889  0.51447  0.21881  1.0000
  H   H31       1.0  0.48904  0.49529  0.08850  1.0000
  C   C25       1.0  0.45727  0.58968  0.08116  1.0000
  H   H32       1.0  0.18458  0.64443  0.10373  1.0000
  C   C26       1.0  0.49464  0.57852  0.11219  1.0000
  N   N3        1.0  0.16134  0.43548  0.22461  1.0000
  C   C27       1.0  0.18841  0.70546  0.07154  1.0000
  C   C28       1.0  0.11492  0.44505  0.22159  1.0000
  S   S9        1.0  0.44895  0.73993  0.09021  1.0000
  H   H33       1.0  0.59059  0.34220  0.06145  1.0000
  C   C29       1.0  0.39974  0.63625  0.13426  1.0000
  C   C30       1.0  0.53141  0.61572  0.08394  1.0000
  Fe  Fe5       1.0  0.38509  0.70000  0.09217  1.0000
  Fe  Fe6       1.0  0.44176  0.72986  0.05751  1.0000
  S   S10       1.0  0.38087  0.68430  0.05975  1.0000
  H   H34       1.0  0.32077  0.64481  0.21210  1.0000
  H   H35       1.0  0.51562  0.35973  0.20518  1.0000
  H   H36       1.0  0.45452  0.37740  0.18249  1.0000
  H   H37       1.0  0.31661  0.67422  0.23597  1.0000
  H   H38       1.0  0.21528  0.68542  0.11977  1.0000
  S   S11       1.0  0.37006  0.63292  0.11229  1.0000
  S   S12       1.0  0.47983  0.64709  0.19042  1.0000
  N   N4        1.0  0.36408  0.70817  0.21660  1.0000
  H   H39       1.0  0.16633  0.37911  0.20149  1.0000
  H   H40       1.0  0.21753  0.47854  0.23295  1.0000
  C   C31       1.0  0.44602  0.68447  0.15618  1.0000
  C   C32       1.0  0.52661  0.29444  0.16202  1.0000
  C   C33       1.0  0.57732  0.72755  0.02856  1.0000
  H   H41       1.0  0.39462  0.66714  0.24057  1.0000
  H   H42       1.0  0.57898  0.44879  0.26500  1.0000
  H   H43       1.0  0.17824  0.66532  0.06811  1.0000
  H   H44       1.0  0.46244  0.71998  0.15975  1.0000
  H   H45       1.0  0.34483  0.74068  0.18859  1.0000
  C   C34       1.0  0.54049  0.73943  0.03968  1.0000
  S   S13       1.0  0.49709  0.69645  0.04040  1.0000
  H   H46       1.0  0.35878  0.39282  0.24492  1.0000
  N   N5        1.0  0.21707  0.70697  0.08898  1.0000
  H   H47       1.0  0.20180  0.38805  0.24314  1.0000
  C   C35       1.0  0.19445  0.68504  0.10637  1.0000
  C   C36       1.0  0.44959  0.64164  0.16873  1.0000
  H   H48       1.0  0.43104  0.69495  0.22270  1.0000
  H   H49       1.0  0.16491  0.70756  0.10994  1.0000
  H   H50       1.0  0.48519  0.61765  0.11739  1.0000
  H   H51       1.0  0.41927  0.71435  0.12922  1.0000
  C   C37       1.0  0.16717  0.39625  0.24040  1.0000
  C   C38       1.0  0.42152  0.68149  0.13890  1.0000
  H   H52       1.0  0.15149  0.35908  0.23655  1.0000
  H   H53       1.0  0.40191  0.73598  0.19202  1.0000
  H   H54       1.0  0.35977  0.73932  0.01857  1.0000
  H   H55       1.0  0.49186  0.38940  0.16264  1.0000
  C   C39       1.0  0.18076  0.41651  0.20600  1.0000
  H   H56       1.0  0.52529  0.56801  0.11972  1.0000
  H   H57       1.0  0.45018  0.34229  0.15968  1.0000
  H   H58       1.0  0.56339  0.60796  0.09070  1.0000
  H   H59       1.0  0.55255  0.37236  0.18518  1.0000
  C   C40       1.0  0.18243  0.48411  0.23043  1.0000
  H   H60       1.0  0.40147  0.63826  0.21663  1.0000
  H   H61       1.0  0.15282  0.40907  0.25469  1.0000
  H   H62       1.0  0.15871  0.72871  0.07404  1.0000
  H   H63       1.0  0.36028  0.75389  0.24307  1.0000
  H   H64       1.0  0.25069  0.76374  0.10610  1.0000
  Fe  Fe7       1.0  0.34767  0.76075  0.05776  1.0000
  H   H65       1.0  0.13925  0.76376  0.01675  1.0000
  S   S14       1.0  0.34645  0.77284  0.09049  1.0000
  S   S15       1.0  0.28515  0.76767  0.04151  1.0000
  Fe  Fe8       1.0  0.52526  0.28348  0.09565  1.0000
  H   H66       1.0  0.45850  0.29522  0.20156  1.0000
  C   C41       1.0  0.47670  0.27851  0.18886  1.0000
  H   H67       1.0  0.50475  0.27513  0.15139  1.0000
  H   H68       1.0  0.41246  0.50977  0.25851  1.0000
  H   H69       1.0  0.22236  0.72329  0.01572  1.0000
  Fe  Fe9       1.0  0.15096  0.31974  0.45422  1.0000
  H   H70       1.0  0.27655  0.47817  0.44027  1.0000
  H   H71       1.0  0.41929  0.41757  0.26881  1.0000
  Fe  Fe10      1.0  0.17769  0.31268  0.41151  1.0000
  C   C42       1.0  0.40736  0.42939  0.28369  1.0000
  S   S16       1.0  0.15341  0.33539  0.38146  1.0000
  S   S17       1.0  0.28736  0.55979  0.29825  1.0000
  Fe  Fe11      1.0  0.24490  0.32299  0.44335  1.0000
  S   S18       1.0  0.30792  0.35894  0.45149  1.0000
  H   H72       1.0  0.47947  0.52596  0.29082  1.0000
  S   S19       1.0  0.18895  0.37253  0.43466  1.0000
  C   C43       1.0  0.12101  0.47944  0.37397  1.0000
  S   S20       1.0  0.23186  0.46570  0.27740  1.0000
  H   H73       1.0  0.18898  0.48282  0.41327  1.0000
  S   S21       1.0  0.17538  0.73888  0.47597  1.0000
  Fe  Fe12      1.0  0.25794  0.48451  0.30732  1.0000
  S   S22       1.0  0.29606  0.42820  0.32537  1.0000
  H   H74       1.0  0.37163  0.42557  0.28376  1.0000
  H   H75       1.0  0.60422  0.55509  0.36236  1.0000
  C   C44       1.0  0.19408  0.35889  0.36590  1.0000
  C   C45       1.0  0.23689  0.36061  0.37222  1.0000
  C   C46       1.0  0.26886  0.38020  0.35951  1.0000
  C   C47       1.0  0.25781  0.39826  0.34062  1.0000
  C   C48       1.0  0.21515  0.39527  0.33422  1.0000
  C   C49       1.0  0.18327  0.37606  0.34690  1.0000
  H   H76       1.0  0.24538  0.34776  0.38696  1.0000
  H   H77       1.0  0.30181  0.38276  0.36453  1.0000
  H   H78       1.0  0.20666  0.40784  0.31944  1.0000
  H   H79       1.0  0.15027  0.37434  0.34188  1.0000
  H   H80       1.0  0.24987  0.35887  0.48505  1.0000
  H   H81       1.0  0.30111  0.50761  0.49283  1.0000
  C   C50       1.0  0.31694  0.35416  0.47708  1.0000
  C   C51       1.0  0.11510  0.62146  0.51432  1.0000
  S   S23       1.0  0.54291  0.38440  0.50732  1.0000
  C   C52       1.0  0.34968  0.48952  0.46059  1.0000
  H   H82       1.0  0.15376  0.77386  0.28472  1.0000
  C   C53       1.0  0.55826  0.44947  0.50711  1.0000
  H   H83       1.0  0.11366  0.46488  0.42402  1.0000
  C   C54       1.0  0.35907  0.35114  0.48424  1.0000
  H   H84       1.0  0.38593  0.35165  0.47398  1.0000
  H   H85       1.0  0.34517  0.59093  0.45245  1.0000
  H   H86       1.0  0.36592  0.51712  0.27404  1.0000
  H   H87       1.0  0.48366  0.45948  0.29834  1.0000
  C   C55       1.0  0.28994  0.34931  0.51083  1.0000
  H   H88       1.0  0.12778  0.71499  0.33351  1.0000
  H   H89       1.0  0.18345  0.43258  0.39543  1.0000
  H   H90       1.0  0.35402  0.47348  0.44544  1.0000
  H   H91       1.0  0.15784  0.71654  0.29968  1.0000
  C   C56       1.0  0.28238  0.35420  0.49042  1.0000
  H   H92       1.0  0.28806  0.59405  0.44923  1.0000
  H   H93       1.0  0.39926  0.34261  0.50999  1.0000
  H   H94       1.0  0.41109  0.55938  0.27691  1.0000
  H   H95       1.0  0.37938  0.51096  0.46450  1.0000
  H   H96       1.0  0.24318  0.51698  0.45597  1.0000
  H   H97       1.0  0.13751  0.55397  0.41449  1.0000
  H   H98       1.0  0.27645  0.56599  0.48384  1.0000
  C   C57       1.0  0.27287  0.49295  0.45565  1.0000
  H   H99       1.0  0.14737  0.56894  0.38894  1.0000
  N   N6        1.0  0.42067  0.48260  0.28841  1.0000
  C   C58       1.0  0.40531  0.49585  0.30851  1.0000
  H   H100      1.0  0.31984  0.55582  0.43272  1.0000
  Fe  Fe13      1.0  0.18659  0.75153  0.44349  1.0000
  H   H101      1.0  0.25766  0.57372  0.34301  1.0000
  H   H102      1.0  0.26764  0.45885  0.46548  1.0000
  H   H103      1.0  0.20012  0.49526  0.38759  1.0000
  C   C59       1.0  0.30624  0.74970  0.49886  1.0000
  C   C60       1.0  0.33508  0.76312  0.51387  1.0000
  H   H104      1.0  0.42019  0.40113  0.29467  1.0000
  C   C61       1.0  0.58378  0.55312  0.50733  1.0000
  H   H105      1.0  0.33338  0.56351  0.48743  1.0000
  Fe  Fe14      1.0  0.17308  0.50767  0.28754  1.0000
  C   C62       1.0  0.31640  0.56781  0.44847  1.0000
  C   C63       1.0  0.24453  0.59652  0.35494  1.0000
  H   H106      1.0  0.19188  0.76937  0.32565  1.0000
  H   H107      1.0  0.34718  0.45603  0.47090  1.0000
  S   S24       1.0  0.19602  0.51857  0.31854  1.0000
  H   H108      1.0  0.41426  0.53593  0.31257  1.0000
  Fe  Fe15      1.0  0.25575  0.54431  0.26905  1.0000
  H   H109      1.0  0.26421  0.54241  0.37749  1.0000
  C   C64       1.0  0.36662  0.34606  0.50463  1.0000
  N   N7        1.0  0.31104  0.52275  0.46177  1.0000
  C   C65       1.0  0.46815  0.48622  0.28753  1.0000
  H   H110      1.0  0.36959  0.49282  0.30965  1.0000
  C   C66       1.0  0.30525  0.54065  0.48238  1.0000
  N   N8        1.0  0.13293  0.48928  0.39479  1.0000
  C   C67       1.0  0.60667  0.45838  0.27382  1.0000
  C   C68       1.0  0.40172  0.51884  0.27384  1.0000
  C   C69       1.0  0.17832  0.47436  0.39791  1.0000
  C   C70       1.0  0.12743  0.54476  0.39908  1.0000
  S   S25       1.0  0.19479  0.58539  0.27696  1.0000
  S   S26       1.0  0.21519  0.66260  0.32620  1.0000
  C   C71       1.0  0.21220  0.65575  0.38613  1.0000
  C   C72       1.0  0.20837  0.67348  0.36650  1.0000
  C   C73       1.0  0.22380  0.64334  0.35086  1.0000
  H   H111      1.0  0.19965  0.67885  0.39810  1.0000
  H   H112      1.0  0.19273  0.71000  0.36346  1.0000
  S   S27       1.0  0.23155  0.58203  0.41422  1.0000
  Fe  Fe16      1.0  0.13905  0.66906  0.46621  1.0000
  S   S28       1.0  0.19599  0.61603  0.46776  1.0000
  Fe  Fe17      1.0  0.22347  0.59278  0.30717  1.0000
  S   S29       1.0  0.24833  0.70658  0.44295  1.0000
  Fe  Fe18      1.0  0.20652  0.63933  0.43607  1.0000
  Fe  Fe19      1.0  0.23326  0.68746  0.47455  1.0000
  S   S30       1.0  0.14558  0.68541  0.43367  1.0000
  C   C74       1.0  0.23149  0.60793  0.39011  1.0000
  H   H113      1.0  0.41892  0.46931  0.31992  1.0000
  H   H114      1.0  0.13773  0.60157  0.50483  1.0000
  S   S31       1.0  0.60115  0.61714  0.50820  1.0000
  C   C75       1.0  0.24843  0.57889  0.37452  1.0000
  S   S32       1.0  0.28449  0.68740  0.49788  1.0000
  H   H115      1.0  0.48063  0.47614  0.27253  1.0000
  H   H116      1.0  0.59276  0.44448  0.47947  1.0000
  H   H117      1.0  0.12371  0.43775  0.37040  1.0000
  C   C76       1.0  0.59710  0.52074  0.49195  1.0000
  C   C77       1.0  0.58366  0.46910  0.49166  1.0000
  H   H118      1.0  0.14247  0.50065  0.36348  1.0000
  C   C78       1.0  0.13702  0.75044  0.29625  1.0000
  H   H119      1.0  0.11359  0.28574  0.29619  1.0000
  H   H120      1.0  0.18428  0.27989  0.50765  1.0000
  H   H121      1.0  0.60937  0.70052  0.41031  1.0000
  S   S33       1.0  0.20785  0.27493  0.46512  1.0000
  H   H122      1.0  0.20220  0.27461  0.34013  1.0000
  H   H123      1.0  0.42444  0.52950  0.67916  1.0000
  Fe  Fe20      1.0  0.50002  0.37271  0.53372  1.0000
  S   S34       1.0  0.44340  0.42473  0.53894  1.0000
  C   C79       1.0  0.33202  0.34422  0.51792  1.0000
  Fe  Fe21      1.0  0.48754  0.31513  0.57241  1.0000
  S   S35       1.0  0.43076  0.36370  0.58120  1.0000
  H   H124      1.0  0.45266  0.75080  0.54283  1.0000
  Fe  Fe22      1.0  0.41022  0.35338  0.54976  1.0000
  S   S36       1.0  0.34116  0.33434  0.54330  1.0000
  Fe  Fe23      1.0  0.46979  0.43026  0.56974  1.0000
  S   S37       1.0  0.47150  0.50943  0.58338  1.0000
  S   S38       1.0  0.46432  0.30030  0.54157  1.0000
  S   S39       1.0  0.52873  0.38250  0.56381  1.0000
  H   H125      1.0  0.45542  0.67535  0.73980  1.0000
  H   H126      1.0  0.48938  0.45932  0.65830  1.0000
  C   C80       1.0  0.48112  0.49740  0.65158  1.0000
  H   H127      1.0  0.55417  0.54963  0.65950  1.0000
  C   C81       1.0  0.51856  0.52325  0.59656  1.0000
  C   C82       1.0  0.53223  0.54163  0.67221  1.0000
  C   C83       1.0  0.44603  0.28415  0.63960  1.0000
  C   C84       1.0  0.54735  0.48414  0.60198  1.0000
  H   H128      1.0  0.44740  0.49535  0.64615  1.0000
  H   H129      1.0  0.47911  0.62227  0.66669  1.0000
  H   H130      1.0  0.54107  0.44470  0.59790  1.0000
  H   H131      1.0  0.46263  0.56279  0.69436  1.0000
  H   H132      1.0  0.50222  0.50266  0.63838  1.0000
  C   C85       1.0  0.50216  0.69759  0.56821  1.0000
  H   H133      1.0  0.46723  0.49430  0.69104  1.0000
  H   H134      1.0  0.24834  0.75928  0.53759  1.0000
  H   H135      1.0  0.14202  0.31429  0.74993  1.0000
  H   H136      1.0  0.56900  0.62497  0.61796  1.0000
  C   C86       1.0  0.47503  0.58937  0.65632  1.0000
  H   H137      1.0  0.47294  0.32437  0.61452  1.0000
  C   C87       1.0  0.56273  0.58559  0.61384  1.0000
  H   H138      1.0  0.50426  0.60443  0.59828  1.0000
  H   H139      1.0  0.51340  0.73793  0.56590  1.0000
  H   H140      1.0  0.52653  0.46716  0.53468  1.0000
  H   H141      1.0  0.54268  0.50450  0.67903  1.0000
  H   H142      1.0  0.45653  0.76446  0.62228  1.0000
  H   H143      1.0  0.45162  0.60705  0.54052  1.0000
  H   H144      1.0  0.49550  0.59727  0.64310  1.0000
  C   C88       1.0  0.45899  0.53113  0.68336  1.0000
  H   H145      1.0  0.44096  0.58947  0.65133  1.0000
  C   C89       1.0  0.52649  0.57407  0.60239  1.0000
  N   N9        1.0  0.48681  0.53984  0.66585  1.0000
  H   H146      1.0  0.53733  0.57241  0.68336  1.0000
  H   H147      1.0  0.43380  0.75252  0.75906  1.0000
  C   C90       1.0  0.35054  0.27857  0.59989  1.0000
  H   H148      1.0  0.42692  0.69611  0.53175  1.0000
  C   C91       1.0  0.44340  0.70978  0.54535  1.0000
  H   H149      1.0  0.41947  0.70969  0.55767  1.0000
  H   H150      1.0  0.52217  0.76815  0.64291  1.0000
  N   N10       1.0  0.18008  0.76848  0.54220  1.0000
  H   H151      1.0  0.43150  0.31838  0.64584  1.0000
  S   S40       1.0  0.56610  0.67782  0.65364  1.0000
  C   C92       1.0  0.58343  0.49565  0.61356  1.0000
  H   H152      1.0  0.11101  0.77073  0.53981  1.0000
  Fe  Fe24      1.0  0.56777  0.67736  0.68673  1.0000
  S   S41       1.0  0.50808  0.66348  0.70492  1.0000
  C   C93       1.0  0.46549  0.71331  0.73494  1.0000
  C   C94       1.0  0.11940  0.61828  0.53498  1.0000
  C   C95       1.0  0.49159  0.71855  0.71807  1.0000
  H   H153      1.0  0.26323  0.34982  0.52112  1.0000
  C   C96       1.0  0.51222  0.67902  0.53354  1.0000
  H   H154      1.0  0.15027  0.73730  0.56851  1.0000
  H   H155      1.0  0.34930  0.30607  0.58715  1.0000
  H   H156      1.0  0.54174  0.65638  0.53698  1.0000
  S   S42       1.0  0.60896  0.74787  0.68909  1.0000
  H   H157      1.0  0.59412  0.65996  0.75521  1.0000
  C   C97       1.0  0.59065  0.54619  0.61987  1.0000
  H   H158      1.0  0.44431  0.62090  0.56637  1.0000
  C   C98       1.0  0.14017  0.76478  0.53045  1.0000
  N   N11       1.0  0.48128  0.67749  0.55021  1.0000
  H   H159      1.0  0.32246  0.28694  0.60962  1.0000
  C   C99       1.0  0.54554  0.48192  0.52256  1.0000
  H   H160      1.0  0.13722  0.72619  0.52352  1.0000
  H   H161      1.0  0.20802  0.73285  0.56805  1.0000
  H   H162      1.0  0.14554  0.59621  0.54140  1.0000
  C   C100      1.0  0.45315  0.75700  0.74583  1.0000
  C   C101      1.0  0.21743  0.75708  0.52935  1.0000
  C   C102      1.0  0.46898  0.28745  0.62173  1.0000
  H   H163      1.0  0.54778  0.55845  0.53454  1.0000
  H   H164      1.0  0.60501  0.46500  0.61815  1.0000
  H   H165      1.0  0.52252  0.71919  0.53007  1.0000
  H   H166      1.0  0.34440  0.73479  0.52488  1.0000
  H   H167      1.0  0.53054  0.67389  0.57253  1.0000
  H   H168      1.0  0.20092  0.29508  0.53235  1.0000
  C   C103      1.0  0.55769  0.53382  0.52251  1.0000
  H   H169      1.0  0.47947  0.69806  0.58102  1.0000
  C   C104      1.0  0.17867  0.73077  0.55871  1.0000
  C   C105      1.0  0.50447  0.76774  0.71189  1.0000
  C   C106      1.0  0.46747  0.62369  0.55378  1.0000
  H   H170      1.0  0.49524  0.59826  0.55750  1.0000
  C   C107      1.0  0.11407  0.29999  0.75782  1.0000
  H   H171      1.0  0.21527  0.71751  0.52309  1.0000
  H   H172      1.0  0.49825  0.66255  0.51979  1.0000
  H   H173      1.0  0.38007  0.28721  0.60854  1.0000
  H   H174      1.0  0.17635  0.69054  0.55316  1.0000
  H   H175      1.0  0.57906  0.76541  0.74608  1.0000
  H   H176      1.0  0.60640  0.58227  0.56473  1.0000
  H   H177      1.0  0.52311  0.77239  0.69849  1.0000
  Fe  Fe25      1.0  0.18023  0.33077  0.83785  1.0000
  H   H178      1.0  0.29842  0.71674  0.92486  1.0000
  S   S43       1.0  0.17378  0.41673  0.83902  1.0000
  C   C108      1.0  0.22823  0.32678  0.90975  1.0000
  C   C109      1.0  0.30350  0.32466  0.90082  1.0000
  Fe  Fe26      1.0  0.17091  0.57419  0.92990  1.0000
  S   S44       1.0  0.18358  0.60034  0.96085  1.0000
  H   H179      1.0  0.29635  0.30746  0.88614  1.0000
  C   C110      1.0  0.26064  0.39995  0.89307  1.0000
  C   C111      1.0  0.15036  0.40378  0.87790  1.0000
  C   C112      1.0  0.16613  0.50693  0.88739  1.0000
  N   N12       1.0  0.26779  0.35795  0.90764  1.0000
  S   S45       1.0  0.23489  0.29165  0.85315  1.0000
  C   C113      1.0  0.17373  0.74158  0.78819  1.0000
  S   S46       1.0  0.19132  0.29054  0.80907  1.0000
  H   H180      1.0  0.17491  0.70227  0.78169  1.0000
  C   C114      1.0  0.14423  0.42103  0.89735  1.0000
  C   C115      1.0  0.27881  0.38054  0.92703  1.0000
  C   C116      1.0  0.33131  0.72634  0.01092  1.0000
  H   H181      1.0  0.30849  0.40438  0.92602  1.0000
  S   S47       1.0  0.22909  0.61276  0.91665  1.0000
  H   H182      1.0  0.25247  0.40607  0.93254  1.0000
  C   C117      1.0  0.16416  0.43819  0.86317  1.0000
  H   H183      1.0  0.23305  0.29326  0.91992  1.0000
  H   H184      1.0  0.33401  0.34670  0.89923  1.0000
  H   H185      1.0  0.18199  0.51664  0.85647  1.0000
  H   H186      1.0  0.13342  0.39442  0.90871  1.0000
  C   C118      1.0  0.17133  0.48994  0.86785  1.0000
  H   H187      1.0  0.26212  0.75982  0.91242  1.0000
  H   H188      1.0  0.17267  0.54669  0.89101  1.0000
  S   S48       1.0  0.15111  0.49146  0.92697  1.0000
  C   C119      1.0  0.15315  0.47228  0.90218  1.0000
  H   H189      1.0  0.11598  0.39115  0.77939  1.0000
  H   H190      1.0  0.14676  0.42572  0.79729  1.0000
  H   H191      1.0  0.20112  0.35008  0.91572  1.0000
  H   H192      1.0  0.21765  0.31090  0.89530  1.0000
  H   H193      1.0  0.30946  0.29217  0.91135  1.0000
  H   H194      1.0  0.28902  0.76904  0.95548  1.0000
  S   S49       1.0  0.35440  0.73348  0.83252  1.0000
  H   H195      1.0  0.15466  0.71690  0.82623  1.0000
  Fe  Fe27      1.0  0.14250  0.66800  0.95253  1.0000
  S   S50       1.0  0.18825  0.73623  0.88647  1.0000
  C   C120      1.0  0.31154  0.73503  0.84962  1.0000
  C   C121      1.0  0.29574  0.68883  0.85766  1.0000
  C   C122      1.0  0.25871  0.68897  0.86966  1.0000
  C   C123      1.0  0.23711  0.73531  0.87340  1.0000
  C   C124      1.0  0.33535  0.70093  0.99273  1.0000
  H   H196      1.0  0.26938  0.73738  0.81246  1.0000
  N   N13       1.0  0.20210  0.74560  0.80565  1.0000
  H   H197      1.0  0.29036  0.42289  0.89048  1.0000
  Fe  Fe28      1.0  0.23743  0.64525  0.94700  1.0000
  H   H198      1.0  0.25009  0.69373  0.79406  1.0000
  H   H199      1.0  0.15887  0.66058  0.99690  1.0000
  C   C125      1.0  0.25785  0.69326  0.99090  1.0000
  H   H200      1.0  0.23537  0.42723  0.89822  1.0000
  H   H201      1.0  0.20921  0.71052  0.83438  1.0000
  C   C126      1.0  0.25380  0.71820  0.00913  1.0000
  H   H202      1.0  0.31455  0.74767  0.90222  1.0000
  H   H203      1.0  0.31143  0.65269  0.85412  1.0000
  H   H204      1.0  0.13033  0.50575  0.97376  1.0000
  S   S51       1.0  0.30324  0.65501  0.95963  1.0000
  S   S52       1.0  0.12565  0.63882  0.92239  1.0000
  C   C127      1.0  0.18806  0.70865  0.82113  1.0000
  S   S53       1.0  0.19750  0.71581  0.94167  1.0000
  C   C128      1.0  0.29858  0.68456  0.98272  1.0000
  H   H205      1.0  0.14444  0.36390  0.87436  1.0000
  C   C129      1.0  0.24688  0.73372  0.79976  1.0000
  C   C130      1.0  0.29645  0.75348  0.91631  1.0000
  H   H206      1.0  0.22953  0.68023  0.98326  1.0000
  H   H207      1.0  0.18913  0.66824  0.81570  1.0000
  H   H208      1.0  0.25008  0.38482  0.87847  1.0000
  H   H209      1.0  0.28428  0.35000  0.93842  1.0000
  C   C131      1.0  0.12883  0.65574  0.00476  1.0000
  H   H210      1.0  0.36690  0.69412  0.98643  1.0000
  H   H211      1.0  0.24590  0.65297  0.87528  1.0000
  Fe  Fe29      1.0  0.18502  0.68043  0.91208  1.0000
  H   H212      1.0  0.36181  0.75065  0.94211  1.0000
  H   H213      1.0  0.18243  0.76345  0.98615  1.0000
  H   H214      1.0  0.25834  0.76032  0.78790  1.0000
  H   H215      1.0  0.18347  0.76930  0.77630  1.0000
  H   H216      1.0  0.13965  0.75032  0.79205  1.0000
  H   H217      1.0  0.59921  0.76076  0.78164  1.0000
  S   S54       1.0  0.13039  0.27545  0.84898  1.0000
  C   C132      1.0  0.11539  0.40627  0.79475  1.0000
  H   H218      1.0  0.11075  0.48496  0.82053  1.0000
  H   H219      1.0  0.11386  0.37263  0.80507  1.0000
  H   H220      1.0  0.11197  0.50640  0.78471  1.0000
  Fe  Fe30      1.0  0.40999  0.81195  0.08544  1.0000
  C   C133      1.0  0.22765  0.03514  0.23371  1.0000
  H   H221      1.0  0.20011  0.78520  0.09621  1.0000
  H   H222      1.0  0.54704  0.05337  0.16909  1.0000
  H   H223      1.0  0.29583  0.90347  0.25129  1.0000
  H   H224      1.0  0.45616  0.02273  0.15643  1.0000
  H   H225      1.0  0.15505  0.15878  0.11432  1.0000
  H   H226      1.0  0.40312  0.95573  0.06759  1.0000
  H   H227      1.0  0.50631  0.86363  0.22739  1.0000
  S   S55       1.0  0.42321  0.88671  0.10101  1.0000
  S   S56       1.0  0.42128  0.89982  0.23522  1.0000
  Fe  Fe31      1.0  0.38255  0.91644  0.20798  1.0000
  S   S57       1.0  0.36142  0.85097  0.18902  1.0000
  C   C134      1.0  0.40516  0.87805  0.12540  1.0000
  C   C135      1.0  0.39714  0.92024  0.13769  1.0000
  C   C136      1.0  0.38240  0.91213  0.15712  1.0000
  C   C137      1.0  0.37652  0.86190  0.16435  1.0000
  C   C138      1.0  0.38372  0.81994  0.15190  1.0000
  C   C139      1.0  0.39799  0.82818  0.13247  1.0000
  C   C140      1.0  0.60901  0.87849  0.25925  1.0000
  H   H228      1.0  0.33727  0.78361  0.22143  1.0000
  C   C141      1.0  0.44357  0.05428  0.01699  1.0000
  Fe  Fe32      1.0  0.15586  0.94956  0.06841  1.0000
  C   C142      1.0  0.11776  0.25154  0.10952  1.0000
  Fe  Fe33      1.0  0.37869  0.95893  0.24911  1.0000
  C   C143      1.0  0.26469  0.11566  0.23853  1.0000
  S   S58       1.0  0.40822  0.80576  0.05228  1.0000
  H   H229      1.0  0.50773  0.05061  0.02900  1.0000
  H   H230      1.0  0.29901  0.97111  0.09399  1.0000
  H   H231      1.0  0.21600  0.90421  0.24933  1.0000
  C   C144      1.0  0.55549  0.91573  0.23724  1.0000
  C   C145      1.0  0.55078  0.82576  0.24714  1.0000
  H   H232      1.0  0.46913  0.00747  0.13110  1.0000
  C   C146      1.0  0.19414  0.97994  0.02118  1.0000
  C   C147      1.0  0.27035  0.96510  0.02577  1.0000
  H   H233      1.0  0.39446  0.77997  0.22388  1.0000
  C   C148      1.0  0.53468  0.86805  0.23640  1.0000
  C   C149      1.0  0.38305  0.98865  0.06227  1.0000
  S   S59       1.0  0.22247  0.97385  0.05962  1.0000
  C   C150      1.0  0.32353  0.04606  0.06945  1.0000
  S   S60       1.0  0.53290  0.97055  0.22598  1.0000
  H   H234      1.0  0.40154  0.95903  0.13224  1.0000
  H   H235      1.0  0.36706  0.97628  0.04839  1.0000
  H   H236      1.0  0.40405  0.79591  0.12296  1.0000
  H   H237      1.0  0.20738  0.81189  0.01693  1.0000
  H   H238      1.0  0.37457  0.94472  0.16631  1.0000
  H   H239      1.0  0.40536  0.02056  0.05839  1.0000
  H   H240      1.0  0.19572  0.11829  0.21458  1.0000
  H   H241      1.0  0.56965  0.85812  0.05605  1.0000
  H   H242      1.0  0.50970  0.79568  0.05838  1.0000
  H   H243      1.0  0.49754  0.24697  0.19475  1.0000
  S   S61       1.0  0.14829  0.25237  0.25876  1.0000
  H   H244      1.0  0.45293  0.26041  0.17877  1.0000
  H   H245      1.0  0.26285  0.15589  0.24414  1.0000
  H   H246      1.0  0.29746  0.95850  0.03538  1.0000
  Fe  Fe34      1.0  0.46079  0.96761  0.22551  1.0000
  C   C151      1.0  0.11927  0.15925  0.11477  1.0000
  H   H247      1.0  0.18072  0.87064  0.02328  1.0000
  Fe  Fe35      1.0  0.38246  0.03142  0.21429  1.0000
  Fe  Fe36      1.0  0.47388  0.18944  0.08365  1.0000
  S   S62       1.0  0.52064  0.13322  0.09713  1.0000
  S   S63       1.0  0.41410  0.16367  0.06791  1.0000
  Fe  Fe37      1.0  0.52225  0.18899  0.12231  1.0000
  S   S64       1.0  0.52999  0.16200  0.15366  1.0000
  Fe  Fe38      1.0  0.57060  0.18462  0.08359  1.0000
  H   H248      1.0  0.30862  0.94261  0.07029  1.0000
  H   H249      1.0  0.29795  0.05697  0.08022  1.0000
  C   C152      1.0  0.53588  0.01280  0.17083  1.0000
  H   H250      1.0  0.15735  0.09586  0.23253  1.0000
  C   C153      1.0  0.48243  0.02273  0.14516  1.0000
  S   S65       1.0  0.36059  0.10463  0.19978  1.0000
  H   H251      1.0  0.27385  0.11774  0.22255  1.0000
  C   C154      1.0  0.50678  0.93762  0.15468  1.0000
  H   H252      1.0  0.51051  0.01266  0.18250  1.0000
  C   C155      1.0  0.39416  0.11133  0.03416  1.0000
  S   S66       1.0  0.42149  0.02593  0.24206  1.0000
  C   C156      1.0  0.46733  0.10214  0.04577  1.0000
  H   H253      1.0  0.55698  0.15228  0.04392  1.0000
  H   H254      1.0  0.51560  0.12210  0.19240  1.0000
  H   H255      1.0  0.43995  0.17713  0.14340  1.0000
  S   S67       1.0  0.52389  0.23673  0.06790  1.0000
  C   C157      1.0  0.57190  0.82164  0.04840  1.0000
  H   H256      1.0  0.34424  0.92911  0.09041  1.0000
  H   H257      1.0  0.37307  0.15631  0.16207  1.0000
  S   S68       1.0  0.13585  0.94722  0.10032  1.0000
  C   C158      1.0  0.42634  0.12382  0.04777  1.0000
  H   H258      1.0  0.36242  0.12817  0.03559  1.0000
  H   H259      1.0  0.53416  0.78915  0.24672  1.0000
  H   H260      1.0  0.35215  0.03431  0.10716  1.0000
  H   H261      1.0  0.44925  0.09929  0.21052  1.0000
  H   H262      1.0  0.56331  0.98970  0.17672  1.0000
  C   C159      1.0  0.40680  0.12650  0.18753  1.0000
  C   C160      1.0  0.40420  0.14947  0.16874  1.0000
  C   C161      1.0  0.44200  0.16114  0.15818  1.0000
  C   C162      1.0  0.48217  0.15096  0.16669  1.0000
  C   C163      1.0  0.48460  0.12976  0.18572  1.0000
  C   C164      1.0  0.44702  0.11691  0.19601  1.0000
  S   S69       1.0  0.33587  0.96962  0.22274  1.0000
  S   S70       1.0  0.57657  0.23565  0.10999  1.0000
  S   S71       1.0  0.13336  0.86953  0.06172  1.0000
  H   H263      1.0  0.39787  0.99513  0.10061  1.0000
  C   C165      1.0  0.55430  0.99510  0.13679  1.0000
  H   H264      1.0  0.37899  0.78102  0.15730  1.0000
  C   C166      1.0  0.47595  0.06740  0.03040  1.0000
  H   H265      1.0  0.49149  0.06362  0.14238  1.0000
  H   H266      1.0  0.58319  0.97261  0.14139  1.0000
  H   H267      1.0  0.56049  0.90378  0.02086  1.0000
  C   C167      1.0  0.37470  0.02434  0.09493  1.0000
  H   H268      1.0  0.54963  0.26472  0.16755  1.0000
  H   H269      1.0  0.11053  0.82110  0.02378  1.0000
  S   S72       1.0  0.42583  0.97923  0.19703  1.0000
  C   C168      1.0  0.18885  0.11570  0.23076  1.0000
  H   H270      1.0  0.49223  0.11136  0.05627  1.0000
  H   H271      1.0  0.49481  0.92060  0.14061  1.0000
  N   N14       1.0  0.22352  0.08809  0.24146  1.0000
  H   H272      1.0  0.11918  0.93863  0.22036  1.0000
  S   S73       1.0  0.12771  0.23266  0.20169  1.0000
  H   H273      1.0  0.39356  0.05963  0.09115  1.0000
  H   H274      1.0  0.56468  0.03579  0.13428  1.0000
  C   C169      1.0  0.27712  0.92111  0.26295  1.0000
  C   C170      1.0  0.59340  0.92048  0.24820  1.0000
  H   H275      1.0  0.18484  0.15586  0.23631  1.0000
  H   H276      1.0  0.23529  0.03527  0.21757  1.0000
  H   H277      1.0  0.15005  0.19402  0.07991  1.0000
  H   H278      1.0  0.16247  0.98676  0.02725  1.0000
  C   C171      1.0  0.23199  0.92111  0.26193  1.0000
  C   C172      1.0  0.32473  0.96001  0.08332  1.0000
  N   N15       1.0  0.35146  0.00473  0.07747  1.0000
  C   C173      1.0  0.40265  0.07622  0.01892  1.0000
  H   H279      1.0  0.53407  0.91337  0.15997  1.0000
  H   H280      1.0  0.29165  0.09583  0.24636  1.0000
  H   H281      1.0  0.34225  0.08146  0.06597  1.0000
  H   H282      1.0  0.12266  0.14669  0.26217  1.0000
  S   S74       1.0  0.47078  0.24107  0.11026  1.0000
  H   H283      1.0  0.54338  0.97972  0.12228  1.0000
  H   H284      1.0  0.30706  0.03381  0.05567  1.0000
  C   C174      1.0  0.22932  0.97307  0.03381  1.0000
  H   H285      1.0  0.48046  0.93393  0.16581  1.0000
  C   C175      1.0  0.58478  0.16125  0.03493  1.0000
  N   N16       1.0  0.51983  0.99202  0.15189  1.0000
  C   C176      1.0  0.58723  0.83138  0.25904  1.0000
  C   C177      1.0  0.11441  0.19401  0.08156  1.0000
  C   C178      1.0  0.60834  0.81036  0.03695  1.0000
  H   H286      1.0  0.15344  0.25361  0.10849  1.0000
  H   H287      1.0  0.25401  0.01377  0.24133  1.0000
  C   C179      1.0  0.53796  0.78633  0.04972  1.0000
  H   H288      1.0  0.19755  0.01266  0.23602  1.0000
  H   H289      1.0  0.24594  0.77895  0.08020  1.0000
  C   C180      1.0  0.21306  0.08572  0.26285  1.0000
  S   S75       1.0  0.11261  0.79985  0.11203  1.0000
  H   H290      1.0  0.60990  0.95715  0.24868  1.0000
  H   H291      1.0  0.27124  0.77701  0.47336  1.0000
  H   H292      1.0  0.50704  0.86089  0.28244  1.0000
  H   H293      1.0  0.51163  0.98159  0.50007  1.0000
  C   C181      1.0  0.27310  0.91495  0.43673  1.0000
  S   S76       1.0  0.35394  0.94848  0.27986  1.0000
  H   H294      1.0  0.43797  0.90510  0.29020  1.0000
  C   C182      1.0  0.50651  0.96369  0.28062  1.0000
  C   C183      1.0  0.15682  0.88633  0.39923  1.0000
  S   S77       1.0  0.13454  0.26383  0.43039  1.0000
  H   H295      1.0  0.60173  0.93777  0.44381  1.0000
  H   H296      1.0  0.25349  0.20516  0.34505  1.0000
  H   H297      1.0  0.51573  0.85473  0.30862  1.0000
  H   H298      1.0  0.21068  0.98105  0.30549  1.0000
  C   C184      1.0  0.33955  0.85016  0.50040  1.0000
  C   C185      1.0  0.45425  0.92517  0.30264  1.0000
  H   H299      1.0  0.15781  0.12474  0.35656  1.0000
  H   H300      1.0  0.14596  0.15180  0.33259  1.0000
  C   C186      1.0  0.57591  0.98994  0.51148  1.0000
  H   H301      1.0  0.23882  0.06551  0.27137  1.0000
  H   H302      1.0  0.25869  0.94130  0.47497  1.0000
  H   H303      1.0  0.25690  0.24101  0.50250  1.0000
  C   C187      1.0  0.29787  0.94331  0.27919  1.0000
  C   C188      1.0  0.31079  0.83650  0.48549  1.0000
  H   H304      1.0  0.30192  0.86435  0.47433  1.0000
  H   H305      1.0  0.44842  0.90202  0.31632  1.0000
  H   H306      1.0  0.26572  0.00937  0.47132  1.0000
  C   C189      1.0  0.35154  0.81352  0.51472  1.0000
  S   S78       1.0  0.18631  0.83204  0.43104  1.0000
  S   S79       1.0  0.23752  0.26719  0.41822  1.0000
  C   C190      1.0  0.15042  0.84321  0.41141  1.0000
  N   N17       1.0  0.50071  0.93170  0.29864  1.0000
  C   C191      1.0  0.16889  0.80120  0.32225  1.0000
  H   H307      1.0  0.18504  0.82788  0.31160  1.0000
  C   C192      1.0  0.54373  0.99583  0.49719  1.0000
  C   C193      1.0  0.52069  0.88058  0.29559  1.0000
  H   H308      1.0  0.54118  0.96967  0.27715  1.0000
  S   S80       1.0  0.15151  0.94623  0.27576  1.0000
  H   H309      1.0  0.14565  0.26499  0.34439  1.0000
  H   H310      1.0  0.22447  0.16490  0.32802  1.0000
  H   H311      1.0  0.43765  0.96298  0.30449  1.0000
  C   C194      1.0  0.12146  0.21900  0.27767  1.0000
  C   C195      1.0  0.22667  0.17703  0.34377  1.0000
  H   H312      1.0  0.52842  0.02442  0.46793  1.0000
  H   H313      1.0  0.15847  0.22829  0.37786  1.0000
  N   N18       1.0  0.12808  0.78118  0.31418  1.0000
  H   H314      1.0  0.18403  0.91133  0.40161  1.0000
  H   H315      1.0  0.55601  0.88392  0.29320  1.0000
  H   H316      1.0  0.16342  0.82252  0.33631  1.0000
  C   C196      1.0  0.17573  0.24602  0.33911  1.0000
  H   H317      1.0  0.30958  0.96572  0.46663  1.0000
  H   H318      1.0  0.20911  0.12502  0.26919  1.0000
  C   C197      1.0  0.27407  0.97081  0.46524  1.0000
  H   H319      1.0  0.27062  0.04586  0.43788  1.0000
  S   S81       1.0  0.35959  0.91333  0.50088  1.0000
  C   C198      1.0  0.27964  0.00697  0.43230  1.0000
  Fe  Fe39      1.0  0.12968  0.97420  0.30552  1.0000
  H   H320      1.0  0.25926  0.88298  0.44576  1.0000
  C   C199      1.0  0.52142  0.95720  0.31566  1.0000
  Fe  Fe40      1.0  0.16420  0.01460  0.34468  1.0000
  H   H321      1.0  0.26415  0.14784  0.41514  1.0000
  S   S82       1.0  0.22565  0.03759  0.35960  1.0000
  H   H322      1.0  0.60627  0.86881  0.41841  1.0000
  H   H323      1.0  0.27707  0.10605  0.38267  1.0000
  H   H324      1.0  0.49139  0.00239  0.28226  1.0000
  H   H325      1.0  0.28946  0.98079  0.30729  1.0000
  H   H326      1.0  0.30869  0.91020  0.43687  1.0000
  S   S83       1.0  0.14734  0.05282  0.31592  1.0000
  C   C200      1.0  0.15070  0.16129  0.34843  1.0000
  C   C201      1.0  0.27359  0.96388  0.29465  1.0000
  H   H327      1.0  0.19634  0.93899  0.45205  1.0000
  C   C202      1.0  0.22871  0.96403  0.29359  1.0000
  S   S84       1.0  0.15318  0.93528  0.33308  1.0000
  C   C203      1.0  0.12840  0.89708  0.38372  1.0000
  H   H328      1.0  0.50696  0.99575  0.31854  1.0000
  C   C204      1.0  0.18928  0.21263  0.37198  1.0000
  C   C205      1.0  0.20434  0.10824  0.42048  1.0000
  C   C206      1.0  0.24116  0.12041  0.40946  1.0000
  C   C207      1.0  0.24853  0.09660  0.39116  1.0000
  C   C208      1.0  0.21828  0.06215  0.38351  1.0000
  C   C209      1.0  0.18193  0.04929  0.39472  1.0000
  C   C210      1.0  0.17515  0.07198  0.41328  1.0000
  S   S85       1.0  0.19534  0.13729  0.44346  1.0000
  H   H329      1.0  0.13375  0.93069  0.37461  1.0000
  H   H330      1.0  0.15924  0.02139  0.38923  1.0000
  H   H331      1.0  0.14687  0.06208  0.42188  1.0000
  H   H332      1.0  0.26173  0.90927  0.42125  1.0000
  Fe  Fe41      1.0  0.19528  0.22332  0.43939  1.0000
  N   N19       1.0  0.18560  0.19922  0.35083  1.0000
  H   H333      1.0  0.55654  0.96292  0.31305  1.0000
  N   N20       1.0  0.25982  0.96579  0.44446  1.0000
  C   C211      1.0  0.21244  0.97051  0.44355  1.0000
  C   C212      1.0  0.29377  0.78668  0.48485  1.0000
  C   C213      1.0  0.20777  0.94320  0.27719  1.0000
  C   C214      1.0  0.55323  0.01997  0.47903  1.0000
  H   H334      1.0  0.49167  0.94529  0.26745  1.0000
  H   H335      1.0  0.20116  0.00817  0.44953  1.0000
  H   H336      1.0  0.19709  0.17829  0.38118  1.0000
  H   H337      1.0  0.51826  0.93375  0.32947  1.0000
  H   H338      1.0  0.26902  0.00476  0.41657  1.0000
  H   H339      1.0  0.20070  0.96791  0.42804  1.0000
  H   H340      1.0  0.31537  0.00429  0.43245  1.0000
  H   H341      1.0  0.21467  0.24207  0.37442  1.0000
  C   C215      1.0  0.59482  0.03815  0.47522  1.0000
  H   H342      1.0  0.23585  0.14244  0.35255  1.0000
  H   H343      1.0  0.17176  0.23698  0.32314  1.0000
  H   H344      1.0  0.11473  0.85101  0.29790  1.0000
  S   S86       1.0  0.60155  0.82549  0.32932  1.0000
  C   C216      1.0  0.11534  0.81072  0.40796  1.0000
  C   C217      1.0  0.11212  0.16669  0.27531  1.0000
  S   S87       1.0  0.60310  0.78034  0.27457  1.0000
  H   H345      1.0  0.18753  0.19166  0.49559  1.0000
  S   S88       1.0  0.60710  0.06705  0.45240  1.0000
  H   H346      1.0  0.11940  0.17633  0.35406  1.0000
  H   H347      1.0  0.18261  0.06423  0.26565  1.0000
  C   C218      1.0  0.19044  0.17710  0.51109  1.0000
  H   H348      1.0  0.20947  0.14073  0.51061  1.0000
  H   H349      1.0  0.60905  0.84565  0.45411  1.0000
  H   H350      1.0  0.35913  0.89793  0.67869  1.0000
  H   H351      1.0  0.21687  0.06488  0.74002  1.0000
  S   S89       1.0  0.41029  0.23316  0.67098  1.0000
  N   N21       1.0  0.33888  0.90798  0.70891  1.0000
  H   H352      1.0  0.50246  0.84924  0.71792  1.0000
  H   H353      1.0  0.38993  0.24078  0.56756  1.0000
  H   H354      1.0  0.39014  0.17416  0.57551  1.0000
  H   H355      1.0  0.21399  0.82518  0.55916  1.0000
  H   H356      1.0  0.37348  0.82395  0.52641  1.0000
  C   C219      1.0  0.49230  0.81131  0.72278  1.0000
  H   H357      1.0  0.50244  0.02091  0.64859  1.0000
  H   H358      1.0  0.52722  0.20384  0.54168  1.0000
  S   S90       1.0  0.46110  0.87239  0.53238  1.0000
  S   S91       1.0  0.24463  0.84658  0.76162  1.0000
  H   H359      1.0  0.60538  0.09381  0.54437  1.0000
  Fe  Fe42      1.0  0.40425  0.92401  0.52653  1.0000
  H   H360      1.0  0.35466  0.18124  0.74829  1.0000
  S   S92       1.0  0.43789  0.80519  0.58358  1.0000
  H   H361      1.0  0.21959  0.78443  0.51660  1.0000
  C   C220      1.0  0.52233  0.82875  0.59031  1.0000
  H   H362      1.0  0.18310  0.11248  0.71113  1.0000
  H   H363      1.0  0.52249  0.84578  0.57564  1.0000
  H   H364      1.0  0.31716  0.84322  0.72638  1.0000
  H   H365      1.0  0.18433  0.20208  0.74031  1.0000
  H   H366      1.0  0.49863  0.00714  0.62260  1.0000
  C   C221      1.0  0.12773  0.13179  0.75395  1.0000
  H   H367      1.0  0.55188  0.94564  0.60719  1.0000
  H   H368      1.0  0.13081  0.08858  0.71793  1.0000
  H   H369      1.0  0.29391  0.96742  0.70049  1.0000
  H   H370      1.0  0.34914  0.98197  0.69519  1.0000
  H   H371      1.0  0.15758  0.16679  0.51636  1.0000
  H   H372      1.0  0.27494  0.88474  0.71750  1.0000
  H   H373      1.0  0.49537  0.07997  0.56528  1.0000
  C   C222      1.0  0.52157  0.01113  0.63514  1.0000
  C   C223      1.0  0.20983  0.19623  0.54481  1.0000
  S   S93       1.0  0.56465  0.96196  0.53455  1.0000
  H   H374      1.0  0.22801  0.15751  0.73627  1.0000
  H   H375      1.0  0.30832  0.90501  0.73747  1.0000
  C   C224      1.0  0.30856  0.88412  0.72313  1.0000
  C   C225      1.0  0.44189  0.23674  0.64943  1.0000
  H   H376      1.0  0.41896  0.22141  0.58927  1.0000
  H   H377      1.0  0.16401  0.03943  0.74486  1.0000
  Fe  Fe43      1.0  0.43803  0.87493  0.56380  1.0000
  H   H378      1.0  0.22799  0.15934  0.54624  1.0000
  C   C226      1.0  0.52287  0.78336  0.62799  1.0000
  C   C227      1.0  0.51709  0.91979  0.64202  1.0000
  S   S94       1.0  0.47681  0.94416  0.57178  1.0000
  N   N22       1.0  0.54670  0.96328  0.63821  1.0000
  H   H379      1.0  0.49600  0.91224  0.62904  1.0000
  H   H380      1.0  0.56641  0.19513  0.56078  1.0000
  H   H381      1.0  0.58873  0.84719  0.59589  1.0000
  C   C228      1.0  0.32736  0.96288  0.70606  1.0000
  H   H382      1.0  0.32967  0.98461  0.72020  1.0000
  H   H383      1.0  0.30359  0.88330  0.68332  1.0000
  C   C229      1.0  0.31047  0.12553  0.76028  1.0000
  C   C230      1.0  0.38899  0.21479  0.58077  1.0000
  Fe  Fe44      1.0  0.41798  0.16030  0.68889  1.0000
  S   S95       1.0  0.36765  0.09861  0.68857  1.0000
  Fe  Fe45      1.0  0.47195  0.10476  0.71982  1.0000
  S   S96       1.0  0.42676  0.03762  0.72205  1.0000
  C   C231      1.0  0.55468  0.17917  0.54650  1.0000
  Fe  Fe46      1.0  0.42386  0.04462  0.68899  1.0000
  S   S97       1.0  0.42177  0.97607  0.66912  1.0000
  Fe  Fe47      1.0  0.37431  0.09729  0.72154  1.0000
  S   S98       1.0  0.31537  0.08283  0.74038  1.0000
  S   S99       1.0  0.47412  0.10616  0.68662  1.0000
  H   H384      1.0  0.51659  0.13476  0.57820  1.0000
  C   C232      1.0  0.19789  0.16406  0.74492  1.0000
  S   S100      1.0  0.44038  0.99804  0.53092  1.0000
  H   H385      1.0  0.15836  0.85807  0.74792  1.0000
  H   H386      1.0  0.34503  0.83938  0.69141  1.0000
  H   H387      1.0  0.22416  0.22465  0.55514  1.0000
  Fe  Fe48      1.0  0.41926  0.98980  0.56248  1.0000
  S   S101      1.0  0.40295  0.05778  0.58140  1.0000
  H   H388      1.0  0.38631  0.92407  0.73119  1.0000
  C   C233      1.0  0.38313  0.90404  0.71674  1.0000
  H   H389      1.0  0.13932  0.15651  0.71562  1.0000
  C   C234      1.0  0.50640  0.12057  0.56340  1.0000
  H   H390      1.0  0.58093  0.18370  0.53538  1.0000
  C   C235      1.0  0.18409  0.82111  0.55025  1.0000
  C   C236      1.0  0.55990  0.82927  0.60172  1.0000
  C   C237      1.0  0.40570  0.03507  0.60588  1.0000
  C   C238      1.0  0.41137  0.06971  0.62140  1.0000
  C   C239      1.0  0.41458  0.05154  0.64092  1.0000
  C   C240      1.0  0.41333  0.99859  0.64493  1.0000
  C   C241      1.0  0.40793  0.96378  0.62943  1.0000
  C   C242      1.0  0.40389  0.98205  0.60993  1.0000
  H   H391      1.0  0.41454  0.11040  0.61833  1.0000
  H   H392      1.0  0.41915  0.07854  0.65278  1.0000
  H   H393      1.0  0.32249  0.19605  0.62028  1.0000
  H   H394      1.0  0.27455  0.18837  0.51785  1.0000
  H   H395      1.0  0.54273  0.04465  0.63186  1.0000
  C   C243      1.0  0.56022  0.80670  0.62060  1.0000
  H   H396      1.0  0.39292  0.86314  0.71913  1.0000
  N   N23       1.0  0.54168  0.12462  0.54871  1.0000
  C   C244      1.0  0.33474  0.17071  0.76071  1.0000
  H   H397      1.0  0.45823  0.15614  0.64895  1.0000
  S   S102      1.0  0.37806  0.92029  0.55749  1.0000
  Fe  Fe49      1.0  0.49486  0.94604  0.53976  1.0000
  H   H398      1.0  0.56975  0.05260  0.55800  1.0000
  C   C245      1.0  0.54867  0.07300  0.75504  1.0000
  C   C246      1.0  0.52684  0.10498  0.52940  1.0000
  C   C247      1.0  0.48548  0.78208  0.61645  1.0000
  H   H399      1.0  0.47796  0.14396  0.55889  1.0000
  C   C248      1.0  0.16475  0.88868  0.75833  1.0000
  H   H400      1.0  0.49754  0.16146  0.61700  1.0000
  H   H401      1.0  0.40700  0.92157  0.70640  1.0000
  S   S103      1.0  0.45343  0.86137  0.75337  1.0000
  H   H402      1.0  0.38004  0.19550  0.61967  1.0000
  C   C249      1.0  0.57887  0.09364  0.55552  1.0000
  H   H403      1.0  0.49595  0.92730  0.65498  1.0000
  C   C250      1.0  0.57545  0.96949  0.65543  1.0000
  C   C251      1.0  0.59979  0.80028  0.74466  1.0000
  C   C252      1.0  0.18599  0.07227  0.74794  1.0000
  H   H404      1.0  0.51731  0.06377  0.53056  1.0000
  S   S104      1.0  0.53194  0.11883  0.73745  1.0000
  H   H405      1.0  0.54357  0.87117  0.75763  1.0000
  H   H406      1.0  0.15241  0.25953  0.52839  1.0000
  C   C253      1.0  0.48702  0.24318  0.61339  1.0000
  C   C254      1.0  0.33647  0.88089  0.68974  1.0000
  C   C255      1.0  0.48372  0.19589  0.62340  1.0000
  C   C256      1.0  0.18604  0.26466  0.52309  1.0000
  H   H407      1.0  0.35040  0.14832  0.60587  1.0000
  H   H408      1.0  0.49859  0.12706  0.52381  1.0000
  C   C257      1.0  0.35080  0.18952  0.61047  1.0000
  C   C258      1.0  0.52958  0.02432  0.75636  1.0000
  N   N24       1.0  0.35045  0.22450  0.59309  1.0000
  H   H409      1.0  0.28177  0.22204  0.59004  1.0000
  H   H410      1.0  0.59495  0.93392  0.65807  1.0000
  H   H411      1.0  0.40708  0.92273  0.63243  1.0000
  C   C259      1.0  0.15457  0.11982  0.72071  1.0000
  H   H412      1.0  0.31066  0.17459  0.57581  1.0000
  H   H413      1.0  0.15633  0.83077  0.56005  1.0000
  H   H414      1.0  0.50510  0.01335  0.74587  1.0000
  C   C260      1.0  0.46677  0.80601  0.73979  1.0000
  S   S105      1.0  0.41982  0.16433  0.72203  1.0000
  C   C261      1.0  0.48503  0.80539  0.59771  1.0000
  H   H415      1.0  0.39932  0.95492  0.59805  1.0000
  H   H416      1.0  0.39882  0.09131  0.76423  1.0000
  N   N25       1.0  0.16660  0.12204  0.74187  1.0000
  H   H417      1.0  0.18537  0.85052  0.53817  1.0000
  H   H418      1.0  0.55672  0.97722  0.66921  1.0000
  C   C262      1.0  0.46135  0.19276  0.64147  1.0000
  H   H419      1.0  0.20718  0.16710  0.76079  1.0000
  H   H420      1.0  0.53506  0.88372  0.64538  1.0000
  C   C263      1.0  0.57268  0.95256  0.62032  1.0000
  C   C264      1.0  0.13246  0.92456  0.76277  1.0000
  H   H421      1.0  0.27200  0.25237  0.52773  1.0000
  C   C265      1.0  0.31148  0.21511  0.58119  1.0000
  N   N26       1.0  0.21047  0.21570  0.52417  1.0000
  H   H422      1.0  0.45614  0.09458  0.76178  1.0000
  H   H423      1.0  0.17620  0.18882  0.54995  1.0000
  H   H424      1.0  0.55266  0.10726  0.51793  1.0000
  H   H425      1.0  0.19265  0.07135  0.76412  1.0000
  H   H426      1.0  0.31050  0.24117  0.56799  1.0000
  H   H427      1.0  0.59308  0.91761  0.62243  1.0000
  C   C266      1.0  0.25541  0.22470  0.51781  1.0000
  S   S106      1.0  0.51014  0.24563  0.58964  1.0000
  H   H428      1.0  0.13949  0.79370  0.51819  1.0000
  H   H429      1.0  0.58618  0.82437  0.73248  1.0000
  H   H430      1.0  0.59459  0.98511  0.61666  1.0000
  N   N27       1.0  0.60164  0.82909  0.76347  1.0000
  H   H431      1.0  0.59818  0.00210  0.65318  1.0000
  H   H432      1.0  0.59197  0.10852  0.56969  1.0000
  S   S107      1.0  0.60632  0.81158  0.63542  1.0000
  H   H433      1.0  0.11086  0.16770  0.74919  1.0000
  H   H434      1.0  0.33043  0.84075  0.90162  1.0000
  H   H435      1.0  0.15038  0.24558  0.77529  1.0000
  H   H436      1.0  0.47344  0.14704  0.93839  1.0000
  C   C267      1.0  0.38054  0.90582  0.85559  1.0000
  H   H437      1.0  0.52630  0.95279  0.77269  1.0000
  H   H438      1.0  0.23776  0.81772  0.86926  1.0000
  H   H439      1.0  0.30496  0.81759  0.84949  1.0000
  H   H440      1.0  0.54409  0.93196  0.89084  1.0000
  H   H441      1.0  0.27138  0.21343  0.87541  1.0000
  Fe  Fe50      1.0  0.24113  0.24510  0.82558  1.0000
  H   H442      1.0  0.48092  0.91430  0.97961  1.0000
  S   S108      1.0  0.30458  0.86005  0.81245  1.0000
  H   H443      1.0  0.58464  0.93679  0.85951  1.0000
  H   H444      1.0  0.53455  0.13424  0.97338  1.0000
  C   C268      1.0  0.57352  0.00387  0.78516  1.0000
  Fe  Fe51      1.0  0.30454  0.85547  0.77947  1.0000
  Fe  Fe52      1.0  0.35642  0.80013  0.81095  1.0000
  H   H445      1.0  0.46243  0.21417  0.94178  1.0000
  S   S109      1.0  0.41138  0.85600  0.80883  1.0000
  H   H446      1.0  0.12018  0.90251  0.00423  1.0000
  H   H447      1.0  0.39336  0.84495  0.87662  1.0000
  H   H448      1.0  0.42699  0.14926  0.77079  1.0000
  N   N28       1.0  0.54186  0.88814  0.99081  1.0000
  C   C269      1.0  0.47431  0.10523  0.80004  1.0000
  H   H449      1.0  0.55776  0.86711  0.78333  1.0000
  H   H450      1.0  0.51954  0.22776  0.97841  1.0000
  S   S110      1.0  0.37233  0.93284  0.96544  1.0000
  H   H451      1.0  0.13555  0.13552  0.76998  1.0000
  C   C270      1.0  0.30629  0.19063  0.79321  1.0000
  H   H452      1.0  0.47875  0.09176  0.81559  1.0000
  H   H453      1.0  0.41776  0.12581  0.96304  1.0000
  C   C271      1.0  0.28306  0.11356  0.77615  1.0000
  C   C272      1.0  0.11889  0.26157  0.77233  1.0000
  H   H454      1.0  0.39602  0.14841  0.80449  1.0000
  Fe  Fe53      1.0  0.40094  0.85324  0.77604  1.0000
  S   S111      1.0  0.41556  0.89539  0.91287  1.0000
  H   H455      1.0  0.58443  0.81873  0.86283  1.0000
  H   H456      1.0  0.37054  0.87943  0.84426  1.0000
  C   C273      1.0  0.18077  0.96775  0.78528  1.0000
  H   H457      1.0  0.49432  0.11913  0.99161  1.0000
  C   C274      1.0  0.39302  0.88622  0.87407  1.0000
  C   C275      1.0  0.58054  0.08671  0.76862  1.0000
  C   C276      1.0  0.49955  0.12720  0.97558  1.0000
  H   H458      1.0  0.52636  0.81083  0.98186  1.0000
  H   H459      1.0  0.53584  0.94210  0.84552  1.0000
  Fe  Fe54      1.0  0.39222  0.95383  0.93455  1.0000
  S   S112      1.0  0.30735  0.22913  0.81433  1.0000
  H   H460      1.0  0.40151  0.01460  0.78657  1.0000
  C   C277      1.0  0.24101  0.96975  0.99259  1.0000
  H   H461      1.0  0.35315  0.23694  0.77777  1.0000
  C   C278      1.0  0.21319  0.93180  0.78082  1.0000
  Fe  Fe55      1.0  0.35894  0.91548  0.80852  1.0000
  C   C279      1.0  0.43310  0.02974  0.79156  1.0000
  Fe  Fe56      1.0  0.40552  0.00632  0.97386  1.0000
  S   S113      1.0  0.34693  0.05644  0.97049  1.0000
  H   H462      1.0  0.18708  0.99865  0.79555  1.0000
  H   H463      1.0  0.46582  0.25209  0.97555  1.0000
  S   S114      1.0  0.33280  0.99925  0.92755  1.0000
  H   H464      1.0  0.36561  0.09229  0.79802  1.0000
  Fe  Fe57      1.0  0.36967  0.06640  0.93924  1.0000
  S   S115      1.0  0.37269  0.14229  0.92338  1.0000
  Fe  Fe58      1.0  0.31574  0.98440  0.95930  1.0000
  C   C280      1.0  0.40236  0.97329  0.88599  1.0000
  S   S116      1.0  0.43087  0.02218  0.94333  1.0000
  H   H465      1.0  0.49120  0.09141  0.96747  1.0000
  H   H466      1.0  0.21551  0.10780  0.87086  1.0000
  C   C281      1.0  0.39703  0.10548  0.80399  1.0000
  S   S117      1.0  0.18671  0.19815  0.89252  1.0000
  C   C282      1.0  0.23852  0.18284  0.90102  1.0000
  C   C283      1.0  0.24354  0.15721  0.91919  1.0000
  C   C284      1.0  0.28479  0.14433  0.92605  1.0000
  C   C285      1.0  0.32112  0.15842  0.91501  1.0000
  C   C286      1.0  0.31615  0.18415  0.89688  1.0000
  C   C287      1.0  0.27486  0.19543  0.88973  1.0000
  H   H467      1.0  0.21551  0.14685  0.92789  1.0000
  H   H468      1.0  0.28845  0.12401  0.94000  1.0000
  H   H469      1.0  0.34419  0.19416  0.88812  1.0000
  C   C288      1.0  0.20005  0.97862  0.00057  1.0000
  H   H470      1.0  0.23610  0.96866  0.86272  1.0000
  H   H471      1.0  0.50221  0.88500  0.89395  1.0000
  H   H472      1.0  0.17297  0.98486  0.99082  1.0000
  H   H473      1.0  0.41061  0.99957  0.89776  1.0000
  H   H474      1.0  0.21402  0.86782  0.00161  1.0000
  S   S118      1.0  0.24783  0.96354  0.96696  1.0000
  S   S119      1.0  0.19642  0.18230  0.83527  1.0000
  H   H475      1.0  0.24445  0.93490  0.78769  1.0000
  H   H476      1.0  0.48572  0.82428  0.86691  1.0000
  H   H477      1.0  0.51714  0.89009  0.96106  1.0000
  C   C289      1.0  0.51539  0.91223  0.97511  1.0000
  C   C290      1.0  0.20512  0.89241  0.76726  1.0000
  H   H478      1.0  0.39934  0.09083  0.81949  1.0000
  H   H479      1.0  0.21042  0.82741  0.80228  1.0000
  H   H480      1.0  0.45800  0.01415  0.78139  1.0000
  C   C291      1.0  0.27625  0.96365  0.00520  1.0000
  N   N29       1.0  0.47346  0.17163  0.96877  1.0000
  C   C292      1.0  0.42853  0.10637  0.77125  1.0000
  H   H481      1.0  0.25942  0.13723  0.80478  1.0000
  H   H482      1.0  0.37315  0.81872  0.94157  1.0000
  C   C293      1.0  0.42737  0.16008  0.97172  1.0000
  N   N30       1.0  0.31372  0.79723  0.92770  1.0000
  S   S120      1.0  0.36450  0.98321  0.82880  1.0000
  H   H483      1.0  0.22073  0.80299  0.82675  1.0000
  Fe  Fe59      1.0  0.18640  0.23214  0.86187  1.0000
  S   S121      1.0  0.35310  0.91820  0.77549  1.0000
  C   C294      1.0  0.39127  0.99284  0.86725  1.0000
  H   H484      1.0  0.47834  0.87741  0.85009  1.0000
  N   N31       1.0  0.53747  0.87925  0.86657  1.0000
  C   C295      1.0  0.48492  0.21786  0.98030  1.0000
  H   H485      1.0  0.16641  0.80899  0.81802  1.0000
  C   C296      1.0  0.19979  0.79858  0.81354  1.0000
  H   H486      1.0  0.40657  0.19260  0.96670  1.0000
  C   C297      1.0  0.38011  0.95906  0.85204  1.0000
  C   C298      1.0  0.48192  0.18123  0.94750  1.0000
  H   H487      1.0  0.30793  0.95647  0.99915  1.0000
  H   H488      1.0  0.41988  0.15191  0.98758  1.0000
  N   N32       1.0  0.25919  0.04680  0.86305  1.0000
  C   C299      1.0  0.21521  0.06829  0.86452  1.0000
  C   C300      1.0  0.27807  0.04280  0.88308  1.0000
  C   C301      1.0  0.28607  0.08114  0.85059  1.0000
  C   C302      1.0  0.25735  0.99499  0.85408  1.0000
  H   H489      1.0  0.19961  0.07085  0.84973  1.0000
  C   C303      1.0  0.40337  0.91995  0.88935  1.0000
  H   H490      1.0  0.19432  0.04429  0.87430  1.0000
  H   H491      1.0  0.31135  0.02695  0.88256  1.0000
  H   H492      1.0  0.27990  0.08115  0.89026  1.0000
  H   H493      1.0  0.25866  0.01738  0.89297  1.0000
  H   H494      1.0  0.28781  0.12076  0.85681  1.0000
  H   H495      1.0  0.27314  0.08464  0.83528  1.0000
  H   H496      1.0  0.31959  0.06635  0.84933  1.0000
  H   H497      1.0  0.28976  0.97680  0.85349  1.0000
  H   H498      1.0  0.24511  0.99682  0.83860  1.0000
  C   C304      1.0  0.28034  0.14666  0.79248  1.0000
  H   H499      1.0  0.39114  0.03405  0.86463  1.0000
  N   N33       1.0  0.43326  0.08673  0.79172  1.0000
  S   S122      1.0  0.45518  0.01086  0.99786  1.0000
  H   H500      1.0  0.47592  0.14812  0.79990  1.0000
  H   H501      1.0  0.37722  0.06547  0.00898  1.0000
  S   S123      1.0  0.60873  0.20025  0.97802  1.0000
  C   C305      1.0  0.12971  0.87724  0.99166  1.0000
  S   S124      1.0  0.35178  0.79040  0.77794  1.0000
  C   C306      1.0  0.19023  0.84582  0.01063  1.0000
  C   C307      1.0  0.33344  0.20260  0.77732  1.0000
  S   S125      1.0  0.58812  0.96099  0.80423  1.0000
  H   H502      1.0  0.49478  0.93838  0.87725  1.0000
  C   C308      1.0  0.28819  0.80433  0.94601  1.0000
  H   H503      1.0  0.54816  0.17080  0.00829  1.0000
  H   H504      1.0  0.50225  0.09087  0.79133  1.0000
  H   H505      1.0  0.25394  0.81301  0.94259  1.0000
  C   C309      1.0  0.50284  0.85066  0.85648  1.0000
  Fe  Fe60      1.0  0.14537  0.23166  0.82126  1.0000
  C   C310      1.0  0.51881  0.90998  0.88287  1.0000
  C   C311      1.0  0.52530  0.83588  0.99518  1.0000
  C   C312      1.0  0.55888  0.91411  0.85224  1.0000
  C   C313      1.0  0.31120  0.84462  0.91547  1.0000
  H   H506      1.0  0.26478  0.07816  0.77604  1.0000
  H   H507      1.0  0.32386  0.87853  0.92360  1.0000
  H   H508      1.0  0.52598  0.95242  0.97190  1.0000
  H   H509      1.0  0.30073  0.83683  0.95501  1.0000
  C   C314      1.0  0.35900  0.78649  0.93296  1.0000
  H   H510      1.0  0.43951  0.01341  0.80655  1.0000
  H   H511      1.0  0.57406  0.89234  0.83988  1.0000
  H   H512      1.0  0.27745  0.85340  0.91113  1.0000
  H   H513      1.0  0.55459  0.81556  0.88564  1.0000
  C   C315      1.0  0.14051  0.96433  0.77610  1.0000
  H   H514      1.0  0.19093  0.82216  0.97236  1.0000
  C   C316      1.0  0.59277  0.05235  0.78371  1.0000
  H   H515      1.0  0.59533  0.12440  0.76768  1.0000
  H   H516      1.0  0.51648  0.19025  0.94477  1.0000
  C   C317      1.0  0.56945  0.84248  0.87471  1.0000
  H   H517      1.0  0.51578  0.82690  0.84412  1.0000
  H   H518      1.0  0.49147  0.83709  0.00065  1.0000
  C   C318      1.0  0.54194  0.98983  0.77145  1.0000
  H   H519      1.0  0.13969  0.79043  0.97164  1.0000
  H   H520      1.0  0.47906  0.21172  0.99644  1.0000
  H   H521      1.0  0.59021  0.86121  0.97036  1.0000
  C   C319      1.0  0.29145  0.78159  0.85450  1.0000
  C   C320      1.0  0.16714  0.80033  0.98146  1.0000
  N   N34       1.0  0.15257  0.83057  0.99870  1.0000
  C   C321      1.0  0.55782  0.84549  0.76914  1.0000
  H   H522      1.0  0.15018  0.90034  0.98138  1.0000
  H   H523      1.0  0.59608  0.86295  0.88239  1.0000
  H   H524      1.0  0.54466  0.81650  0.00685  1.0000
  C   C322      1.0  0.25387  0.78167  0.86603  1.0000
  H   H525      1.0  0.37931  0.78142  0.91949  1.0000
  C   C323      1.0  0.53959  0.91981  0.00894  1.0000
  H   H526      1.0  0.53587  0.81190  0.77097  1.0000
  C   C324      1.0  0.12304  0.79900  0.01093  1.0000
  H   H527      1.0  0.55029  0.96011  0.00606  1.0000
  C   C325      1.0  0.58709  0.88456  0.98407  1.0000
  H   H528      1.0  0.60088  0.92336  0.98099  1.0000
  H   H529      1.0  0.60775  0.86595  0.99554  1.0000
  C   C326      1.0  0.57987  0.17121  0.01466  1.0000
  H   H530      1.0  0.50615  0.92194  0.01488  1.0000
  S   S126      1.0  0.74201  0.75901  0.02065  1.0000
  Fe  Fe61      1.0  0.95859  0.49142  0.04161  1.0000
  S   S127      1.0  0.02824  0.47010  0.04547  1.0000
  H   H531      1.0  0.62239  0.66851  0.22303  1.0000
  Fe  Fe62      1.0  0.94993  0.52899  0.08392  1.0000
  S   S128      1.0  0.01875  0.51170  0.09130  1.0000
  H   H532      1.0  0.62119  0.39618  0.05243  1.0000
  Fe  Fe63      1.0  0.03334  0.54546  0.06146  1.0000
  H   H533      1.0  0.96906  0.50640  0.12525  1.0000
  Fe  Fe64      1.0  0.00728  0.43799  0.07495  1.0000
  S   S129      1.0  0.02634  0.35986  0.08690  1.0000
  H   H534      1.0  0.94214  0.67196  0.09711  1.0000
  S   S130      1.0  0.93702  0.45278  0.06977  1.0000
  C   C327      1.0  0.95869  0.44524  0.22137  1.0000
  H   H535      1.0  0.05118  0.53015  0.24911  1.0000
  C   C328      1.0  0.97597  0.54072  0.15396  1.0000
  S   S131      1.0  0.98477  0.58381  0.19049  1.0000
  C   C329      1.0  0.03740  0.60627  0.26009  1.0000
  H   H536      1.0  0.97222  0.34748  0.20966  1.0000
  C   C330      1.0  0.92365  0.56819  0.12944  1.0000
  H   H537      1.0  0.99700  0.42003  0.17516  1.0000
  H   H538      1.0  0.01637  0.70009  0.13849  1.0000
  C   C331      1.0  0.08287  0.40265  0.13812  1.0000
  C   C332      1.0  0.06790  0.40293  0.11853  1.0000
  C   C333      1.0  0.04160  0.36303  0.11186  1.0000
  C   C334      1.0  0.99568  0.67879  0.12793  1.0000
  H   H539      1.0  0.91579  0.36114  0.20932  1.0000
  H   H540      1.0  0.07318  0.69970  0.11250  1.0000
  H   H541      1.0  0.07782  0.43320  0.10842  1.0000
  H   H542      1.0  0.62389  0.72512  0.23825  1.0000
  C   C335      1.0  0.82333  0.76015  0.25417  1.0000
  H   H543      1.0  0.92810  0.43869  0.22966  1.0000
  H   H544      1.0  0.84245  0.67257  0.03273  1.0000
  H   H545      1.0  0.05923  0.69010  0.08700  1.0000
  H   H546      1.0  0.96166  0.68775  0.13184  1.0000
  N   N35       1.0  0.65863  0.32815  0.05873  1.0000
  C   C336      1.0  0.92166  0.45236  0.19009  1.0000
  H   H547      1.0  0.69627  0.69044  0.21060  1.0000
  C   C337      1.0  0.62186  0.36281  0.06286  1.0000
  H   H548      1.0  0.09836  0.40967  0.21648  1.0000
  H   H549      1.0  0.66204  0.29804  0.08850  1.0000
  H   H550      1.0  0.09353  0.73464  0.14575  1.0000
  H   H551      1.0  0.02435  0.41240  0.19832  1.0000
  H   H552      1.0  0.91207  0.63590  0.17219  1.0000
  S   S132      1.0  0.05996  0.30906  0.22479  1.0000
  H   H553      1.0  0.91994  0.43972  0.17438  1.0000
  H   H554      1.0  0.05182  0.75102  0.17651  1.0000
  S   S133      1.0  0.83290  0.74073  0.22970  1.0000
  C   C338      1.0  0.02958  0.32346  0.12494  1.0000
  H   H555      1.0  0.92704  0.49477  0.18993  1.0000
  C   C339      1.0  0.99782  0.43355  0.19079  1.0000
  C   C340      1.0  0.07181  0.36231  0.15104  1.0000
  H   H556      1.0  0.86701  0.46330  0.04310  1.0000
  H   H557      1.0  0.79840  0.41533  0.04363  1.0000
  H   H558      1.0  0.00655  0.47514  0.19053  1.0000
  N   N36       1.0  0.00539  0.69281  0.10713  1.0000
  C   C341      1.0  0.69938  0.35688  0.06073  1.0000
  H   H559      1.0  0.00079  0.63686  0.13072  1.0000
  H   H560      1.0  0.69679  0.74620  0.22626  1.0000
  C   C342      1.0  0.85463  0.44745  0.02953  1.0000
  S   S134      1.0  0.08964  0.59912  0.05774  1.0000
  H   H561      1.0  0.88964  0.44553  0.19704  1.0000
  H   H562      1.0  0.98491  0.42614  0.22990  1.0000
  C   C343      1.0  0.81551  0.42057  0.02978  1.0000
  S   S135      1.0  0.90404  0.56704  0.10509  1.0000
  C   C344      1.0  0.94678  0.36925  0.20159  1.0000
  N   N37       1.0  0.95622  0.42509  0.20096  1.0000
  C   C345      1.0  0.95740  0.53571  0.13519  1.0000
  S   S136      1.0  0.93596  0.65802  0.23528  1.0000
  H   H563      1.0  0.96515  0.48754  0.22136  1.0000
  H   H564      1.0  0.94471  0.35278  0.18643  1.0000
  S   S137      1.0  0.96544  0.56942  0.05531  1.0000
  H   H565      1.0  0.00287  0.51639  0.15803  1.0000
  H   H566      1.0  0.91518  0.70229  0.02389  1.0000
  C   C346      1.0  0.96040  0.57774  0.16720  1.0000
  H   H567      1.0  0.88030  0.62844  0.13869  1.0000
  C   C347      1.0  0.04478  0.32298  0.14448  1.0000
  H   H568      1.0  0.63923  0.75435  0.01818  1.0000
  H   H569      1.0  0.67936  0.60361  0.22525  1.0000
  C   C348      1.0  0.90696  0.60384  0.14294  1.0000
  C   C349      1.0  0.68955  0.61996  0.23970  1.0000
  H   H570      1.0  0.05651  0.63720  0.10419  1.0000
  H   H571      1.0  0.88845  0.74799  0.26391  1.0000
  C   C350      1.0  0.92532  0.60860  0.16181  1.0000
  S   S138      1.0  0.09278  0.36151  0.17515  1.0000
  C   C351      1.0  0.83491  0.67127  0.01661  1.0000
  H   H572      1.0  0.99965  0.32544  0.25350  1.0000
  H   H573      1.0  0.73933  0.69942  0.22793  1.0000
  C   C352      1.0  0.99848  0.74876  0.10418  1.0000
  H   H574      1.0  0.62316  0.37826  0.07820  1.0000
  H   H575      1.0  0.70092  0.38992  0.05013  1.0000
  Fe  Fe65      1.0  0.90361  0.72967  0.22414  1.0000
  C   C353      1.0  0.89051  0.32070  0.25317  1.0000
  H   H576      1.0  0.98276  0.67392  0.07800  1.0000
  C   C354      1.0  0.93304  0.30746  0.24852  1.0000
  S   S139      1.0  0.02574  0.70628  0.21663  1.0000
  H   H577      1.0  0.01971  0.61761  0.24703  1.0000
  H   H578      1.0  0.86423  0.29815  0.24732  1.0000
  Fe  Fe66      1.0  0.07741  0.29119  0.19345  1.0000
  H   H579      1.0  0.03572  0.29206  0.15437  1.0000
  S   S140      1.0  0.93311  0.72602  0.19374  1.0000
  C   C355      1.0  0.97668  0.66401  0.09382  1.0000
  C   C356      1.0  0.96681  0.33655  0.25623  1.0000
  H   H580      1.0  0.98149  0.62172  0.09558  1.0000
  H   H581      1.0  0.65475  0.33982  0.02723  1.0000
  H   H582      1.0  0.02117  0.63895  0.03325  1.0000
  C   C357      1.0  0.65514  0.30801  0.03836  1.0000
  C   C358      1.0  0.05058  0.67941  0.10252  1.0000
  H   H583      1.0  0.00831  0.29335  0.11996  1.0000
  N   N38       1.0  0.67922  0.67553  0.24100  1.0000
  H   H584      1.0  0.01879  0.77167  0.11437  1.0000
  H   H585      1.0  0.67288  0.59754  0.25152  1.0000
  Fe  Fe67      1.0  0.97025  0.65861  0.20601  1.0000
  H   H586      1.0  0.68302  0.28277  0.03458  1.0000
  C   C359      1.0  0.70396  0.70412  0.22577  1.0000
  Fe  Fe68      1.0  0.98812  0.71160  0.24489  1.0000
  C   C360      1.0  0.63265  0.68348  0.23768  1.0000
  H   H587      1.0  0.72770  0.33181  0.05747  1.0000
  H   H588      1.0  0.64099  0.37126  0.14489  1.0000
  C   C361      1.0  0.88178  0.36324  0.26528  1.0000
  C   C362      1.0  0.08977  0.62757  0.03412  1.0000
  H   H589      1.0  0.72468  0.61281  0.24136  1.0000
  C   C363      1.0  0.65804  0.28472  0.07298  1.0000
  S   S141      1.0  0.61722  0.44971  0.17247  1.0000
  H   H590      1.0  0.70335  0.37237  0.07595  1.0000
  H   H591      1.0  0.09905  0.45767  0.23557  1.0000
  H   H592      1.0  0.10438  0.28430  0.10067  1.0000
  H   H593      1.0  0.10371  0.43323  0.14312  1.0000
  H   H594      1.0  0.00672  0.76097  0.08880  1.0000
  C   C364      1.0  0.69071  0.69455  0.26089  1.0000
  H   H595      1.0  0.68470  0.73677  0.26215  1.0000
  C   C365      1.0  0.05117  0.64325  0.02532  1.0000
  H   H596      1.0  0.89914  0.60777  0.02664  1.0000
  C   C366      1.0  0.05505  0.55659  0.26129  1.0000
  H   H597      1.0  0.62539  0.28471  0.03642  1.0000
  C   C367      1.0  0.08078  0.77274  0.14857  1.0000
  H   H598      1.0  0.96440  0.75972  0.10709  1.0000
  H   H599      1.0  0.61303  0.66349  0.24923  1.0000
  C   C368      1.0  0.61126  0.76309  0.02714  1.0000
  C   C369      1.0  0.61194  0.38968  0.13953  1.0000
  H   H600      1.0  0.10931  0.47556  0.21020  1.0000
  H   H601      1.0  0.72528  0.68758  0.26424  1.0000
  Fe  Fe69      1.0  0.98581  0.77377  0.20682  1.0000
  Fe  Fe70      1.0  0.82891  0.35772  0.34397  1.0000
  S   S142      1.0  0.87070  0.42769  0.34171  1.0000
  Fe  Fe71      1.0  0.75887  0.40387  0.31836  1.0000
  S   S143      1.0  0.79437  0.47824  0.31359  1.0000
  C   C370      1.0  0.66546  0.43120  0.29510  1.0000
  Fe  Fe72      1.0  0.85240  0.42796  0.30967  1.0000
  S   S144      1.0  0.90540  0.44539  0.28807  1.0000
  Fe  Fe73      1.0  0.80953  0.47197  0.34597  1.0000
  S   S145      1.0  0.80746  0.54419  0.36413  1.0000
  S   S146      1.0  0.81585  0.35384  0.31144  1.0000
  S   S147      1.0  0.76863  0.40192  0.35115  1.0000
  C   C371      1.0  0.62946  0.41919  0.28364  1.0000
  S   S148      1.0  0.71234  0.56033  0.50036  1.0000
  C   C372      1.0  0.89324  0.64879  0.29298  1.0000
  H   H602      1.0  0.61709  0.53569  0.48010  1.0000
  Fe  Fe74      1.0  0.73285  0.56515  0.46867  1.0000
  S   S149      1.0  0.74884  0.49355  0.45179  1.0000
  H   H603      1.0  0.86396  0.63171  0.50399  1.0000
  H   H604      1.0  0.71525  0.75703  0.37553  1.0000
  C   C373      1.0  0.70020  0.61634  0.36652  1.0000
  H   H605      1.0  0.95586  0.54199  0.28789  1.0000
  H   H606      1.0  0.98441  0.40215  0.27391  1.0000
  H   H607      1.0  0.93822  0.63887  0.32691  1.0000
  N   N39       1.0  0.93107  0.61215  0.50526  1.0000
  H   H608      1.0  0.71418  0.51569  0.37646  1.0000
  C   C374      1.0  0.67785  0.48268  0.29722  1.0000
  H   H609      1.0  0.70521  0.49216  0.30623  1.0000
  H   H610      1.0  0.97415  0.64565  0.30617  1.0000
  C   C375      1.0  0.68045  0.55083  0.34304  1.0000
  C   C376      1.0  0.61956  0.50971  0.27563  1.0000
  H   H611      1.0  0.67117  0.67536  0.27266  1.0000
  H   H612      1.0  0.80702  0.35656  0.38422  1.0000
  C   C377      1.0  0.79523  0.53095  0.38908  1.0000
  C   C378      1.0  0.79552  0.48015  0.39612  1.0000
  C   C379      1.0  0.78183  0.46907  0.41549  1.0000
  C   C380      1.0  0.76761  0.50867  0.42789  1.0000
  C   C381      1.0  0.76801  0.55973  0.42100  1.0000
  C   C382      1.0  0.78203  0.57088  0.40163  1.0000
  H   H613      1.0  0.80639  0.44935  0.38664  1.0000
  H   H614      1.0  0.78226  0.42980  0.42090  1.0000
  H   H615      1.0  0.75721  0.59062  0.43051  1.0000
  H   H616      1.0  0.74646  0.37653  0.50884  1.0000
  H   H617      1.0  0.91534  0.67617  0.28525  1.0000
  C   C383      1.0  0.80666  0.31907  0.39115  1.0000
  C   C384      1.0  0.92411  0.30156  0.31089  1.0000
  H   H618      1.0  0.76633  0.34331  0.41543  1.0000
  S   S150      1.0  0.07498  0.65355  0.48029  1.0000
  N   N40       1.0  0.91673  0.60270  0.30015  1.0000
  C   C385      1.0  0.95141  0.61876  0.31369  1.0000
  H   H619      1.0  0.69735  0.34112  0.51246  1.0000
  H   H620      1.0  0.89874  0.67640  0.49141  1.0000
  H   H621      1.0  0.08731  0.49148  0.37090  1.0000
  H   H622      1.0  0.65877  0.49766  0.37648  1.0000
  H   H623      1.0  0.67669  0.41936  0.46718  1.0000
  C   C386      1.0  0.68092  0.53100  0.37802  1.0000
  H   H624      1.0  0.07588  0.73293  0.32379  1.0000
  H   H625      1.0  0.09340  0.55726  0.39736  1.0000
  H   H626      1.0  0.61959  0.60500  0.37939  1.0000
  S   S151      1.0  0.67986  0.61940  0.46015  1.0000
  H   H627      1.0  0.78186  0.61033  0.39631  1.0000
  C   C387      1.0  0.92134  0.55820  0.51085  1.0000
  S   S152      1.0  0.68176  0.74884  0.31744  1.0000
  C   C388      1.0  0.10694  0.74837  0.32931  1.0000
  H   H628      1.0  0.70754  0.44075  0.48784  1.0000
  H   H629      1.0  0.70176  0.27998  0.47445  1.0000
  H   H630      1.0  0.87770  0.67003  0.30538  1.0000
  C   C389      1.0  0.93565  0.57531  0.28307  1.0000
  C   C390      1.0  0.62658  0.58792  0.36461  1.0000
  H   H631      1.0  0.77144  0.39764  0.47448  1.0000
  H   H632      1.0  0.65869  0.40527  0.49203  1.0000
  N   N41       1.0  0.71219  0.35939  0.48209  1.0000
  H   H633      1.0  0.69326  0.64835  0.35593  1.0000
  C   C391      1.0  0.72567  0.34598  0.50247  1.0000
  C   C392      1.0  0.07946  0.54231  0.27779  1.0000
  C   C393      1.0  0.75067  0.36549  0.46936  1.0000
  H   H634      1.0  0.73467  0.60608  0.36478  1.0000
  S   S153      1.0  0.62789  0.72260  0.36953  1.0000
  H   H635      1.0  0.86757  0.63834  0.28226  1.0000
  H   H636      1.0  0.99792  0.59639  0.49934  1.0000
  H   H637      1.0  0.10464  0.56632  0.30597  1.0000
  C   C394      1.0  0.78414  0.31175  0.40896  1.0000
  S   S154      1.0  0.69415  0.38132  0.30676  1.0000
  N   N42       1.0  0.67203  0.57149  0.36305  1.0000
  H   H638      1.0  0.91420  0.53446  0.49758  1.0000
  H   H639      1.0  0.86065  0.55462  0.30086  1.0000
  C   C395      1.0  0.91561  0.39290  0.27260  1.0000
  C   C396      1.0  0.70109  0.74845  0.38977  1.0000
  H   H640      1.0  0.69591  0.63174  0.38176  1.0000
  H   H641      1.0  0.77052  0.32974  0.46916  1.0000
  Fe  Fe75      1.0  0.66458  0.62155  0.49262  1.0000
  S   S155      1.0  0.78253  0.62578  0.47395  1.0000
  H   H642      1.0  0.90365  0.53286  0.31639  1.0000
  C   C397      1.0  0.08107  0.64953  0.50601  1.0000
  H   H643      1.0  0.87147  0.58724  0.32374  1.0000
  S   S156      1.0  0.10749  0.48389  0.27801  1.0000
  H   H644      1.0  0.74426  0.30917  0.50282  1.0000
  C   C398      1.0  0.08824  0.30217  0.49174  1.0000
  C   C399      1.0  0.88678  0.56798  0.31079  1.0000
  H   H645      1.0  0.07063  0.46863  0.40630  1.0000
  C   C400      1.0  0.65905  0.72950  0.39093  1.0000
  H   H646      1.0  0.97051  0.58500  0.31897  1.0000
  C   C401      1.0  0.82860  0.27791  0.38241  1.0000
  H   H647      1.0  0.90194  0.29982  0.29801  1.0000
  H   H648      1.0  0.97747  0.65358  0.48760  1.0000
  H   H649      1.0  0.07039  0.65256  0.30456  1.0000
  S   S157      1.0  0.73901  0.74785  0.44691  1.0000
  Fe  Fe76      1.0  0.75712  0.62621  0.50506  1.0000
  C   C402      1.0  0.70826  0.74022  0.42543  1.0000
  H   H650      1.0  0.71468  0.53855  0.34139  1.0000
  H   H651      1.0  0.74164  0.37439  0.45374  1.0000
  H   H652      1.0  0.61962  0.37941  0.28210  1.0000
  C   C403      1.0  0.72546  0.75446  0.40703  1.0000
  C   C404      1.0  0.64186  0.71527  0.40934  1.0000
  C   C405      1.0  0.66637  0.72085  0.42658  1.0000
  H   H653      1.0  0.99932  0.28676  0.32960  1.0000
  C   C406      1.0  0.89368  0.63477  0.49484  1.0000
  H   H654      1.0  0.84883  0.37341  0.26877  1.0000
  H   H655      1.0  0.94686  0.33396  0.30817  1.0000
  H   H656      1.0  0.96351  0.59133  0.47819  1.0000
  H   H657      1.0  0.88719  0.61466  0.48065  1.0000
  H   H658      1.0  0.02627  0.69807  0.51193  1.0000
  H   H659      1.0  0.61869  0.61808  0.35334  1.0000
  C   C407      1.0  0.04267  0.64090  0.27573  1.0000
  H   H660      1.0  0.67383  0.58025  0.33134  1.0000
  H   H661      1.0  0.66443  0.56177  0.28921  1.0000
  H   H662      1.0  0.67555  0.32562  0.45854  1.0000
  S   S158      1.0  0.70798  0.68769  0.49945  1.0000
  C   C408      1.0  0.96905  0.61338  0.49203  1.0000
  H   H663      1.0  0.65241  0.71127  0.44080  1.0000
  C   C409      1.0  0.68762  0.40827  0.48233  1.0000
  C   C410      1.0  0.06620  0.62606  0.29244  1.0000
  H   H664      1.0  0.67762  0.54603  0.39338  1.0000
  H   H665      1.0  0.65452  0.31355  0.48300  1.0000
  Fe  Fe77      1.0  0.72807  0.68069  0.46757  1.0000
  H   H666      1.0  0.66003  0.51659  0.33993  1.0000
  C   C411      1.0  0.68473  0.31784  0.47422  1.0000
  C   C412      1.0  0.08522  0.57710  0.29332  1.0000
  C   C413      1.0  0.65466  0.52201  0.28764  1.0000
  H   H667      1.0  0.95630  0.60137  0.27408  1.0000
  C   C414      1.0  0.07100  0.31398  0.51032  1.0000
  S   S159      1.0  0.01882  0.70210  0.27471  1.0000
  H   H668      1.0  0.81495  0.71230  0.51251  1.0000
  H   H669      1.0  0.91035  0.55992  0.27309  1.0000
  H   H670      1.0  0.90450  0.31165  0.32414  1.0000
  S   S160      1.0  0.85147  0.28466  0.35878  1.0000
  H   H671      1.0  0.10682  0.73547  0.28959  1.0000
  C   C415      1.0  0.85643  0.75973  0.26818  1.0000
  C   C416      1.0  0.10518  0.45855  0.40819  1.0000
  C   C417      1.0  0.95812  0.37970  0.26799  1.0000
  H   H672      1.0  0.09992  0.77053  0.34307  1.0000
  H   H673      1.0  0.92760  0.27579  0.48738  1.0000
  H   H674      1.0  0.75799  0.76881  0.40615  1.0000
  H   H675      1.0  0.10868  0.41645  0.40531  1.0000
  H   H676      1.0  0.06574  0.35382  0.51439  1.0000
  S   S161      1.0  0.10280  0.35167  0.47545  1.0000
  Fe  Fe78      1.0  0.92389  0.41460  0.71107  1.0000
  S   S162      1.0  0.98761  0.45378  0.70754  1.0000
  S   S163      1.0  0.88956  0.37744  0.68571  1.0000
  Fe  Fe79      1.0  0.91925  0.43694  0.75496  1.0000
  S   S164      1.0  0.98293  0.47714  0.75515  1.0000
  H   H677      1.0  0.05951  0.54699  0.63751  1.0000
  Fe  Fe80      1.0  0.95952  0.51429  0.72717  1.0000
  N   N43       1.0  0.76362  0.54321  0.74958  1.0000
  Fe  Fe81      1.0  0.00447  0.41226  0.73570  1.0000
  H   H678      1.0  0.96733  0.45805  0.64309  1.0000
  S   S165      1.0  0.89383  0.47903  0.72839  1.0000
  S   S166      1.0  0.94259  0.36835  0.73784  1.0000
  H   H679      1.0  0.02726  0.43382  0.60764  1.0000
  C   C418      1.0  0.88390  0.74792  0.54911  1.0000
  C   C419      1.0  0.09010  0.64388  0.54730  1.0000
  H   H680      1.0  0.00626  0.31969  0.76177  1.0000
  H   H681      1.0  0.71496  0.53959  0.54761  1.0000
  H   H682      1.0  0.99439  0.51271  0.59331  1.0000
  C   C420      1.0  0.91855  0.58196  0.66606  1.0000
  H   H683      1.0  0.98479  0.56781  0.60862  1.0000
  H   H684      1.0  0.63213  0.52401  0.57295  1.0000
  C   C421      1.0  0.71557  0.69350  0.75234  1.0000
  H   H685      1.0  0.03884  0.55074  0.60193  1.0000
  C   C422      1.0  0.92947  0.57405  0.68593  1.0000
  Fe  Fe82      1.0  0.62512  0.62861  0.65519  1.0000
  H   H686      1.0  0.07201  0.47123  0.61613  1.0000
  C   C423      1.0  0.07360  0.32185  0.75424  1.0000
  C   C424      1.0  0.94009  0.64211  0.52334  1.0000
  H   H687      1.0  0.89658  0.55572  0.65889  1.0000
  H   H688      1.0  0.02824  0.50874  0.65464  1.0000
  C   C425      1.0  0.91022  0.72885  0.71910  1.0000
  C   C426      1.0  0.76666  0.52684  0.72867  1.0000
  Fe  Fe83      1.0  0.61233  0.74356  0.65597  1.0000
  C   C427      1.0  0.92435  0.36095  0.66619  1.0000
  C   C428      1.0  0.96894  0.36121  0.66886  1.0000
  C   C429      1.0  0.99649  0.34959  0.65302  1.0000
  C   C430      1.0  0.97956  0.33659  0.63455  1.0000
  C   C431      1.0  0.93495  0.33491  0.63198  1.0000
  C   C432      1.0  0.90737  0.34714  0.64779  1.0000
  H   H689      1.0  0.98234  0.36939  0.68318  1.0000
  H   H690      1.0  0.03098  0.34999  0.65518  1.0000
  C   C433      1.0  0.71832  0.55540  0.75445  1.0000
  C   C434      1.0  0.05183  0.67508  0.51833  1.0000
  H   H691      1.0  0.87288  0.34662  0.64566  1.0000
  N   N44       1.0  0.87506  0.74765  0.70619  1.0000
  S   S167      1.0  0.01458  0.32470  0.61468  1.0000
  N   N45       1.0  0.00981  0.50155  0.62407  1.0000
  C   C435      1.0  0.96661  0.48169  0.62925  1.0000
  H   H692      1.0  0.92166  0.32552  0.61766  1.0000
  C   C436      1.0  0.83129  0.71162  0.52664  1.0000
  C   C437      1.0  0.03912  0.45782  0.62011  1.0000
  C   C438      1.0  0.67543  0.60500  0.58719  1.0000
  H   H693      1.0  0.04195  0.43187  0.63324  1.0000
  H   H694      1.0  0.62801  0.67829  0.72297  1.0000
  S   S168      1.0  0.79274  0.61798  0.53362  1.0000
  H   H695      1.0  0.91589  0.54179  0.69394  1.0000
  C   C439      1.0  0.02668  0.53208  0.64075  1.0000
  N   N46       1.0  0.67540  0.58669  0.56648  1.0000
  S   S169      1.0  0.07001  0.37644  0.73882  1.0000
  C   C440      1.0  0.00689  0.53459  0.60618  1.0000
  H   H696      1.0  0.88049  0.68324  0.68637  1.0000
  H   H697      1.0  0.00582  0.56601  0.64380  1.0000
  H   H698      1.0  0.82518  0.58094  0.74971  1.0000
  H   H699      1.0  0.64680  0.62942  0.59046  1.0000
  S   S170      1.0  0.95059  0.76836  0.60959  1.0000
  H   H700      1.0  0.82794  0.74638  0.72963  1.0000
  H   H701      1.0  0.75499  0.55770  0.71841  1.0000
  H   H702      1.0  0.67499  0.57211  0.59788  1.0000
  H   H703      1.0  0.94328  0.51375  0.63166  1.0000
  S   S171      1.0  0.97047  0.59788  0.72030  1.0000
  C   C441      1.0  0.88048  0.72620  0.68609  1.0000
  H   H704      1.0  0.89025  0.70870  0.57719  1.0000
  C   C442      1.0  0.05641  0.67241  0.53894  1.0000
  H   H705      1.0  0.05186  0.28405  0.53873  1.0000
  H   H706      1.0  0.78087  0.62122  0.74230  1.0000
  H   H707      1.0  0.94233  0.74066  0.71332  1.0000
  C   C443      1.0  0.95757  0.60790  0.69536  1.0000
  H   H708      1.0  0.71171  0.51788  0.57299  1.0000
  C   C444      1.0  0.67795  0.63133  0.55279  1.0000
  H   H709      1.0  0.81286  0.49032  0.75912  1.0000
  H   H710      1.0  0.80047  0.51771  0.72441  1.0000
  S   S172      1.0  0.97618  0.66935  0.58152  1.0000
  S   S173      1.0  0.03706  0.69818  0.62005  1.0000
  Fe  Fe84      1.0  0.04482  0.68944  0.58719  1.0000
  C   C445      1.0  0.69127  0.69079  0.73494  1.0000
  Fe  Fe85      1.0  0.96702  0.68494  0.61386  1.0000
  H   H711      1.0  0.65055  0.65842  0.55496  1.0000
  H   H712      1.0  0.89688  0.27734  0.70632  1.0000
  H   H713      1.0  0.70838  0.65330  0.55484  1.0000
  C   C446      1.0  0.84452  0.67096  0.55846  1.0000
  S   S174      1.0  0.71577  0.69929  0.71169  1.0000
  H   H714      1.0  0.69728  0.52100  0.75301  1.0000
  S   S175      1.0  0.63368  0.55879  0.63589  1.0000
  C   C447      1.0  0.64741  0.67928  0.73613  1.0000
  H   H715      1.0  0.03409  0.69302  0.54828  1.0000
  H   H716      1.0  0.83110  0.68813  0.71537  1.0000
  S   S176      1.0  0.09686  0.64237  0.57307  1.0000
  C   C448      1.0  0.87426  0.70944  0.56301  1.0000
  C   C449      1.0  0.93656  0.62295  0.65539  1.0000
  S   S177      1.0  0.92462  0.62941  0.63021  1.0000
  S   S178      1.0  0.67188  0.69432  0.65546  1.0000
  H   H717      1.0  0.91261  0.64053  0.53389  1.0000
  H   H718      1.0  0.67721  0.61882  0.53705  1.0000
  C   C450      1.0  0.77903  0.50121  0.76267  1.0000
  H   H719      1.0  0.74704  0.49178  0.72592  1.0000
  C   C451      1.0  0.71301  0.55269  0.56327  1.0000
  C   C452      1.0  0.63542  0.55763  0.56269  1.0000
  H   H720      1.0  0.91040  0.68600  0.72025  1.0000
  H   H721      1.0  0.99704  0.67568  0.69204  1.0000
  H   H722      1.0  0.74929  0.70355  0.75161  1.0000
  H   H723      1.0  0.83851  0.64013  0.56899  1.0000
  H   H724      1.0  0.97904  0.68838  0.65648  1.0000
  S   S179      1.0  0.62257  0.62099  0.68826  1.0000
  H   H725      1.0  0.75919  0.46585  0.76114  1.0000
  H   H726      1.0  0.95355  0.45671  0.61735  1.0000
  C   C453      1.0  0.03755  0.30300  0.76439  1.0000
  C   C454      1.0  0.82388  0.67128  0.54010  1.0000
  C   C455      1.0  0.97508  0.64957  0.68480  1.0000
  H   H727      1.0  0.63466  0.54277  0.54723  1.0000
  C   C456      1.0  0.83320  0.73092  0.71447  1.0000
  C   C457      1.0  0.96499  0.65671  0.66470  1.0000
  H   H728      1.0  0.89272  0.55609  0.52085  1.0000
  Fe  Fe86      1.0  0.66394  0.69173  0.68857  1.0000
  H   H729      1.0  0.90738  0.74448  0.73436  1.0000
  H   H730      1.0  0.74368  0.57311  0.56650  1.0000
  H   H731      1.0  0.70462  0.62823  0.59043  1.0000
  C   C458      1.0  0.86162  0.74987  0.53112  1.0000
  H   H732      1.0  0.91145  0.73868  0.67927  1.0000
  C   C459      1.0  0.62809  0.66905  0.75447  1.0000
  H   H733      1.0  0.85419  0.73890  0.67601  1.0000
  C   C460      1.0  0.79054  0.58944  0.75251  1.0000
  H   H734      1.0  0.94888  0.53990  0.51876  1.0000
  H   H735      1.0  0.96885  0.62701  0.53128  1.0000
  H   H736      1.0  0.70518  0.58569  0.74439  1.0000
  Fe  Fe87      1.0  0.96630  0.75445  0.57774  1.0000
  H   H737      1.0  0.94601  0.68358  0.51988  1.0000
  H   H738      1.0  0.80584  0.74437  0.70510  1.0000
  S   S180      1.0  0.03618  0.77326  0.58024  1.0000
  C   C461      1.0  0.06254  0.27443  0.52401  1.0000
  H   H739      1.0  0.76175  0.31925  0.86302  1.0000
  C   C462      1.0  0.05147  0.66583  0.00640  1.0000
  C   C463      1.0  0.09019  0.67131  0.99599  1.0000
  Fe  Fe88      1.0  0.66398  0.36872  0.95175  1.0000
  S   S181      1.0  0.73581  0.36944  0.95431  1.0000
  H   H740      1.0  0.73130  0.56428  0.00118  1.0000
  N   N47       1.0  0.07881  0.44194  0.79780  1.0000
  Fe  Fe89      1.0  0.72422  0.33567  0.98448  1.0000
  H   H741      1.0  0.83670  0.74839  0.86094  1.0000
  H   H742      1.0  0.76294  0.58199  0.97998  1.0000
  S   S182      1.0  0.65238  0.34093  0.98268  1.0000
  C   C464      1.0  0.80676  0.76702  0.85540  1.0000
  C   C465      1.0  0.08047  0.46310  0.81806  1.0000
  H   H743      1.0  0.63281  0.53235  0.91569  1.0000
  C   C466      1.0  0.87693  0.58729  0.78813  1.0000
  H   H744      1.0  0.75467  0.42051  0.82425  1.0000
  S   S183      1.0  0.71828  0.48557  0.85711  1.0000
  C   C467      1.0  0.83483  0.55113  0.81502  1.0000
  H   H745      1.0  0.83686  0.62911  0.98039  1.0000
  H   H746      1.0  0.77810  0.51292  0.77852  1.0000
  H   H747      1.0  0.68901  0.31920  0.84885  1.0000
  H   H748      1.0  0.75273  0.53919  0.94811  1.0000
  S   S184      1.0  0.62732  0.65724  0.79449  1.0000
  H   H749      1.0  0.71490  0.56976  0.76990  1.0000
  H   H750      1.0  0.73326  0.28314  0.81129  1.0000
  H   H751      1.0  0.87775  0.43897  0.98041  1.0000
  C   C468      1.0  0.65524  0.45367  0.91702  1.0000
  S   S185      1.0  0.75046  0.36495  0.01336  1.0000
  C   C469      1.0  0.67095  0.51301  0.88998  1.0000
  C   C470      1.0  0.69422  0.47428  0.88027  1.0000
  C   C471      1.0  0.69831  0.42557  0.88911  1.0000
  C   C472      1.0  0.67930  0.41552  0.90751  1.0000
  C   C473      1.0  0.90635  0.69975  0.00794  1.0000
  H   H752      1.0  0.66792  0.55083  0.88333  1.0000
  H   H753      1.0  0.71627  0.39545  0.88185  1.0000
  H   H754      1.0  0.68297  0.37795  0.91423  1.0000
  C   C474      1.0  0.87089  0.49427  0.79185  1.0000
  C   C475      1.0  0.74760  0.54887  0.98775  1.0000
  C   C476      1.0  0.65254  0.67000  0.77177  1.0000
  S   S186      1.0  0.88020  0.43185  0.78288  1.0000
  H   H755      1.0  0.83298  0.46818  0.81672  1.0000
  C   C477      1.0  0.75970  0.38079  0.81839  1.0000
  H   H756      1.0  0.08044  0.46956  0.76769  1.0000
  H   H757      1.0  0.84820  0.69643  0.97846  1.0000
  H   H758      1.0  0.69378  0.38702  0.84425  1.0000
  C   C478      1.0  0.82111  0.40721  0.99443  1.0000
  C   C479      1.0  0.69634  0.68246  0.77075  1.0000
  S   S187      1.0  0.72647  0.58557  0.81550  1.0000
  H   H759      1.0  0.89426  0.73858  0.00344  1.0000
  C   C480      1.0  0.77219  0.34691  0.85125  1.0000
  H   H760      1.0  0.08553  0.54963  0.94837  1.0000
  H   H761      1.0  0.77369  0.52223  0.99271  1.0000
  H   H762      1.0  0.67970  0.34447  0.82447  1.0000
  H   H763      1.0  0.80878  0.39097  0.98091  1.0000
  H   H764      1.0  0.99465  0.52117  0.98256  1.0000
  H   H765      1.0  0.90647  0.53246  0.76854  1.0000
  C   C481      1.0  0.84527  0.50124  0.80870  1.0000
  H   H766      1.0  0.70012  0.28990  0.90133  1.0000
  H   H767      1.0  0.89019  0.65017  0.97389  1.0000
  H   H768      1.0  0.81481  0.55620  0.82801  1.0000
  C   C482      1.0  0.73933  0.50577  0.95645  1.0000
  N   N48       1.0  0.06139  0.51230  0.97466  1.0000
  H   H769      1.0  0.93627  0.69207  0.99935  1.0000
  H   H770      1.0  0.02655  0.48856  0.00076  1.0000
  C   C483      1.0  0.85027  0.59421  0.80463  1.0000
  C   C484      1.0  0.86024  0.43432  0.99418  1.0000
  C   C485      1.0  0.89084  0.60874  0.01062  1.0000
  H   H771      1.0  0.76926  0.38657  0.85738  1.0000
  H   H772      1.0  0.69333  0.59318  0.96180  1.0000
  S   S188      1.0  0.92766  0.48511  0.01146  1.0000
  C   C486      1.0  0.10374  0.51261  0.98456  1.0000
  S   S189      1.0  0.66010  0.28990  0.93849  1.0000
  C   C487      1.0  0.08145  0.48450  0.78316  1.0000
  C   C488      1.0  0.03795  0.41384  0.79516  1.0000
  C   C489      1.0  0.05978  0.55421  0.95973  1.0000
  H   H773      1.0  0.74094  0.37770  0.80445  1.0000
  S   S190      1.0  0.63223  0.44035  0.94021  1.0000
  H   H774      1.0  0.65805  0.53914  0.95908  1.0000
  N   N49       1.0  0.74630  0.34131  0.83306  1.0000
  Fe  Fe90      1.0  0.73139  0.28811  0.94345  1.0000
  H   H775      1.0  0.02330  0.46052  0.95724  1.0000
  H   H776      1.0  0.71533  0.68385  0.78412  1.0000
  H   H777      1.0  0.86714  0.57733  0.00811  1.0000
  C   C490      1.0  0.87753  0.45355  0.01182  1.0000
  H   H778      1.0  0.80724  0.76457  0.83892  1.0000
  C   C491      1.0  0.68125  0.55783  0.96935  1.0000
  H   H779      1.0  0.79444  0.37700  0.81452  1.0000
  Fe  Fe91      1.0  0.70727  0.68068  0.85839  1.0000
  H   H780      1.0  0.92048  0.59875  0.00217  1.0000
  H   H781      1.0  0.05641  0.42961  0.97559  1.0000
  H   H782      1.0  0.05301  0.48963  0.82099  1.0000
  Fe  Fe92      1.0  0.67505  0.64512  0.81874  1.0000
  H   H783      1.0  0.68302  0.48787  0.99922  1.0000
  H   H784      1.0  0.00954  0.43895  0.79813  1.0000
  C   C492      1.0  0.69920  0.47692  0.98514  1.0000
  C   C493      1.0  0.79896  0.39974  0.01231  1.0000
  C   C494      1.0  0.05507  0.46218  0.96478  1.0000
  Fe  Fe93      1.0  0.71436  0.56850  0.84758  1.0000
  H   H785      1.0  0.80905  0.64233  0.01438  1.0000
  N   N50       1.0  0.87351  0.65958  0.00463  1.0000
  C   C495      1.0  0.88692  0.53736  0.78164  1.0000
  S   S191      1.0  0.65770  0.62225  0.84985  1.0000
  H   H786      1.0  0.08032  0.45526  0.95331  1.0000
  Fe  Fe94      1.0  0.77034  0.64666  0.82684  1.0000
  H   H787      1.0  0.72496  0.44867  0.98881  1.0000
  N   N51       1.0  0.71682  0.52240  0.97466  1.0000
  S   S192      1.0  0.74564  0.68441  0.96931  1.0000
  S   S193      1.0  0.69609  0.74222  0.88105  1.0000
  S   S194      1.0  0.71985  0.70822  0.82733  1.0000
  C   C496      1.0  0.73422  0.69999  0.94440  1.0000
  C   C497      1.0  0.72810  0.75143  0.93873  1.0000
  C   C498      1.0  0.75306  0.28923  0.82478  1.0000
  C   C499      1.0  0.71110  0.72504  0.90524  1.0000
  C   C500      1.0  0.71904  0.67363  0.91055  1.0000
  C   C501      1.0  0.73039  0.66111  0.93016  1.0000
  H   H788      1.0  0.02164  0.67852  0.99973  1.0000
  H   H789      1.0  0.71559  0.64345  0.89968  1.0000
  H   H790      1.0  0.03587  0.37969  0.80519  1.0000
  H   H791      1.0  0.73591  0.62135  0.93418  1.0000
  S   S195      1.0  0.76280  0.62515  0.85881  1.0000
  Fe  Fe95      1.0  0.74673  0.75699  0.98746  1.0000
  S   S196      1.0  0.83342  0.65631  0.81134  1.0000
  C   C502      1.0  0.71575  0.76386  0.91935  1.0000
  H   H792      1.0  0.07952  0.43174  0.82942  1.0000
  H   H793      1.0  0.05420  0.51208  0.78487  1.0000
  H   H794      1.0  0.06425  0.59260  0.96666  1.0000
  H   H795      1.0  0.76643  0.47905  0.95988  1.0000
  C   C503      1.0  0.70021  0.34832  0.83785  1.0000
  H   H796      1.0  0.77927  0.74338  0.86082  1.0000
  H   H797      1.0  0.10580  0.48219  0.99624  1.0000
  H   H798      1.0  0.82154  0.70961  0.01258  1.0000
  C   C504      1.0  0.86180  0.65870  0.98341  1.0000
  S   S197      1.0  0.08951  0.69780  0.97206  1.0000
  H   H799      1.0  0.80695  0.33992  0.84833  1.0000
  H   H800      1.0  0.02847  0.55498  0.95180  1.0000
  H   H801      1.0  0.03480  0.39975  0.77973  1.0000
  H   H802      1.0  0.71713  0.48543  0.94624  1.0000
  H   H803      1.0  0.66299  0.57051  0.98265  1.0000
  C   C505      1.0  0.02705  0.52022  0.98954  1.0000
  H   H804      1.0  0.88889  0.62049  0.78004  1.0000
  C   C506      1.0  0.65110  0.50255  0.90830  1.0000
  H   H805      1.0  0.67509  0.45664  0.97594  1.0000
  H   H806      1.0  0.03141  0.55706  0.99765  1.0000
  H   H807      1.0  0.78734  0.28265  0.82070  1.0000
  H   H808      1.0  0.78787  0.60408  0.76798  1.0000
  H   H809      1.0  0.10994  0.55032  0.99182  1.0000
  H   H810      1.0  0.88540  0.98690  0.04350  1.0000
  C   C507      1.0  0.91235  0.84521  0.01854  1.0000
  Fe  Fe96      1.0  0.10764  0.87034  0.09272  1.0000
  C   C508      1.0  0.96643  0.98828  0.05741  1.0000
  H   H811      1.0  0.10886  0.01021  0.16502  1.0000
  H   H812      1.0  0.00247  0.82781  0.05773  1.0000
  S   S198      1.0  0.01209  0.84432  0.19157  1.0000
  S   S199      1.0  0.03573  0.89039  0.02564  1.0000
  S   S200      1.0  0.08877  0.09535  0.19018  1.0000
  Fe  Fe97      1.0  0.01089  0.24686  0.22164  1.0000
  H   H813      1.0  0.04219  0.02248  0.24770  1.0000
  C   C509      1.0  0.04126  0.83143  0.16988  1.0000
  C   C510      1.0  0.04869  0.87147  0.15630  1.0000
  C   C511      1.0  0.07108  0.86187  0.13864  1.0000
  C   C512      1.0  0.09038  0.95107  0.21179  1.0000
  H   H814      1.0  0.03644  0.90980  0.15925  1.0000
  Fe  Fe98      1.0  0.10503  0.24513  0.23267  1.0000
  C   C513      1.0  0.98568  0.86074  0.02944  1.0000
  H   H815      1.0  0.03310  0.88823  0.22919  1.0000
  H   H816      1.0  0.08089  0.91831  0.20213  1.0000
  H   H817      1.0  0.62702  0.26359  0.07228  1.0000
  H   H818      1.0  0.01582  0.93208  0.24806  1.0000
  C   C514      1.0  0.97736  0.83310  0.04688  1.0000
  Fe  Fe99      1.0  0.70573  0.83293  0.01620  1.0000
  S   S201      1.0  0.04293  0.90160  0.08426  1.0000
  H   H819      1.0  0.90184  0.92271  0.05000  1.0000
  H   H820      1.0  0.10871  0.25825  0.12527  1.0000
  Fe  Fe100     1.0  0.07108  0.90789  0.05378  1.0000
  H   H821      1.0  0.00598  0.94954  0.20351  1.0000
  C   C515      1.0  0.05393  0.20102  0.10383  1.0000
  S   S202      1.0  0.94306  0.25487  0.23290  1.0000
  C   C516      1.0  0.62556  0.16276  0.04352  1.0000
  S   S203      1.0  0.95307  0.78369  0.23620  1.0000
  H   H822      1.0  0.02498  0.01474  0.20297  1.0000
  H   H823      1.0  0.99275  0.00464  0.06656  1.0000
  C   C517      1.0  0.01711  0.98179  0.21302  1.0000
  C   C518      1.0  0.89234  0.96072  0.05625  1.0000
  N   N52       1.0  0.05470  0.96634  0.22507  1.0000
  H   H824      1.0  0.07071  0.91004  0.24745  1.0000
  H   H825      1.0  0.68404  0.25623  0.06981  1.0000
  N   N53       1.0  0.92648  0.98169  0.06909  1.0000
  C   C519      1.0  0.08648  0.03508  0.15725  1.0000
  Fe  Fe101     1.0  0.07342  0.17582  0.20032  1.0000
  C   C520      1.0  0.66166  0.17306  0.03175  1.0000
  S   S204      1.0  0.64793  0.85770  0.03380  1.0000
  C   C521      1.0  0.93665  0.81140  0.05011  1.0000
  H   H826      1.0  0.93804  0.04877  0.08683  1.0000
  C   C522      1.0  0.91284  0.03220  0.07702  1.0000
  S   S205      1.0  0.05462  0.18387  0.23220  1.0000
  S   S206      1.0  0.02448  0.23339  0.18938  1.0000
  H   H827      1.0  0.96152  0.01455  0.04451  1.0000
  H   H828      1.0  0.07697  0.04428  0.22813  1.0000
  Fe  Fe102     1.0  0.07283  0.97894  0.08934  1.0000
  S   S207      1.0  0.03327  0.04314  0.10262  1.0000
  H   H829      1.0  0.96019  0.96018  0.09568  1.0000
  S   S208      1.0  0.09551  0.98826  0.05796  1.0000
  C   C523      1.0  0.06832  0.01023  0.23742  1.0000
  C   C524      1.0  0.08720  0.81256  0.13476  1.0000
  H   H830      1.0  0.90676  0.06057  0.06489  1.0000
  H   H831      1.0  0.69331  0.17390  0.03837  1.0000
  H   H832      1.0  0.97814  0.95086  0.05151  1.0000
  H   H833      1.0  0.75661  0.77736  0.24892  1.0000
  C   C525      1.0  0.05723  0.78197  0.16599  1.0000
  C   C526      1.0  0.07086  0.07979  0.16632  1.0000
  C   C527      1.0  0.04150  0.11131  0.15622  1.0000
  C   C528      1.0  0.02850  0.09857  0.13696  1.0000
  C   C529      1.0  0.04557  0.05496  0.12760  1.0000
  C   C530      1.0  0.07398  0.02283  0.13791  1.0000
  H   H834      1.0  0.03936  0.23259  0.09474  1.0000
  H   H835      1.0  0.02855  0.14522  0.16328  1.0000
  H   H836      1.0  0.00554  0.12280  0.12927  1.0000
  C   C531      1.0  0.78195  0.77552  0.25981  1.0000
  C   C532      1.0  0.93444  0.94557  0.08572  1.0000
  H   H837      1.0  0.09680  0.99997  0.24661  1.0000
  H   H838      1.0  0.04046  0.16376  0.09857  1.0000
  C   C533      1.0  0.90404  0.81776  0.03602  1.0000
  S   S209      1.0  0.85336  0.79085  0.04069  1.0000
  Fe  Fe103     1.0  0.80079  0.80904  0.01878  1.0000
  H   H839      1.0  0.88275  0.02877  0.08592  1.0000
  H   H840      1.0  0.90501  0.93986  0.09491  1.0000
  S   S210      1.0  0.63102  0.15606  0.06916  1.0000
  S   S211      1.0  0.76424  0.88360  0.01672  1.0000
  H   H841      1.0  0.10007  0.98351  0.20186  1.0000
  H   H842      1.0  0.98948  0.99361  0.22248  1.0000
  C   C534      1.0  0.04308  0.92228  0.23803  1.0000
  H   H843      1.0  0.94466  0.90697  0.08026  1.0000
  H   H844      1.0  0.07570  0.89273  0.12805  1.0000
  H   H845      1.0  0.86173  0.95482  0.06456  1.0000
  H   H846      1.0  0.04295  0.20641  0.11940  1.0000
  H   H847      1.0  0.10800  0.12085  0.10962  1.0000
  H   H848      1.0  0.10928  0.16301  0.13057  1.0000
  H   H849      1.0  0.08637  0.98843  0.13108  1.0000
  H   H850      1.0  0.93029  0.78987  0.06359  1.0000
  H   H851      1.0  0.10238  0.15658  0.07577  1.0000
  N   N54       1.0  0.10138  0.20146  0.10244  1.0000
  H   H852      1.0  0.10134  0.22529  0.07188  1.0000
  C   C535      1.0  0.87558  0.85398  0.38252  1.0000
  H   H853      1.0  0.65155  0.15708  0.36279  1.0000
  N   N55       1.0  0.83178  0.85471  0.37404  1.0000
  H   H854      1.0  0.99247  0.21889  0.33415  1.0000
  C   C536      1.0  0.80125  0.87642  0.38865  1.0000
  H   H855      1.0  0.94349  0.11396  0.49758  1.0000
  S   S212      1.0  0.69583  0.83996  0.35070  1.0000
  C   C537      1.0  0.78357  0.26328  0.41809  1.0000
  S   S213      1.0  0.68394  0.87226  0.30376  1.0000
  C   C538      1.0  0.09333  0.86481  0.38018  1.0000
  H   H856      1.0  0.76791  0.87795  0.38266  1.0000
  Fe  Fe104     1.0  0.65053  0.88778  0.33258  1.0000
  H   H857      1.0  0.71593  0.20454  0.39246  1.0000
  Fe  Fe105     1.0  0.08577  0.94648  0.34396  1.0000
  C   C539      1.0  0.97494  0.25572  0.33139  1.0000
  N   N56       1.0  0.94706  0.25213  0.31376  1.0000
  H   H858      1.0  0.99060  0.20336  0.29757  1.0000
  S   S214      1.0  0.05821  0.87874  0.36047  1.0000
  H   H859      1.0  0.67877  0.12292  0.38229  1.0000
  C   C540      1.0  0.64455  0.85091  0.45355  1.0000
  C   C541      1.0  0.81875  0.80157  0.36905  1.0000
  C   C542      1.0  0.77338  0.78941  0.27946  1.0000
  H   H860      1.0  0.07219  0.23856  0.32214  1.0000
  H   H861      1.0  0.09201  0.17144  0.49605  1.0000
  H   H862      1.0  0.89485  0.21765  0.33001  1.0000
  C   C543      1.0  0.95627  0.20672  0.51419  1.0000
  H   H863      1.0  0.71710  0.90613  0.45273  1.0000
  H   H864      1.0  0.74438  0.24149  0.37415  1.0000
  H   H865      1.0  0.06858  0.81090  0.30254  1.0000
  C   C544      1.0  0.09940  0.82474  0.30896  1.0000
  C   C545      1.0  0.97350  0.24095  0.29604  1.0000
  H   H866      1.0  0.63012  0.00591  0.38409  1.0000
  S   S215      1.0  0.75290  0.25405  0.43964  1.0000
  H   H867      1.0  0.10964  0.77799  0.41754  1.0000
  C   C546      1.0  0.71516  0.97539  0.35450  1.0000
  H   H868      1.0  0.80050  0.85307  0.40254  1.0000
  S   S216      1.0  0.79568  0.80690  0.31803  1.0000
  H   H869      1.0  0.72231  0.96076  0.33986  1.0000
  H   H870      1.0  0.74124  0.80085  0.28366  1.0000
  H   H871      1.0  0.88632  0.89352  0.38655  1.0000
  C   C547      1.0  0.91233  0.23701  0.48713  1.0000
  Fe  Fe106     1.0  0.67704  0.08712  0.45175  1.0000
  S   S217      1.0  0.72627  0.02431  0.45437  1.0000
  C   C548      1.0  0.08681  0.82148  0.39231  1.0000
  Fe  Fe107     1.0  0.74421  0.17002  0.44593  1.0000
  S   S218      1.0  0.79934  0.11442  0.44795  1.0000
  C   C549      1.0  0.75909  0.13942  0.36903  1.0000
  Fe  Fe108     1.0  0.75822  0.06417  0.42887  1.0000
  S   S219      1.0  0.78219  0.02130  0.40225  1.0000
  Fe  Fe109     1.0  0.76176  0.08082  0.47323  1.0000
  H   H872      1.0  0.08153  0.09969  0.28798  1.0000
  S   S220      1.0  0.70623  0.12295  0.42469  1.0000
  S   S221      1.0  0.70946  0.14067  0.47286  1.0000
  H   H873      1.0  0.72554  0.15180  0.33269  1.0000
  H   H874      1.0  0.65522  0.86264  0.46860  1.0000
  H   H875      1.0  0.87704  0.82980  0.39620  1.0000
  Fe  Fe110     1.0  0.72448  0.81732  0.32156  1.0000
  S   S222      1.0  0.79518  0.05585  0.50100  1.0000
  S   S223      1.0  0.04698  0.13194  0.32533  1.0000
  H   H876      1.0  0.68331  0.10090  0.35727  1.0000
  H   H877      1.0  0.72022  0.85704  0.43424  1.0000
  H   H878      1.0  0.85324  0.87080  0.34428  1.0000
  C   C550      1.0  0.83157  0.88694  0.35589  1.0000
  H   H879      1.0  0.65937  0.81263  0.45053  1.0000
  H   H880      1.0  0.97198  0.18870  0.46489  1.0000
  H   H881      1.0  0.75140  0.21060  0.34010  1.0000
  H   H882      1.0  0.78576  0.80076  0.36269  1.0000
  H   H883      1.0  0.89950  0.83825  0.37180  1.0000
  C   C551      1.0  0.98092  0.19639  0.48055  1.0000
  C   C552      1.0  0.82957  0.22992  0.39198  1.0000
  C   C553      1.0  0.80648  0.22237  0.40963  1.0000
  N   N57       1.0  0.65710  0.88949  0.43838  1.0000
  H   H884      1.0  0.78475  0.16596  0.49558  1.0000
  H   H885      1.0  0.87384  0.77486  0.29853  1.0000
  H   H886      1.0  0.84724  0.19821  0.38549  1.0000
  H   H887      1.0  0.80628  0.18483  0.41655  1.0000
  H   H888      1.0  0.71518  0.92376  0.42693  1.0000
  Fe  Fe111     1.0  0.64950  0.77586  0.34518  1.0000
  H   H889      1.0  0.99792  0.23418  0.48092  1.0000
  H   H890      1.0  0.75917  0.12836  0.38501  1.0000
  C   C554      1.0  0.70448  0.89438  0.43801  1.0000
  N   N58       1.0  0.72003  0.16903  0.36373  1.0000
  H   H891      1.0  0.68690  0.23769  0.37322  1.0000
  H   H892      1.0  0.81025  0.91651  0.39276  1.0000
  H   H893      1.0  0.10900  0.24142  0.47224  1.0000
  H   H894      1.0  0.88365  0.23863  0.49703  1.0000
  C   C555      1.0  0.63749  0.93981  0.44334  1.0000
  C   C556      1.0  0.71659  0.21511  0.37644  1.0000
  H   H895      1.0  0.69389  0.20813  0.33822  1.0000
  C   C557      1.0  0.07423  0.16604  0.30673  1.0000
  C   C558      1.0  0.73966  0.00624  0.38637  1.0000
  N   N59       1.0  0.94272  0.19642  0.49365  1.0000
  Fe  Fe112     1.0  0.63850  0.80524  0.30186  1.0000
  C   C559      1.0  0.69687  0.01246  0.39244  1.0000
  H   H896      1.0  0.64814  0.95349  0.45814  1.0000
  C   C560      1.0  0.61745  0.00802  0.50763  1.0000
  H   H897      1.0  0.79880  0.88919  0.34928  1.0000
  H   H898      1.0  0.65097  0.90117  0.40691  1.0000
  H   H899      1.0  0.95572  0.26429  0.34497  1.0000
  C   C561      1.0  0.80646  0.78926  0.29345  1.0000
  S   S224      1.0  0.63073  0.96446  0.34457  1.0000
  H   H900      1.0  0.76167  0.10311  0.36039  1.0000
  C   C562      1.0  0.68172  0.13612  0.36663  1.0000
  C   C563      1.0  0.92138  0.14557  0.49287  1.0000
  H   H901      1.0  0.65912  0.04597  0.48670  1.0000
  C   C564      1.0  0.72281  0.18553  0.34275  1.0000
  C   C565      1.0  0.66322  0.00121  0.37937  1.0000
  C   C566      1.0  0.08877  0.14015  0.28989  1.0000
  S   S225      1.0  0.06077  0.97901  0.31521  1.0000
  H   H902      1.0  0.63773  0.88280  0.26798  1.0000
  H   H903      1.0  0.78873  0.16217  0.36611  1.0000
  C   C567      1.0  0.80186  0.15904  0.50923  1.0000
  H   H904      1.0  0.95340  0.23883  0.28242  1.0000
  H   H905      1.0  0.89389  0.20644  0.30376  1.0000
  C   C568      1.0  0.91549  0.21027  0.31679  1.0000
  H   H906      1.0  0.68959  0.02544  0.40724  1.0000
  H   H907      1.0  0.81908  0.77580  0.38229  1.0000
  C   C569      1.0  0.62691  0.03213  0.48953  1.0000
  H   H908      1.0  0.84056  0.78446  0.35771  1.0000
  H   H909      1.0  0.90064  0.22998  0.47181  1.0000
  Fe  Fe113     1.0  0.08024  0.05534  0.32800  1.0000
  H   H910      1.0  0.78170  0.98422  0.36250  1.0000
  H   H911      1.0  0.84240  0.92695  0.35896  1.0000
  H   H912      1.0  0.89302  0.14409  0.50295  1.0000
  C   C570      1.0  0.08303  0.21858  0.30902  1.0000
  H   H913      1.0  0.65591  0.83489  0.41453  1.0000
  C   C571      1.0  0.08630  0.21120  0.50011  1.0000
  C   C572      1.0  0.74872  0.98809  0.36735  1.0000
  C   C573      1.0  0.67239  0.98230  0.36045  1.0000
  C   C574      1.0  0.64190  0.87288  0.41869  1.0000
  H   H914      1.0  0.90974  0.13668  0.47770  1.0000
  C   C575      1.0  0.09578  0.25076  0.48661  1.0000
  H   H915      1.0  0.09121  0.84809  0.32223  1.0000
  H   H916      1.0  0.05962  0.79650  0.38973  1.0000
  C   C576      1.0  0.10689  0.24505  0.29451  1.0000
  H   H917      1.0  0.00456  0.16634  0.48521  1.0000
  S   S226      1.0  0.09832  0.02360  0.35775  1.0000
  H   H918      1.0  0.64623  0.97020  0.43233  1.0000
  H   H919      1.0  0.93190  0.17246  0.31916  1.0000
  H   H920      1.0  0.99822  0.27126  0.29343  1.0000
  C   C577      1.0  0.84809  0.77466  0.28779  1.0000
  C   C578      1.0  0.93545  0.18770  0.71625  1.0000
  C   C579      1.0  0.98562  0.90167  0.58359  1.0000
  S   S227      1.0  0.06264  0.17346  0.53624  1.0000
  S   S228      1.0  0.98010  0.27025  0.56240  1.0000
  H   H921      1.0  0.88087  0.92882  0.59366  1.0000
  C   C580      1.0  0.03206  0.90323  0.66206  1.0000
  S   S229      1.0  0.98139  0.86900  0.71587  1.0000
  S   S230      1.0  0.04462  0.85301  0.62704  1.0000
  H   H922      1.0  0.93022  0.96830  0.61858  1.0000
  H   H923      1.0  0.90317  0.89662  0.57240  1.0000
  C   C581      1.0  0.99927  0.86433  0.69122  1.0000
  C   C582      1.0  0.90874  0.90569  0.58831  1.0000
  C   C583      1.0  0.02699  0.85712  0.65168  1.0000
  C   C584      1.0  0.00788  0.81462  0.66102  1.0000
  C   C585      1.0  0.99438  0.81810  0.68083  1.0000
  H   H924      1.0  0.64240  0.00347  0.51866  1.0000
  H   H925      1.0  0.91550  0.17900  0.66685  1.0000
  C   C586      1.0  0.01811  0.90682  0.68179  1.0000
  H   H926      1.0  0.90862  0.86832  0.59650  1.0000
  H   H927      1.0  0.66244  0.86417  0.75639  1.0000
  C   C587      1.0  0.94833  0.98290  0.58005  1.0000
  H   H928      1.0  0.98074  0.78478  0.68812  1.0000
  C   C588      1.0  0.89111  0.24423  0.69624  1.0000
  H   H929      1.0  0.88893  0.14472  0.68667  1.0000
  C   C589      1.0  0.81059  0.10848  0.51546  1.0000
  H   H930      1.0  0.95757  0.90721  0.62123  1.0000
  C   C590      1.0  0.95632  0.94364  0.61241  1.0000
  H   H931      1.0  0.92165  0.00803  0.58541  1.0000
  H   H932      1.0  0.97286  0.24454  0.51543  1.0000
  N   N60       1.0  0.94972  0.93351  0.59109  1.0000
  Fe  Fe114     1.0  0.99570  0.94763  0.72820  1.0000
  Fe  Fe115     1.0  0.95506  0.03574  0.75063  1.0000
  S   S231      1.0  0.01584  0.08130  0.75034  1.0000
  C   C591      1.0  0.91898  0.16528  0.68244  1.0000
  Fe  Fe116     1.0  0.02270  0.05663  0.71895  1.0000
  S   S232      1.0  0.04613  0.11711  0.69777  1.0000
  H   H933      1.0  0.83986  0.06085  0.53795  1.0000
  C   C592      1.0  0.84001  0.19220  0.53777  1.0000
  Fe  Fe117     1.0  0.92143  0.22187  0.56746  1.0000
  S   S233      1.0  0.95559  0.14660  0.56273  1.0000
  H   H934      1.0  0.04126  0.18039  0.66269  1.0000
  C   C593      1.0  0.83335  0.09990  0.53303  1.0000
  S   S234      1.0  0.03070  0.19006  0.59229  1.0000
  Fe  Fe118     1.0  0.01502  0.19471  0.56006  1.0000
  H   H935      1.0  0.90705  0.81846  0.69845  1.0000
  Fe  Fe119     1.0  0.96769  0.14904  0.59539  1.0000
  S   S235      1.0  0.96016  0.07896  0.61471  1.0000
  H   H936      1.0  0.86112  0.22477  0.70126  1.0000
  H   H937      1.0  0.99602  0.21120  0.69003  1.0000
  S   S236      1.0  0.95844  0.01760  0.71826  1.0000
  H   H938      1.0  0.98724  0.96417  0.61501  1.0000
  H   H939      1.0  0.98139  0.89207  0.56765  1.0000
  H   H940      1.0  0.97331  0.27073  0.69847  1.0000
  H   H941      1.0  0.04674  0.93624  0.65487  1.0000
  H   H942      1.0  0.94532  0.13627  0.68264  1.0000
  C   C594      1.0  0.84811  0.14172  0.54415  1.0000
  C   C595      1.0  0.96694  0.23617  0.68923  1.0000
  H   H943      1.0  0.97871  0.17642  0.51969  1.0000
  S   S237      1.0  0.86233  0.24470  0.55028  1.0000
  N   N61       1.0  0.92811  0.20833  0.69605  1.0000
  C   C596      1.0  0.02600  0.10472  0.67408  1.0000
  C   C597      1.0  0.00626  0.05757  0.67007  1.0000
  C   C598      1.0  0.98637  0.04948  0.65175  1.0000
  C   C599      1.0  0.98573  0.08888  0.63749  1.0000
  C   C600      1.0  0.00525  0.13618  0.64158  1.0000
  C   C601      1.0  0.02610  0.14376  0.65969  1.0000
  H   H944      1.0  0.00619  0.02734  0.68110  1.0000
  H   H945      1.0  0.97125  0.01286  0.64876  1.0000
  H   H946      1.0  0.00393  0.16728  0.63092  1.0000
  H   H947      1.0  0.90693  0.16614  0.72189  1.0000
  S   S238      1.0  0.98738  0.96266  0.76079  1.0000
  H   H948      1.0  0.00421  0.77886  0.65308  1.0000
  S   S239      1.0  0.06065  0.98558  0.72609  1.0000
  S   S240      1.0  0.92675  0.78991  0.55356  1.0000
  S   S241      1.0  0.92807  0.22004  0.60056  1.0000
  H   H949      1.0  0.94249  0.21917  0.72689  1.0000
  H   H950      1.0  0.86526  0.13483  0.55780  1.0000
  H   H951      1.0  0.01707  0.92150  0.58541  1.0000
  H   H952      1.0  0.98781  0.86472  0.59192  1.0000
  H   H953      1.0  0.86875  0.77995  0.52042  1.0000
  H   H954      1.0  0.94358  0.97671  0.56391  1.0000
  H   H955      1.0  0.63232  0.78718  0.73989  1.0000
  H   H956      1.0  0.97865  0.00510  0.58200  1.0000
  H   H957      1.0  0.02215  0.94238  0.68974  1.0000
  Fe  Fe120     1.0  0.04883  0.00703  0.75775  1.0000
  Fe  Fe121     1.0  0.99024  0.26150  0.59510  1.0000
  C   C602      1.0  0.87633  0.80461  0.70510  1.0000
  C   C603      1.0  0.81608  0.20085  0.52052  1.0000
  H   H958      1.0  0.10465  0.09946  0.75267  1.0000
  S   S242      1.0  0.89877  0.07737  0.76421  1.0000
  H   H959      1.0  0.96333  0.16054  0.71654  1.0000
  H   H960      1.0  0.88504  0.26076  0.68122  1.0000
  H   H961      1.0  0.96365  0.24956  0.67359  1.0000
  H   H962      1.0  0.80962  0.23988  0.51560  1.0000
  C   C604      1.0  0.62919  0.87506  0.76091  1.0000
  C   C605      1.0  0.07030  0.22304  0.51893  1.0000
  H   H963      1.0  0.87394  0.82221  0.72007  1.0000
  H   H964      1.0  0.61602  0.90179  0.74944  1.0000
  Fe  Fe122     1.0  0.02153  0.78083  0.61260  1.0000
  H   H965      1.0  0.10122  0.92110  0.75593  1.0000
  H   H966      1.0  0.84965  0.82031  0.69590  1.0000
  H   H967      1.0  0.92830  0.20744  0.52448  1.0000
  H   H968      1.0  0.77683  0.08951  0.94465  1.0000
  H   H969      1.0  0.69298  0.17904  0.92512  1.0000
  H   H970      1.0  0.63155  0.89736  0.77491  1.0000
  H   H971      1.0  0.75860  0.88437  0.85936  1.0000
  H   H972      1.0  0.94170  0.14092  0.83063  1.0000
  C   C606      1.0  0.61952  0.79561  0.77922  1.0000
  Fe  Fe123     1.0  0.76530  0.87052  0.98387  1.0000
  H   H973      1.0  0.73405  0.82198  0.85883  1.0000
  H   H974      1.0  0.65250  0.78203  0.77541  1.0000
  H   H975      1.0  0.62146  0.81622  0.79361  1.0000
  S   S243      1.0  0.70371  0.82584  0.98320  1.0000
  S   S244      1.0  0.77684  0.25337  0.92123  1.0000
  H   H976      1.0  0.95963  0.88784  0.00169  1.0000
  Fe  Fe124     1.0  0.65612  0.26181  0.96978  1.0000
  S   S245      1.0  0.80825  0.80118  0.98597  1.0000
  H   H977      1.0  0.76817  0.14895  0.93157  1.0000
  C   C607      1.0  0.94492  0.10295  0.82318  1.0000
  C   C608      1.0  0.88061  0.99180  0.78706  1.0000
  C   C609      1.0  0.66425  0.93612  0.93377  1.0000
  H   H978      1.0  0.01468  0.25172  0.78725  1.0000
  H   H979      1.0  0.05401  0.10122  0.81837  1.0000
  C   C610      1.0  0.67514  0.94620  0.91398  1.0000
  C   C611      1.0  0.69662  0.92893  0.94795  1.0000
  H   H980      1.0  0.09458  0.78635  0.00224  1.0000
  H   H981      1.0  0.82806  0.10686  0.78897  1.0000
  H   H982      1.0  0.83094  0.80498  0.89065  1.0000
  H   H983      1.0  0.68809  0.92332  0.96334  1.0000
  N   N62       1.0  0.80292  0.82098  0.86214  1.0000
  H   H984      1.0  0.73288  0.78193  0.94920  1.0000
  H   H985      1.0  0.74377  0.25865  0.83564  1.0000
  C   C612      1.0  0.76299  0.84407  0.85414  1.0000
  S   S246      1.0  0.09031  0.20197  0.80317  1.0000
  C   C613      1.0  0.73995  0.93210  0.94238  1.0000
  H   H986      1.0  0.75340  0.14379  0.95721  1.0000
  C   C614      1.0  0.83646  0.06737  0.79257  1.0000
  H   H987      1.0  0.88725  0.85036  0.00762  1.0000
  S   S247      1.0  0.78053  0.92935  0.96033  1.0000
  H   H988      1.0  0.63080  0.93524  0.93822  1.0000
  H   H989      1.0  0.61684  0.06377  0.79430  1.0000
  H   H990      1.0  0.86644  0.92599  0.80562  1.0000
  H   H991      1.0  0.72698  0.95434  0.89295  1.0000
  C   C615      1.0  0.08322  0.24453  0.78316  1.0000
  H   H992      1.0  0.72298  0.10789  0.90577  1.0000
  H   H993      1.0  0.71712  0.03463  0.95382  1.0000
  Fe  Fe125     1.0  0.73165  0.99130  0.83728  1.0000
  S   S248      1.0  0.67582  0.93866  0.84308  1.0000
  C   C616      1.0  0.84038  0.85082  0.85499  1.0000
  Fe  Fe126     1.0  0.67961  0.08756  0.84381  1.0000
  H   H994      1.0  0.83872  0.89157  0.86006  1.0000
  S   S249      1.0  0.67901  0.17421  0.84551  1.0000
  Fe  Fe127     1.0  0.66066  0.99167  0.86813  1.0000
  H   H995      1.0  0.64844  0.13804  0.93144  1.0000
  Fe  Fe128     1.0  0.63822  0.99449  0.82447  1.0000
  C   C617      1.0  0.71841  0.94738  0.90826  1.0000
  S   S250      1.0  0.72009  0.03945  0.86428  1.0000
  S   S251      1.0  0.69552  0.04287  0.81628  1.0000
  S   S252      1.0  0.61873  0.04397  0.85005  1.0000
  H   H996      1.0  0.94178  0.07221  0.83467  1.0000
  C   C618      1.0  0.85820  0.96555  0.80210  1.0000
  H   H997      1.0  0.73714  0.04822  0.91755  1.0000
  H   H998      1.0  0.90578  0.97226  0.77903  1.0000
  C   C619      1.0  0.68132  0.14980  0.93601  1.0000
  C   C620      1.0  0.98920  0.04772  0.80294  1.0000
  N   N63       1.0  0.98621  0.09885  0.81235  1.0000
  H   H999      1.0  0.66041  0.25605  0.87252  1.0000
  C   C621      1.0  0.75108  0.23380  0.89945  1.0000
  H   H1000     1.0  0.76338  0.84527  0.83765  1.0000
  S   S253      1.0  0.72724  0.25374  0.97402  1.0000
  C   C622      1.0  0.70695  0.19662  0.86625  1.0000
  C   C623      1.0  0.74611  0.17429  0.87188  1.0000
  C   C624      1.0  0.76827  0.19304  0.88842  1.0000
  H   H1001     1.0  0.02167  0.07581  0.83828  1.0000
  C   C625      1.0  0.81379  0.04099  0.80750  1.0000
  H   H1002     1.0  0.75958  0.14298  0.86334  1.0000
  H   H1003     1.0  0.79833  0.17536  0.89286  1.0000
  H   H1004     1.0  0.96179  0.13574  0.78602  1.0000
  H   H1005     1.0  0.98759  0.01591  0.81404  1.0000
  C   C626      1.0  0.75418  0.12260  0.94292  1.0000
  C   C627      1.0  0.82447  0.98994  0.81219  1.0000
  C   C628      1.0  0.98828  0.13956  0.79697  1.0000
  H   H1006     1.0  0.77351  0.80001  0.88983  1.0000
  S   S254      1.0  0.63446  0.96133  0.89697  1.0000
  H   H1007     1.0  0.66276  0.05211  0.94780  1.0000
  C   C629      1.0  0.02252  0.10519  0.82621  1.0000
  C   C630      1.0  0.65664  0.18407  0.01153  1.0000
  H   H1008     1.0  0.79807  0.86228  0.88963  1.0000
  H   H1009     1.0  0.67833  0.16929  0.95059  1.0000
  N   N64       1.0  0.71080  0.10509  0.93714  1.0000
  C   C631      1.0  0.61568  0.18354  0.00300  1.0000
  H   H1010     1.0  0.78831  0.06036  0.81546  1.0000
  S   S255      1.0  0.79616  0.95607  0.83063  1.0000
  H   H1011     1.0  0.68158  0.06363  0.91313  1.0000
  H   H1012     1.0  0.69105  0.08615  0.96688  1.0000
  H   H1013     1.0  0.71010  0.80379  0.91529  1.0000
  H   H1014     1.0  0.98584  0.17858  0.80360  1.0000
  H   H1015     1.0  0.01990  0.04338  0.79463  1.0000
  H   H1016     1.0  0.96261  0.04190  0.79224  1.0000
  C   C632      1.0  0.75081  0.94102  0.92250  1.0000
  H   H1017     1.0  0.78429  0.94351  0.91818  1.0000
  C   C633      1.0  0.69466  0.06787  0.95207  1.0000
  H   H1018     1.0  0.01927  0.13803  0.78867  1.0000
  H   H1019     1.0  0.91709  0.09894  0.81292  1.0000
  H   H1020     1.0  0.87116  0.83396  0.86038  1.0000
  C   C634      1.0  0.86981  0.04277  0.78228  1.0000
  C   C635      1.0  0.69058  0.23848  0.87688  1.0000
  C   C636      1.0  0.71318  0.08008  0.91755  1.0000
  C   C637      1.0  0.80145  0.82216  0.88403  1.0000
  H   H1021     1.0  0.02225  0.14413  0.83308  1.0000
  H   H1022     1.0  0.68455  0.19259  0.00259  1.0000
  S   S256      1.0  0.10096  0.01098  0.78073  1.0000
  H   H1023     1.0  0.84164  0.85198  0.83849  1.0000
  C   C638      1.0  0.71266  0.25711  0.89342  1.0000
  H   H1024     1.0  0.09965  0.86716  0.98364  1.0000
  C   C639      1.0  0.04235  0.26430  0.77883  1.0000
  C   C640      1.0  0.95329  0.86635  0.01519  1.0000
