data_image0
_chemical_formula_structural       H2S4H2SCHSFeH10SC7H2CH3C2NCH3C3H3C2HC3HFeC2FeC2SCH4S2CFeHCHCH3N2HCHCH6CH4FeS2FeH2CFeS4H3C4H3C2FeSCH2CH11SHCSFeSH2CHCHC2NH2SFeCH2FeC2H6SH3FeSHCHC2NC2HFeSHFeS3CSFeC2FeS2CFeS3C6H2SH4C2NH2C6H4CH2CHCHCHCSCFeHFeCSH9FeCH7FeHS2CSHC2SC2HNH4Fe2HSCH6CH7NHNSH2FeSH4CH3CH2SH2CHFeS2H5CH3CHCFeHSHC2HCH2FeH2CSH3NC4H5SFeH3NCHSH2CHC2SH3SCFeC3SH3CHCSNC4H2FeS2FeCHNFeS2H2C3H2C2FeH3CHNHCH2SHC2H3CHCH2SC2SFeSFeSH2CHCFeH2CHCH4FeCH2CHCHNH3SH2SHCHC2SFeSCFeSHS2HFeHSFeS2HFeS3H2C4FeH2CHCHSCH3C6HCH2CHCFeSHC3HCHC3H2CH2CH3CH4FeH2CH5NHCHCNCHSH3C2SH3NH2CNSHFe2C3H3C2H6FeHNHCH5CH2C2SCFeS2FeSCFeSFeCS3H2CHCHCH2C3NH8C4H2C3H3CHC2HCHFeHSC2S2H6SCH2CH2SCFeH4C6H4SNCH2C3SFeH3C3H2C3H4CNH2C3H2CHFeH3CNH4SH2CHCHCH2FeSHFeS3H3SFeSH2CHCS2C5SH3Fe2HCH2C4HSCHCHSC4SH3CH3CH2CHCH3FeHC2H3SCNH2FeCH2NCSNC2H2FeH2CHC2HCHSC2HCH2C3HC2HCHNH4C2H4SCH2SH3SH2SHCHC2HSFeC2H2Fe2CH3FeHSCNSCS2H2CSHSHC2H2SCHC2H2C2H3CHSCFeHSFeH2FeCFeCS2CH4CHCSNC3H4C3HS2HCHSH2CHC2HCH3C5NH6SHSCH6CH2NCH3SH3CFeHCHSHCH3CH3SCHC2FeH2SC3SCH4CH3CH2CH3SNHC2H2CH3C2H3NC2H2CHSCHCH4CHCS2HFeS2FeS2CH2CHFeH2C2HFeH3CHCHCHCHCSH5C3HC2H2CH2C3H4NC4NHSH2SHCSH2CSHCH2CH2CHFeSCNH2C2H2CHC2H2CH2CNSHC2H4CSH2CH2C2HCH4NHCH2C6H2FeSC2H4FeCSH2C2H3C3H4CHSH3FeHSCHNCNSFeHSHCHCH2SH4CH5C2HSC2HFeH2SFeHFeSH2S2HCSH2FeHCNHCSCHCHCHCH3FeHCSFeS2FeHFeS3Fe2HC2SFeHFeSC2HC2H2SH2CHSHSHC2H4CNCHNH4C7H4NFeHSH4CH4CHC2SCH3SH2C2H3CNS2H3SHCH2CNHCHCHC2HCHFeH2CH6CHCH3SH2CHCH3CH2SHSCHCHCH4CH2SHCNH2CHC6FeHCHCH3CHSNC3HCSH2CHFeH3CH5CFeH3SC2H3SCH9CSCSFeS2FeHFeHS2C3NHFeH6CH10C2HS2FeH3CSCHCSNC2HC3SH2CHCH5CFe2H3CH2SHSHFeCFeSHSH2SHFeS2HFeCSH3C3H3C7H2SHFe2HC4HFeSHC6HCH2FeH2SCNHCNH2NH2SFe2SHSHCH4SH2CHC2SFeH5CHCH2CH7NCH3SC2HSCHCSHNH2CH3FeSCH2FeSFeC2SH2CH2C2FeCH3CSH2NS2FeHCHNCH2SHC2H3CH5CH2NHCH2FeH2CH3CH2CSCHSCHC2HS2FeC2SHFeHS2HSHCH2C2HCHCSH2CH4NSFeC4H5CH3CSHC3H4C2SNH5FeS2FeS2CH7SHC2H5C7H3SHC2H3CH3C2HCH4NHCFe2HNFeHCHC2HCH3CSH2NSC3HC2HC3H2SHCHCH2CHCH2C2HCFeH2SCH3NH3SHCNHFeS2Fe2HFeS3HCHCH2CHC3SCH3CHSH4CHCHCHCHCH2CSC2HCSCFeHSFeSHSHCHS2C2SH4CHCHC2NHCH2FeCH2CHCHCHFeCH2CH4C2HNC2H5SH3S2HCHCHFeC2SHC2H3C2HCHC6H2CFeHC2H5CH4CH2SCH2C2H2C2S2CHNHCH2SHNCHCH5CNHC2H3CSH3SH3CHFeHSCFeSCHSHSHFeS2FeS2H2CHSCH3C4HCH3C8H2CHSCHNC2S2H2C2SHCNHCH2CH7SHC4NHFeH2C2HC2NC2H2FeH4CSCH2CFe2CHSCH4SH3SH12CSFeHSFeHFe2HS2HSCHCHC2SCHCH2C3SHCHCNHCHCH2CH3SC4H2FeHSFeSHFeHFeNS2CS2HSC4H2C4H3CH2C2H3SHC2H3CH2CSHC3NCSHNHSHCSCHC2H3C2SHCHC7H7CHCHC2H4CH3CH6CNHCH4CSCH2CH5CH2SFeCHCH2CH
_chemical_formula_sum              "H1280 S320 C800 Fe160 N80"
_cell_length_a       53.4736
_cell_length_b       40.9244
_cell_length_c       53.1116
_cell_angle_alpha    90.1044
_cell_angle_beta     92.4899
_cell_angle_gamma    90.3169

_space_group_name_H-M_alt    "P 1"
_space_group_IT_number       1

loop_
  _space_group_symop_operation_xyz
  'x, y, z'

loop_
  _atom_site_type_symbol
  _atom_site_label
  _atom_site_symmetry_multiplicity
  _atom_site_fract_x
  _atom_site_fract_y
  _atom_site_fract_z
  _atom_site_occupancy
  H   H1        1.0  0.27390  0.45504  0.11164  1.0000
  H   H2        1.0  0.06610  0.03559  0.24150  1.0000
  S   S1        1.0  0.24723  0.32707  0.05182  1.0000
  S   S2        1.0  0.05359  0.09397  0.20606  1.0000
  S   S3        1.0  0.11572  0.33912  0.06037  1.0000
  S   S4        1.0  0.05770  0.30058  0.08670  1.0000
  H   H3        1.0  0.14032  0.27352  0.07241  1.0000
  H   H4        1.0  0.27916  0.47753  0.15592  1.0000
  S   S5        1.0  0.05334  0.30164  0.16000  1.0000
  C   C1        1.0  0.28113  0.45186  0.16250  1.0000
  H   H5        1.0  0.04450  0.41875  0.14839  1.0000
  S   S6        1.0  0.04416  0.36921  0.05755  1.0000
  Fe  Fe1       1.0  0.07790  0.34654  0.07662  1.0000
  H   H6        1.0  0.09205  0.50880  0.24028  1.0000
  H   H7        1.0  0.04425  0.13691  0.07073  1.0000
  H   H8        1.0  0.14094  0.05717  0.25391  1.0000
  H   H9        1.0  0.17149  0.23052  0.24302  1.0000
  H   H10       1.0  0.09688  0.02250  0.25189  1.0000
  H   H11       1.0  0.18950  0.14370  0.23248  1.0000
  H   H12       1.0  0.15573  0.51357  0.21403  1.0000
  H   H13       1.0  0.13424  0.19385  0.24727  1.0000
  H   H14       1.0  0.25903  0.37733  0.14366  1.0000
  H   H15       1.0  0.05144  0.18897  0.19048  1.0000
  S   S7        1.0  0.07269  0.37061  0.11398  1.0000
  C   C2        1.0  0.04603  0.20543  0.17533  1.0000
  C   C3        1.0  0.28498  0.51524  0.25369  1.0000
  C   C4        1.0  0.15700  0.37479  0.04992  1.0000
  C   C5        1.0  0.13096  0.37233  0.04650  1.0000
  C   C6        1.0  0.04512  0.46038  0.17352  1.0000
  C   C7        1.0  0.26956  0.39545  0.15572  1.0000
  C   C8        1.0  0.27229  0.32641  0.09807  1.0000
  H   H16       1.0  0.16693  0.35919  0.06328  1.0000
  H   H17       1.0  0.14717  0.16694  0.22445  1.0000
  C   C9        1.0  0.16335  0.23120  0.04195  1.0000
  H   H18       1.0  0.20686  0.26162  0.05630  1.0000
  H   H19       1.0  0.26278  0.39337  0.17519  1.0000
  H   H20       1.0  0.19865  0.30066  0.04336  1.0000
  C   C10       1.0  0.04037  0.49386  0.17605  1.0000
  C   C11       1.0  0.27637  0.43040  0.12013  1.0000
  N   N1        1.0  0.17268  0.18045  0.25525  1.0000
  C   C12       1.0  0.18321  0.20828  0.24142  1.0000
  H   H21       1.0  0.23854  0.45776  0.25109  1.0000
  H   H22       1.0  0.23710  0.46308  0.13766  1.0000
  H   H23       1.0  0.20833  0.15677  0.25941  1.0000
  C   C13       1.0  0.05215  0.23876  0.17729  1.0000
  C   C14       1.0  0.25688  0.46853  0.24908  1.0000
  C   C15       1.0  0.23998  0.43786  0.14497  1.0000
  H   H24       1.0  0.18198  0.13033  0.26345  1.0000
  H   H25       1.0  0.05204  0.44647  0.18964  1.0000
  H   H26       1.0  0.19077  0.39757  0.03789  1.0000
  C   C16       1.0  0.17057  0.39661  0.03549  1.0000
  C   C17       1.0  0.26875  0.21639  0.26937  1.0000
  H   H27       1.0  0.10076  0.50332  0.19579  1.0000
  C   C18       1.0  0.26768  0.24911  0.26162  1.0000
  C   C19       1.0  0.11115  0.09081  0.26142  1.0000
  C   C20       1.0  0.11834  0.39335  0.02953  1.0000
  H   H28       1.0  0.23225  0.43671  0.16411  1.0000
  Fe  Fe2       1.0  0.03711  0.39012  0.09594  1.0000
  C   C21       1.0  0.19478  0.27396  0.04166  1.0000
  C   C22       1.0  0.27141  0.33957  0.07362  1.0000
  Fe  Fe3       1.0  0.04922  0.32667  0.12241  1.0000
  C   C23       1.0  0.27607  0.44979  0.23922  1.0000
  C   C24       1.0  0.14077  0.51233  0.22792  1.0000
  S   S8        1.0  0.27014  0.40902  0.22984  1.0000
  C   C25       1.0  0.14718  0.17295  0.24489  1.0000
  H   H29       1.0  0.13348  0.48680  0.22810  1.0000
  H   H30       1.0  0.09976  0.08384  0.24494  1.0000
  H   H31       1.0  0.17133  0.26442  0.08504  1.0000
  H   H32       1.0  0.25128  0.26354  0.26507  1.0000
  S   S9        1.0  0.07280  0.13287  0.27296  1.0000
  S   S10       1.0  0.04549  0.51269  0.20571  1.0000
  C   C26       1.0  0.26138  0.50114  0.25656  1.0000
  Fe  Fe4       1.0  0.04384  0.11746  0.24255  1.0000
  H   H33       1.0  0.16426  0.30411  0.07259  1.0000
  C   C27       1.0  0.18879  0.15154  0.25250  1.0000
  H   H34       1.0  0.25829  0.30875  0.10321  1.0000
  C   C28       1.0  0.04570  0.26009  0.15749  1.0000
  H   H35       1.0  0.14336  0.22495  0.04459  1.0000
  H   H36       1.0  0.14972  0.51745  0.24691  1.0000
  H   H37       1.0  0.22869  0.42092  0.13252  1.0000
  N   N2        1.0  0.16795  0.26673  0.04455  1.0000
  N   N3        1.0  0.26674  0.42895  0.14580  1.0000
  H   H38       1.0  0.06208  0.24800  0.19403  1.0000
  C   C29       1.0  0.13454  0.07594  0.26644  1.0000
  H   H39       1.0  0.24653  0.51542  0.26426  1.0000
  C   C30       1.0  0.16066  0.27755  0.06976  1.0000
  H   H40       1.0  0.17495  0.21708  0.05596  1.0000
  H   H41       1.0  0.15642  0.31118  0.02610  1.0000
  H   H42       1.0  0.18458  0.20257  0.22103  1.0000
  H   H43       1.0  0.26673  0.41230  0.10728  1.0000
  H   H44       1.0  0.27483  0.45066  0.18221  1.0000
  H   H45       1.0  0.20244  0.21463  0.24891  1.0000
  C   C31       1.0  0.04088  0.44462  0.15017  1.0000
  H   H46       1.0  0.13902  0.15159  0.25455  1.0000
  H   H47       1.0  0.09821  0.39152  0.02677  1.0000
  H   H48       1.0  0.13259  0.28041  0.02696  1.0000
  H   H49       1.0  0.04996  0.29367  0.02829  1.0000
  Fe  Fe5       1.0  0.21442  0.08838  0.30923  1.0000
  S   S11       1.0  0.26250  0.13450  0.38976  1.0000
  S   S12       1.0  0.24367  0.19983  0.28563  1.0000
  Fe  Fe6       1.0  0.25282  0.11322  0.35062  1.0000
  H   H50       1.0  0.06153  0.03475  0.31061  1.0000
  H   H51       1.0  0.28059  0.49447  0.35216  1.0000
  C   C32       1.0  0.10247  0.11450  0.27787  1.0000
  Fe  Fe7       1.0  0.24711  0.14812  0.30004  1.0000
  S   S13       1.0  0.21977  0.13618  0.32947  1.0000
  S   S14       1.0  0.24484  0.06344  0.33320  1.0000
  S   S15       1.0  0.23963  0.10206  0.27814  1.0000
  S   S16       1.0  0.17822  0.06444  0.29403  1.0000
  H   H52       1.0  0.25857  0.18430  0.34536  1.0000
  H   H53       1.0  0.26348  0.14022  0.49373  1.0000
  H   H54       1.0  0.28009  0.10243  0.49166  1.0000
  C   C33       1.0  0.14976  0.08527  0.28751  1.0000
  C   C34       1.0  0.11778  0.12400  0.29882  1.0000
  C   C35       1.0  0.14137  0.10957  0.30357  1.0000
  C   C36       1.0  0.26027  0.20871  0.35442  1.0000
  H   H55       1.0  0.28111  0.06840  0.40013  1.0000
  H   H56       1.0  0.11119  0.14231  0.31165  1.0000
  H   H57       1.0  0.15272  0.11651  0.32012  1.0000
  C   C37       1.0  0.28394  0.11823  0.41295  1.0000
  C   C38       1.0  0.06935  0.03854  0.29176  1.0000
  Fe  Fe8       1.0  0.27009  0.08001  0.30287  1.0000
  S   S17       1.0  0.28017  0.12776  0.32174  1.0000
  C   C39       1.0  0.17159  0.18901  0.28224  1.0000
  H   H58       1.0  0.24795  0.22551  0.34311  1.0000
  H   H59       1.0  0.27638  0.27079  0.35736  1.0000
  C   C40       1.0  0.26850  0.11747  0.50416  1.0000
  H   H60       1.0  0.25094  0.10349  0.50698  1.0000
  H   H61       1.0  0.28112  0.25139  0.38752  1.0000
  H   H62       1.0  0.08916  0.04665  0.29489  1.0000
  H   H63       1.0  0.15951  0.21064  0.28509  1.0000
  H   H64       1.0  0.05900  0.05924  0.28264  1.0000
  H   H65       1.0  0.16393  0.16849  0.29328  1.0000
  H   H66       1.0  0.25268  0.20615  0.37352  1.0000
  H   H67       1.0  0.19054  0.19476  0.29066  1.0000
  H   H68       1.0  0.27442  0.47863  0.30707  1.0000
  H   H69       1.0  0.28436  0.24019  0.31826  1.0000
  H   H70       1.0  0.23318  0.32997  0.67379  1.0000
  S   S18       1.0  0.24129  0.19202  0.71342  1.0000
  H   H71       1.0  0.21499  0.40929  0.70166  1.0000
  C   C41       1.0  0.18896  0.33358  0.69553  1.0000
  S   S19       1.0  0.23989  0.25818  0.67952  1.0000
  Fe  Fe9       1.0  0.22286  0.24121  0.71525  1.0000
  S   S20       1.0  0.18134  0.24802  0.72151  1.0000
  H   H72       1.0  0.18785  0.39706  0.68267  1.0000
  H   H73       1.0  0.27917  0.14534  0.72908  1.0000
  C   C42       1.0  0.22533  0.35022  0.72099  1.0000
  H   H74       1.0  0.21444  0.35264  0.73825  1.0000
  C   C43       1.0  0.18719  0.29722  0.75704  1.0000
  H   H75       1.0  0.23277  0.32491  0.72054  1.0000
  C   C44       1.0  0.22537  0.35497  0.67571  1.0000
  C   C45       1.0  0.19967  0.39079  0.69973  1.0000
  N   N4        1.0  0.20982  0.35739  0.69798  1.0000
  H   H76       1.0  0.18784  0.39337  0.71639  1.0000
  H   H77       1.0  0.19598  0.30800  0.69488  1.0000
  S   S21       1.0  0.25284  0.26291  0.74092  1.0000
  Fe  Fe10      1.0  0.26168  0.21126  0.68017  1.0000
  C   C46       1.0  0.17051  0.27821  0.74219  1.0000
  H   H78       1.0  0.24171  0.37200  0.67720  1.0000
  H   H79       1.0  0.20704  0.29271  0.75672  1.0000
  Fe  Fe11      1.0  0.27274  0.21519  0.73640  1.0000
  C   C47       1.0  0.13565  0.30925  0.75844  1.0000
  C   C48       1.0  0.14469  0.28409  0.74316  1.0000
  H   H80       1.0  0.21446  0.36055  0.65796  1.0000
  H   H81       1.0  0.17651  0.33520  0.71174  1.0000
  H   H82       1.0  0.11576  0.31391  0.75876  1.0000
  H   H83       1.0  0.13164  0.26943  0.73174  1.0000
  H   H84       1.0  0.28245  0.08511  0.72632  1.0000
  H   H85       1.0  0.17721  0.33761  0.67803  1.0000
  S   S22       1.0  0.28332  0.32917  0.69935  1.0000
  H   H86       1.0  0.24182  0.36691  0.72299  1.0000
  H   H87       1.0  0.24861  0.12915  0.54923  1.0000
  H   H88       1.0  0.27280  0.07803  0.54432  1.0000
  Fe  Fe12      1.0  0.27108  0.27711  0.70532  1.0000
  S   S23       1.0  0.26689  0.17698  0.64704  1.0000
  H   H89       1.0  0.25975  0.16677  0.53615  1.0000
  C   C49       1.0  0.15248  0.32883  0.77269  1.0000
  H   H90       1.0  0.27560  0.14936  0.56332  1.0000
  C   C50       1.0  0.17823  0.32253  0.77205  1.0000
  C   C51       1.0  0.26576  0.14327  0.54496  1.0000
  N   N5        1.0  0.28208  0.12465  0.52841  1.0000
  C   C52       1.0  0.05267  0.29823  0.00792  1.0000
  C   C53       1.0  0.05467  0.27444  0.96632  1.0000
  H   H91       1.0  0.26439  0.45247  0.92948  1.0000
  Fe  Fe13      1.0  0.26057  0.38832  0.96821  1.0000
  S   S24       1.0  0.25670  0.33451  0.97663  1.0000
  H   H92       1.0  0.04042  0.29173  0.95833  1.0000
  Fe  Fe14      1.0  0.21755  0.34020  0.96041  1.0000
  S   S25       1.0  0.19451  0.30934  0.93271  1.0000
  S   S26       1.0  0.04289  0.39724  0.83740  1.0000
  S   S27       1.0  0.22226  0.39272  0.94957  1.0000
  C   C54       1.0  0.16334  0.28350  0.84109  1.0000
  S   S28       1.0  0.07962  0.34385  0.88912  1.0000
  Fe  Fe15      1.0  0.09448  0.09630  0.93556  1.0000
  C   C55       1.0  0.14029  0.23648  0.85521  1.0000
  C   C56       1.0  0.08563  0.04200  0.88001  1.0000
  Fe  Fe16      1.0  0.12232  0.15552  0.95812  1.0000
  S   S29       1.0  0.09000  0.18864  0.94978  1.0000
  S   S30       1.0  0.15673  0.17629  0.97860  1.0000
  C   C57       1.0  0.14154  0.36473  0.90868  1.0000
  Fe  Fe17      1.0  0.08709  0.16298  0.91257  1.0000
  S   S31       1.0  0.08025  0.19086  0.87656  1.0000
  S   S32       1.0  0.09862  0.11656  0.97505  1.0000
  S   S33       1.0  0.12141  0.13245  0.91969  1.0000
  C   C58       1.0  0.07800  0.30126  0.88693  1.0000
  C   C59       1.0  0.09165  0.28211  0.90437  1.0000
  C   C60       1.0  0.09210  0.24809  0.90144  1.0000
  C   C61       1.0  0.07876  0.23316  0.88127  1.0000
  C   C62       1.0  0.06487  0.25234  0.86404  1.0000
  C   C63       1.0  0.06429  0.28634  0.86702  1.0000
  H   H93       1.0  0.12506  0.21837  0.85077  1.0000
  H   H94       1.0  0.10365  0.23360  0.91413  1.0000
  S   S34       1.0  0.07324  0.40598  0.78447  1.0000
  H   H95       1.0  0.16765  0.22782  0.81441  1.0000
  H   H96       1.0  0.13625  0.48036  0.97719  1.0000
  H   H97       1.0  0.15776  0.27630  0.00563  1.0000
  H   H98       1.0  0.14148  0.02674  0.96610  1.0000
  C   C64       1.0  0.07843  0.49320  0.90306  1.0000
  C   C65       1.0  0.07603  0.48003  0.87857  1.0000
  N   N6        1.0  0.13775  0.38381  0.93187  1.0000
  H   H99       1.0  0.24636  0.02791  0.86130  1.0000
  H   H100      1.0  0.07662  0.45386  0.87579  1.0000
  C   C66       1.0  0.18455  0.27200  0.94517  1.0000
  C   C67       1.0  0.16416  0.25537  0.93356  1.0000
  C   C68       1.0  0.15582  0.22567  0.94350  1.0000
  C   C69       1.0  0.16792  0.21241  0.96497  1.0000
  C   C70       1.0  0.18875  0.22862  0.97612  1.0000
  C   C71       1.0  0.19683  0.25864  0.96649  1.0000
  H   H101      1.0  0.15471  0.26554  0.91698  1.0000
  H   H102      1.0  0.14019  0.21281  0.93446  1.0000
  H   H103      1.0  0.19878  0.21784  0.99213  1.0000
  H   H104      1.0  0.21291  0.27107  0.97519  1.0000
  C   C72       1.0  0.11069  0.38715  0.93577  1.0000
  H   H105      1.0  0.16182  0.36164  0.90534  1.0000
  H   H106      1.0  0.14269  0.34123  0.95526  1.0000
  C   C73       1.0  0.07272  0.50077  0.85778  1.0000
  H   H107      1.0  0.10159  0.36284  0.93789  1.0000
  C   C74       1.0  0.13205  0.41517  0.01483  1.0000
  H   H108      1.0  0.10721  0.40171  0.95297  1.0000
  C   C75       1.0  0.25239  0.05329  0.85688  1.0000
  H   H109      1.0  0.12112  0.29468  0.81321  1.0000
  C   C76       1.0  0.14988  0.24156  0.81134  1.0000
  S   S35       1.0  0.05984  0.12506  0.92531  1.0000
  C   C77       1.0  0.21958  0.05868  0.82442  1.0000
  Fe  Fe18      1.0  0.06602  0.14805  0.96346  1.0000
  H   H110      1.0  0.14689  0.43145  0.94675  1.0000
  Fe  Fe19      1.0  0.04557  0.37073  0.80057  1.0000
  C   C78       1.0  0.08060  0.02668  0.85657  1.0000
  S   S36       1.0  0.20240  0.35134  0.99785  1.0000
  H   H111      1.0  0.17031  0.36531  0.95183  1.0000
  H   H112      1.0  0.10092  0.39943  0.91945  1.0000
  H   H113      1.0  0.06830  0.22060  0.99273  1.0000
  H   H114      1.0  0.14032  0.43023  0.91322  1.0000
  H   H115      1.0  0.13255  0.37670  0.89181  1.0000
  H   H116      1.0  0.19135  0.33745  0.78317  1.0000
  H   H117      1.0  0.21265  0.03341  0.82776  1.0000
  H   H118      1.0  0.08904  0.25396  0.00084  1.0000
  H   H119      1.0  0.07346  0.28537  0.96367  1.0000
  Fe  Fe20      1.0  0.07242  0.43024  0.82263  1.0000
  C   C79       1.0  0.14975  0.36674  0.95365  1.0000
  H   H120      1.0  0.27148  0.49449  0.89667  1.0000
  H   H121      1.0  0.11422  0.29164  0.84593  1.0000
  H   H122      1.0  0.24283  0.07017  0.86975  1.0000
  H   H123      1.0  0.15905  0.29733  0.85845  1.0000
  H   H124      1.0  0.24492  0.11336  0.83639  1.0000
  H   H125      1.0  0.18165  0.27119  0.84470  1.0000
  H   H126      1.0  0.10530  0.49279  0.00896  1.0000
  Fe  Fe21      1.0  0.07490  0.36581  0.85055  1.0000
  H   H127      1.0  0.10250  0.29353  0.91965  1.0000
  S   S37       1.0  0.06931  0.48501  0.82685  1.0000
  S   S38       1.0  0.10426  0.40111  0.83912  1.0000
  C   C80       1.0  0.11958  0.27728  0.82919  1.0000
  S   S39       1.0  0.17617  0.43634  0.99501  1.0000
  H   H128      1.0  0.08639  0.06839  0.88124  1.0000
  C   C81       1.0  0.25521  0.09523  0.82520  1.0000
  C   C82       1.0  0.13765  0.50688  0.97297  1.0000
  S   S40       1.0  0.09681  0.04139  0.93134  1.0000
  C   C83       1.0  0.14910  0.41661  0.92942  1.0000
  C   C84       1.0  0.28193  0.45328  0.92009  1.0000
  H   H129      1.0  0.05442  0.24086  0.84848  1.0000
  N   N7        1.0  0.14330  0.25967  0.83422  1.0000
  H   H130      1.0  0.07748  0.04140  0.83984  1.0000
  H   H131      1.0  0.13325  0.33981  0.90992  1.0000
  H   H132      1.0  0.15777  0.22259  0.85956  1.0000
  H   H133      1.0  0.15242  0.25838  0.79518  1.0000
  Fe  Fe22      1.0  0.10311  0.37354  0.80241  1.0000
  Fe  Fe23      1.0  0.20940  0.40377  0.98839  1.0000
  H   H134      1.0  0.08082  0.47706  0.91907  1.0000
  S   S41       1.0  0.07560  0.33627  0.81510  1.0000
  C   C85       1.0  0.08978  0.02314  0.90168  1.0000
  H   H135      1.0  0.14653  0.37960  0.97164  1.0000
  H   H136      1.0  0.16954  0.41499  0.92643  1.0000
  H   H137      1.0  0.05303  0.30093  0.85400  1.0000
  H   H138      1.0  0.13497  0.22366  0.80546  1.0000
  H   H139      1.0  0.25232  0.10179  0.80491  1.0000
  H   H140      1.0  0.13532  0.24937  0.87275  1.0000
  C   C86       1.0  0.06976  0.24431  0.00294  1.0000
  H   H141      1.0  0.16570  0.30174  0.82578  1.0000
  H   H142      1.0  0.26970  0.36768  0.87509  1.0000
  H   H143      1.0  0.10384  0.26013  0.82435  1.0000
  H   H144      1.0  0.20888  0.07549  0.83641  1.0000
  H   H145      1.0  0.16789  0.22217  0.02295  1.0000
  H   H146      1.0  0.07132  0.31010  0.00641  1.0000
  H   H147      1.0  0.27550  0.09845  0.83022  1.0000
  N   N8        1.0  0.05065  0.26755  0.99318  1.0000
  H   H148      1.0  0.05338  0.25167  0.95474  1.0000
  N   N9        1.0  0.24681  0.06144  0.83011  1.0000
  S   S42       1.0  0.03667  0.16422  0.98989  1.0000
  H   H149      1.0  0.06741  0.23893  0.02325  1.0000
  H   H150      1.0  0.12240  0.42995  0.00070  1.0000
  Fe  Fe24      1.0  0.24207  0.35147  0.01355  1.0000
  S   S43       1.0  0.24832  0.40492  0.00644  1.0000
  H   H151      1.0  0.27505  0.35549  0.83063  1.0000
  H   H152      1.0  0.21479  0.06488  0.80437  1.0000
  H   H153      1.0  0.12427  0.51211  0.95687  1.0000
  H   H154      1.0  0.27287  0.05473  0.86171  1.0000
  C   C87       1.0  0.26013  0.03851  0.81392  1.0000
  H   H155      1.0  0.28072  0.04024  0.81746  1.0000
  H   H156      1.0  0.25629  0.04370  0.79353  1.0000
  H   H157      1.0  0.20112  0.26613  0.02293  1.0000
  C   C88       1.0  0.15831  0.41580  0.01718  1.0000
  H   H158      1.0  0.10115  0.02007  0.98540  1.0000
  H   H159      1.0  0.15046  0.49334  0.02119  1.0000
  S   S44       1.0  0.14265  0.36185  0.79120  1.0000
  H   H160      1.0  0.15687  0.51160  0.96653  1.0000
  H   H161      1.0  0.03808  0.31611  0.00162  1.0000
  C   C89       1.0  0.15299  0.28434  0.02489  1.0000
  H   H162      1.0  0.08622  0.55169  0.23727  1.0000
  Fe  Fe25      1.0  0.03802  0.56669  0.20858  1.0000
  S   S45       1.0  0.26310  0.81436  0.07273  1.0000
  S   S46       1.0  0.06162  0.60635  0.19265  1.0000
  H   H163      1.0  0.27205  0.98682  0.22553  1.0000
  H   H164      1.0  0.07149  0.74500  0.17193  1.0000
  H   H165      1.0  0.11630  0.76932  0.12280  1.0000
  H   H166      1.0  0.09724  0.74311  0.07159  1.0000
  H   H167      1.0  0.28205  0.91924  0.16525  1.0000
  C   C90       1.0  0.28331  0.98354  0.17617  1.0000
  H   H168      1.0  0.10145  0.83336  0.07550  1.0000
  H   H169      1.0  0.13357  0.74390  0.10213  1.0000
  H   H170      1.0  0.12836  0.83454  0.09682  1.0000
  C   C91       1.0  0.10541  0.89095  0.04247  1.0000
  H   H171      1.0  0.14659  0.78225  0.11305  1.0000
  C   C92       1.0  0.05552  0.73776  0.15995  1.0000
  Fe  Fe26      1.0  0.04825  0.85112  0.05676  1.0000
  H   H172      1.0  0.24915  0.68655  0.26869  1.0000
  S   S47       1.0  0.24792  0.89214  0.02954  1.0000
  H   H173      1.0  0.09860  0.82124  0.10768  1.0000
  C   C93       1.0  0.04491  0.75997  0.14259  1.0000
  C   C94       1.0  0.27337  0.71630  0.24655  1.0000
  H   H174      1.0  0.26771  0.90634  0.19342  1.0000
  C   C95       1.0  0.10123  0.53330  0.24070  1.0000
  H   H175      1.0  0.09377  0.54560  0.19135  1.0000
  H   H176      1.0  0.26312  0.71125  0.22894  1.0000
  Fe  Fe27      1.0  0.24522  0.83873  0.03824  1.0000
  H   H177      1.0  0.24522  0.97356  0.20647  1.0000
  H   H178      1.0  0.14483  0.57269  0.20701  1.0000
  C   C96       1.0  0.11804  0.63055  0.26529  1.0000
  S   S48       1.0  0.20383  0.83485  0.02947  1.0000
  H   H179      1.0  0.27051  0.83183  0.26557  1.0000
  H   H180      1.0  0.09017  0.89907  0.05364  1.0000
  H   H181      1.0  0.13063  0.92934  0.05556  1.0000
  N   N10       1.0  0.11698  0.78633  0.08456  1.0000
  C   C97       1.0  0.09358  0.76895  0.07681  1.0000
  C   C98       1.0  0.13412  0.78634  0.06343  1.0000
  C   C99       1.0  0.12893  0.76969  0.10660  1.0000
  C   C100      1.0  0.11113  0.82036  0.09145  1.0000
  H   H182      1.0  0.08015  0.76871  0.09230  1.0000
  H   H183      1.0  0.08414  0.78087  0.06016  1.0000
  H   H184      1.0  0.15193  0.79952  0.06846  1.0000
  H   H185      1.0  0.13898  0.76103  0.05771  1.0000
  H   H186      1.0  0.12547  0.79858  0.04651  1.0000
  S   S49       1.0  0.05691  0.87337  0.09478  1.0000
  Fe  Fe28      1.0  0.05973  0.62907  0.23110  1.0000
  H   H187      1.0  0.26261  0.78924  0.26328  1.0000
  H   H188      1.0  0.11610  0.58803  0.21867  1.0000
  H   H189      1.0  0.14763  0.53437  0.03298  1.0000
  N   N11       1.0  0.12055  0.53584  0.22172  1.0000
  C   C101      1.0  0.12825  0.90815  0.04346  1.0000
  H   H190      1.0  0.07461  0.99370  0.23825  1.0000
  S   S50       1.0  0.09605  0.65204  0.24594  1.0000
  H   H191      1.0  0.26105  0.94554  0.22759  1.0000
  H   H192      1.0  0.05378  0.68911  0.17537  1.0000
  C   C102      1.0  0.10230  0.86351  0.02686  1.0000
  H   H193      1.0  0.12311  0.52983  0.18162  1.0000
  C   C103      1.0  0.04548  0.70614  0.16191  1.0000
  C   C104      1.0  0.26550  0.70226  0.26898  1.0000
  S   S51       1.0  0.05799  0.79917  0.13985  1.0000
  H   H194      1.0  0.26494  0.99050  0.16714  1.0000
  H   H195      1.0  0.14843  0.66287  0.25663  1.0000
  H   H196      1.0  0.14082  0.57524  0.24025  1.0000
  S   S52       1.0  0.07414  0.84123  0.02532  1.0000
  C   C105      1.0  0.13102  0.56937  0.22186  1.0000
  Fe  Fe29      1.0  0.03816  0.82856  0.10958  1.0000
  C   C106      1.0  0.28030  0.83631  0.09644  1.0000
  C   C107      1.0  0.10915  0.52832  0.19649  1.0000
  C   C108      1.0  0.26981  0.92745  0.18047  1.0000
  S   S53       1.0  0.03840  0.58749  0.24774  1.0000
  H   H197      1.0  0.16299  0.71763  0.02997  1.0000
  H   H198      1.0  0.25105  0.93283  0.17165  1.0000
  H   H199      1.0  0.27569  0.88363  0.07931  1.0000
  C   C109      1.0  0.26396  0.96602  0.21421  1.0000
  H   H200      1.0  0.10932  0.53734  0.26010  1.0000
  C   C110      1.0  0.07676  0.01539  0.25090  1.0000
  S   S54       1.0  0.17623  0.92004  0.02934  1.0000
  N   N12       1.0  0.28058  0.95622  0.19401  1.0000
  C   C111      1.0  0.14307  0.64123  0.26680  1.0000
  C   C112      1.0  0.14805  0.89776  0.02903  1.0000
  C   C113      1.0  0.28420  0.87007  0.09484  1.0000
  C   C114      1.0  0.04106  0.99769  0.27369  1.0000
  H   H201      1.0  0.03889  0.97546  0.26162  1.0000
  H   H202      1.0  0.21880  0.80340  0.27273  1.0000
  Fe  Fe30      1.0  0.21773  0.58823  0.31580  1.0000
  S   S55       1.0  0.23790  0.61542  0.28587  1.0000
  S   S56       1.0  0.17703  0.57226  0.31149  1.0000
  Fe  Fe31      1.0  0.25701  0.64133  0.31880  1.0000
  C   C115      1.0  0.11122  0.60275  0.27870  1.0000
  H   H203      1.0  0.25907  0.00729  0.29356  1.0000
  N   N13       1.0  0.25115  0.81283  0.29713  1.0000
  Fe  Fe32      1.0  0.26760  0.57747  0.29227  1.0000
  S   S57       1.0  0.23488  0.61691  0.34867  1.0000
  S   S58       1.0  0.24637  0.54814  0.31968  1.0000
  H   H204      1.0  0.24211  0.76147  0.29807  1.0000
  H   H205      1.0  0.22747  0.84580  0.27574  1.0000
  C   C116      1.0  0.15457  0.59583  0.29432  1.0000
  C   C117      1.0  0.24893  0.78157  0.31082  1.0000
  C   C118      1.0  0.27442  0.99320  0.28669  1.0000
  H   H206      1.0  0.24794  0.84199  0.33059  1.0000
  H   H207      1.0  0.25398  0.94761  0.28622  1.0000
  C   C119      1.0  0.12944  0.58553  0.29322  1.0000
  C   C120      1.0  0.27161  0.95939  0.28256  1.0000
  Fe  Fe33      1.0  0.26559  0.57945  0.34968  1.0000
  H   H208      1.0  0.23567  0.78338  0.32632  1.0000
  H   H209      1.0  0.12405  0.56415  0.30369  1.0000
  H   H210      1.0  0.25619  0.68944  0.51461  1.0000
  C   C121      1.0  0.08275  0.98252  0.28831  1.0000
  H   H211      1.0  0.27726  0.61905  0.40075  1.0000
  N   N14       1.0  0.06747  0.00856  0.27617  1.0000
  H   H212      1.0  0.10283  0.98993  0.29044  1.0000
  C   C122      1.0  0.16131  0.62387  0.28116  1.0000
  H   H213      1.0  0.26730  0.77370  0.31939  1.0000
  H   H214      1.0  0.07626  0.97674  0.30744  1.0000
  S   S59       1.0  0.26749  0.69469  0.32028  1.0000
  H   H215      1.0  0.09191  0.59473  0.27808  1.0000
  C   C123      1.0  0.22635  0.82228  0.28620  1.0000
  C   C124      1.0  0.26060  0.83854  0.31474  1.0000
  H   H216      1.0  0.27951  0.83244  0.32294  1.0000
  H   H217      1.0  0.18056  0.63217  0.28202  1.0000
  H   H218      1.0  0.21253  0.82540  0.30109  1.0000
  C   C125      1.0  0.27826  0.70959  0.29184  1.0000
  H   H219      1.0  0.26232  0.86252  0.30504  1.0000
  C   C126      1.0  0.26875  0.80896  0.27667  1.0000
  H   H220      1.0  0.08176  0.95958  0.27698  1.0000
  H   H221      1.0  0.18596  0.88932  0.75129  1.0000
  S   S60       1.0  0.23966  0.69463  0.71268  1.0000
  C   C127      1.0  0.16705  0.77475  0.74329  1.0000
  C   C128      1.0  0.26674  0.70343  0.52968  1.0000
  S   S61       1.0  0.23885  0.76397  0.68257  1.0000
  Fe  Fe34      1.0  0.22072  0.74324  0.71643  1.0000
  S   S62       1.0  0.17882  0.75067  0.71897  1.0000
  Fe  Fe35      1.0  0.26066  0.71734  0.68124  1.0000
  S   S63       1.0  0.24959  0.76317  0.74430  1.0000
  H   H222      1.0  0.17385  0.88128  0.71974  1.0000
  H   H223      1.0  0.17519  0.84914  0.74260  1.0000
  C   C129      1.0  0.13329  0.80781  0.75938  1.0000
  H   H224      1.0  0.08148  0.72662  0.76441  1.0000
  C   C130      1.0  0.22523  0.84886  0.75001  1.0000
  Fe  Fe36      1.0  0.26899  0.78101  0.71035  1.0000
  H   H225      1.0  0.19884  0.76790  0.76890  1.0000
  H   H226      1.0  0.12699  0.73531  0.76644  1.0000
  C   C131      1.0  0.22362  0.89185  0.71897  1.0000
  H   H227      1.0  0.19754  0.84670  0.69114  1.0000
  C   C132      1.0  0.14330  0.78905  0.74001  1.0000
  H   H228      1.0  0.19997  0.81476  0.71414  1.0000
  H   H229      1.0  0.13260  0.78559  0.72242  1.0000
  H   H230      1.0  0.24449  0.84206  0.74493  1.0000
  H   H231      1.0  0.21334  0.90259  0.70233  1.0000
  Fe  Fe37      1.0  0.27026  0.71632  0.73774  1.0000
  C   C133      1.0  0.18535  0.87099  0.73577  1.0000
  H   H232      1.0  0.24288  0.88597  0.71311  1.0000
  H   H233      1.0  0.11501  0.81882  0.75670  1.0000
  C   C134      1.0  0.18073  0.77926  0.76604  1.0000
  H   H234      1.0  0.26735  0.64175  0.73498  1.0000
  C   C135      1.0  0.20886  0.83773  0.70775  1.0000
  H   H235      1.0  0.26405  0.72991  0.52572  1.0000
  N   N15       1.0  0.21075  0.86238  0.72813  1.0000
  H   H236      1.0  0.28349  0.64223  0.60970  1.0000
  H   H237      1.0  0.22547  0.91100  0.73383  1.0000
  H   H238      1.0  0.22764  0.83124  0.70111  1.0000
  S   S64       1.0  0.26515  0.68648  0.64617  1.0000
  H   H239      1.0  0.25795  0.69797  0.54786  1.0000
  H   H240      1.0  0.27710  0.58377  0.72660  1.0000
  S   S65       1.0  0.28047  0.83393  0.70795  1.0000
  H   H241      1.0  0.22700  0.86676  0.76576  1.0000
  C   C136      1.0  0.28307  0.63043  0.74487  1.0000
  H   H242      1.0  0.21624  0.82641  0.75723  1.0000
  C   C137      1.0  0.07753  0.52713  0.90690  1.0000
  C   C138      1.0  0.05875  0.79249  0.88354  1.0000
  S   S66       1.0  0.07343  0.97419  0.82480  1.0000
  Fe  Fe38      1.0  0.25519  0.87590  0.98994  1.0000
  S   S67       1.0  0.25488  0.82238  0.99941  1.0000
  C   C139      1.0  0.14489  0.87028  0.01349  1.0000
  Fe  Fe39      1.0  0.21367  0.82402  0.98980  1.0000
  S   S68       1.0  0.19202  0.79026  0.96309  1.0000
  H   H243      1.0  0.25199  0.96661  0.90713  1.0000
  S   S69       1.0  0.21455  0.87638  0.97717  1.0000
  S   S70       1.0  0.09126  0.88395  0.84488  1.0000
  H   H244      1.0  0.14020  0.01672  0.01265  1.0000
  Fe  Fe40      1.0  0.07850  0.59770  0.94292  1.0000
  H   H245      1.0  0.15998  0.86235  0.00208  1.0000
  S   S71       1.0  0.08062  0.54286  0.93787  1.0000
  Fe  Fe41      1.0  0.10171  0.65348  0.97443  1.0000
  S   S72       1.0  0.07699  0.69072  0.95567  1.0000
  S   S73       1.0  0.12940  0.67135  0.00460  1.0000
  H   H246      1.0  0.16114  0.98297  0.00931  1.0000
  Fe  Fe42      1.0  0.08502  0.66441  0.92002  1.0000
  S   S74       1.0  0.09641  0.69297  0.88634  1.0000
  S   S75       1.0  0.07032  0.61829  0.98113  1.0000
  S   S76       1.0  0.11233  0.62959  0.93845  1.0000
  H   H247      1.0  0.11685  0.76642  0.81762  1.0000
  H   H248      1.0  0.09844  0.77306  0.78918  1.0000
  C   C140      1.0  0.17075  0.79795  0.78537  1.0000
  C   C141      1.0  0.08199  0.73126  0.88582  1.0000
  C   C142      1.0  0.09207  0.75643  0.87162  1.0000
  C   C143      1.0  0.08031  0.78686  0.87020  1.0000
  Fe  Fe43      1.0  0.09634  0.85645  0.80876  1.0000
  H   H249      1.0  0.11058  0.67544  0.81559  1.0000
  H   H250      1.0  0.10915  0.75249  0.86195  1.0000
  C   C144      1.0  0.07948  0.99246  0.85466  1.0000
  H   H251      1.0  0.12063  0.78848  0.94984  1.0000
  C   C145      1.0  0.07428  0.54784  0.88611  1.0000
  H   H252      1.0  0.14949  0.93773  0.98024  1.0000
  S   S77       1.0  0.13531  0.83467  0.80740  1.0000
  C   C146      1.0  0.08347  0.97359  0.87640  1.0000
  H   H253      1.0  0.07367  0.57401  0.88886  1.0000
  H   H254      1.0  0.13189  0.97674  0.02378  1.0000
  H   H255      1.0  0.08249  0.94726  0.87513  1.0000
  C   C147      1.0  0.17472  0.75765  0.97541  1.0000
  C   C148      1.0  0.17568  0.75031  0.00118  1.0000
  C   C149      1.0  0.16183  0.72370  0.01015  1.0000
  C   C150      1.0  0.14672  0.70472  0.99345  1.0000
  C   C151      1.0  0.14557  0.71243  0.96779  1.0000
  C   C152      1.0  0.15966  0.73858  0.95880  1.0000
  H   H256      1.0  0.11973  0.56809  0.97318  1.0000
  C   C153      1.0  0.04900  0.76760  0.89831  1.0000
  H   H257      1.0  0.13421  0.69779  0.95470  1.0000
  H   H258      1.0  0.15907  0.74371  0.93882  1.0000
  C   C154      1.0  0.14105  0.99011  0.00841  1.0000
  H   H259      1.0  0.15050  0.83287  0.95869  1.0000
  C   C155      1.0  0.03907  0.76307  0.99750  1.0000
  Fe  Fe44      1.0  0.06878  0.91933  0.82123  1.0000
  S   S78       1.0  0.05180  0.63076  0.92144  1.0000
  H   H260      1.0  0.12961  0.57795  0.00497  1.0000
  C   C156      1.0  0.26904  0.95523  0.91435  1.0000
  C   C157      1.0  0.10086  0.75659  0.80575  1.0000
  C   C158      1.0  0.08872  0.98890  0.89980  1.0000
  H   H261      1.0  0.06934  0.55084  0.84565  1.0000
  C   C159      1.0  0.13899  0.84957  0.94645  1.0000
  H   H262      1.0  0.04493  0.76649  0.01771  1.0000
  C   C160      1.0  0.06048  0.73685  0.89925  1.0000
  C   C161      1.0  0.10822  0.85407  0.91207  1.0000
  C   C162      1.0  0.26819  0.93370  0.93497  1.0000
  H   H263      1.0  0.11981  0.83181  0.00052  1.0000
  H   H264      1.0  0.05235  0.71730  0.90990  1.0000
  C   C163      1.0  0.26091  0.57200  0.85187  1.0000
  H   H265      1.0  0.18138  0.80113  0.80302  1.0000
  H   H266      1.0  0.25817  0.54271  0.80604  1.0000
  C   C164      1.0  0.07184  0.53466  0.86163  1.0000
  H   H267      1.0  0.15344  0.83321  0.89988  1.0000
  H   H268      1.0  0.15208  0.86736  0.93812  1.0000
  H   H269      1.0  0.09417  0.86577  0.92399  1.0000
  C   C165      1.0  0.14181  0.81508  0.90977  1.0000
  H   H270      1.0  0.09768  0.79179  0.92436  1.0000
  H   H271      1.0  0.09211  0.98130  0.99826  1.0000
  H   H272      1.0  0.09755  0.84131  0.89656  1.0000
  H   H273      1.0  0.08827  0.80618  0.85918  1.0000
  Fe  Fe45      1.0  0.05533  0.85610  0.84678  1.0000
  H   H274      1.0  0.15485  0.79845  0.92041  1.0000
  H   H275      1.0  0.09555  0.81741  0.95167  1.0000
  C   C166      1.0  0.10888  0.80617  0.93870  1.0000
  H   H276      1.0  0.12649  0.86330  0.95883  1.0000
  H   H277      1.0  0.13148  0.80019  0.89511  1.0000
  H   H278      1.0  0.24235  0.59935  0.80924  1.0000
  H   H279      1.0  0.11929  0.87376  0.90326  1.0000
  H   H280      1.0  0.25061  0.92866  0.94358  1.0000
  N   N16       1.0  0.12446  0.83122  0.92674  1.0000
  H   H281      1.0  0.13416  0.99409  0.94458  1.0000
  C   C167      1.0  0.10742  0.70145  0.82061  1.0000
  H   H282      1.0  0.16255  0.99279  0.96394  1.0000
  C   C168      1.0  0.13363  0.56195  0.98865  1.0000
  N   N17       1.0  0.13231  0.52690  0.99528  1.0000
  C   C169      1.0  0.14245  0.99972  0.96371  1.0000
  H   H283      1.0  0.18746  0.76467  0.01408  1.0000
  S   S79       1.0  0.07654  0.89413  0.78450  1.0000
  H   H284      1.0  0.27058  0.55241  0.86307  1.0000
  H   H285      1.0  0.08373  0.75869  0.81682  1.0000
  H   H286      1.0  0.24178  0.56286  0.84650  1.0000
  C   C170      1.0  0.12205  0.85325  0.01238  1.0000
  C   C171      1.0  0.12989  0.94688  0.97888  1.0000
  S   S80       1.0  0.04441  0.83084  0.88222  1.0000
  H   H287      1.0  0.09177  0.97413  0.91648  1.0000
  H   H288      1.0  0.12176  0.94055  0.95984  1.0000
  H   H289      1.0  0.06593  0.71224  0.79160  1.0000
  N   N18       1.0  0.27497  0.58064  0.82944  1.0000
  H   H290      1.0  0.17036  0.52502  0.01006  1.0000
  H   H291      1.0  0.25465  0.01269  0.81742  1.0000
  C   C172      1.0  0.27690  0.55153  0.81311  1.0000
  N   N19       1.0  0.12899  0.98246  0.98351  1.0000
  S   S81       1.0  0.06177  0.82598  0.81255  1.0000
  H   H292      1.0  0.26939  0.86762  0.83108  1.0000
  Fe  Fe46      1.0  0.04621  0.65386  0.95922  1.0000
  Fe  Fe47      1.0  0.20717  0.88710  0.01762  1.0000
  C   C173      1.0  0.14700  0.81218  0.78218  1.0000
  C   C174      1.0  0.28515  0.88452  0.83622  1.0000
  C   C175      1.0  0.26174  0.60685  0.81522  1.0000
  H   H293      1.0  0.13278  0.69515  0.77859  1.0000
  H   H294      1.0  0.12327  0.70931  0.83355  1.0000
  H   H295      1.0  0.26059  0.62962  0.82661  1.0000
  C   C176      1.0  0.10259  0.99309  0.98304  1.0000
  C   C177      1.0  0.12845  0.72069  0.78407  1.0000
  H   H296      1.0  0.11906  0.93321  0.99290  1.0000
  H   H297      1.0  0.27721  0.90924  0.83932  1.0000
  H   H298      1.0  0.27155  0.61325  0.79785  1.0000
  H   H299      1.0  0.15243  0.56886  0.98214  1.0000
  H   H300      1.0  0.09015  0.70227  0.83162  1.0000
  H   H301      1.0  0.09240  0.52386  0.98851  1.0000
  Fe  Fe48      1.0  0.04109  0.86580  0.79141  1.0000
  H   H302      1.0  0.05249  0.77714  0.98622  1.0000
  N   N20       1.0  0.10516  0.72245  0.79801  1.0000
  H   H303      1.0  0.27542  0.89630  0.88452  1.0000
  C   C178      1.0  0.08379  0.71114  0.78160  1.0000
  H   H304      1.0  0.25901  0.59341  0.86459  1.0000
  H   H305      1.0  0.09270  0.98690  0.96475  1.0000
  H   H306      1.0  0.14480  0.73040  0.79551  1.0000
  H   H307      1.0  0.10218  0.53395  0.02028  1.0000
  H   H308      1.0  0.26724  0.85467  0.87693  1.0000
  C   C179      1.0  0.28326  0.87178  0.88047  1.0000
  H   H309      1.0  0.04119  0.73667  0.99280  1.0000
  H   H310      1.0  0.08638  0.68547  0.77531  1.0000
  C   C180      1.0  0.15099  0.51966  0.01582  1.0000
  C   C181      1.0  0.10696  0.51900  0.00366  1.0000
  S   S82       1.0  0.50397  0.35812  0.25042  1.0000
  C   C182      1.0  0.29971  0.46392  0.23682  1.0000
  Fe  Fe49      1.0  0.33293  0.36078  0.17313  1.0000
  S   S83       1.0  0.30092  0.33691  0.19221  1.0000
  S   S84       1.0  0.33363  0.37129  0.13120  1.0000
  Fe  Fe50      1.0  0.36071  0.37791  0.22369  1.0000
  S   S85       1.0  0.33030  0.35560  0.24595  1.0000
  C   C183      1.0  0.39199  0.30684  0.26180  1.0000
  Fe  Fe51      1.0  0.33088  0.31488  0.21780  1.0000
  S   S86       1.0  0.33488  0.26239  0.23036  1.0000
  Fe  Fe52      1.0  0.30386  0.38034  0.21835  1.0000
  C   C184      1.0  0.46226  0.38362  0.27199  1.0000
  S   S87       1.0  0.36305  0.33567  0.19693  1.0000
  S   S88       1.0  0.33408  0.40540  0.19783  1.0000
  S   S89       1.0  0.39025  0.40181  0.24949  1.0000
  H   H311      1.0  0.32240  0.50731  0.24156  1.0000
  H   H312      1.0  0.32666  0.19786  0.24944  1.0000
  C   C185      1.0  0.30917  0.24498  0.24511  1.0000
  H   H313      1.0  0.32317  0.38842  0.07950  1.0000
  C   C186      1.0  0.28973  0.36217  0.06710  1.0000
  H   H314      1.0  0.29674  0.42469  0.12032  1.0000
  C   C187      1.0  0.47253  0.37082  0.25034  1.0000
  H   H315      1.0  0.41663  0.23139  0.25368  1.0000
  H   H316      1.0  0.39649  0.33213  0.25587  1.0000
  C   C188      1.0  0.42186  0.38976  0.24932  1.0000
  C   C189      1.0  0.43201  0.37650  0.22776  1.0000
  C   C190      1.0  0.45736  0.36739  0.22821  1.0000
  N   N21       1.0  0.41039  0.28322  0.25271  1.0000
  H   H317      1.0  0.42479  0.26786  0.21739  1.0000
  H   H318      1.0  0.42050  0.37400  0.21059  1.0000
  H   H319      1.0  0.46527  0.35764  0.21138  1.0000
  H   H320      1.0  0.39216  0.27826  0.21601  1.0000
  H   H321      1.0  0.37278  0.30127  0.25409  1.0000
  H   H322      1.0  0.44122  0.31657  0.25874  1.0000
  H   H323      1.0  0.31483  0.44971  0.22994  1.0000
  H   H324      1.0  0.30146  0.44593  0.16318  1.0000
  C   C191      1.0  0.30979  0.35805  0.10925  1.0000
  C   C192      1.0  0.30892  0.37118  0.08480  1.0000
  C   C193      1.0  0.41077  0.28487  0.22493  1.0000
  C   C194      1.0  0.31023  0.21225  0.25290  1.0000
  H   H325      1.0  0.28691  0.28866  0.24356  1.0000
  H   H326      1.0  0.41562  0.30991  0.21848  1.0000
  C   C195      1.0  0.29135  0.33564  0.11584  1.0000
  C   C196      1.0  0.43552  0.29134  0.26378  1.0000
  C   C197      1.0  0.30404  0.49664  0.24364  1.0000
  H   H327      1.0  0.45009  0.27459  0.25692  1.0000
  H   H328      1.0  0.28936  0.37231  0.04828  1.0000
  H   H329      1.0  0.29197  0.32506  0.13449  1.0000
  C   C198      1.0  0.40318  0.24985  0.26029  1.0000
  H   H330      1.0  0.28952  0.38803  0.15640  1.0000
  C   C199      1.0  0.29004  0.19793  0.26498  1.0000
  C   C200      1.0  0.28785  0.26340  0.24950  1.0000
  H   H331      1.0  0.29099  0.17263  0.27085  1.0000
  C   C201      1.0  0.43706  0.39339  0.27138  1.0000
  H   H332      1.0  0.38427  0.24308  0.25212  1.0000
  Fe  Fe53      1.0  0.36063  0.09884  0.50687  1.0000
  H   H333      1.0  0.34705  0.47220  0.34348  1.0000
  S   S90       1.0  0.33143  0.07591  0.47956  1.0000
  C   C202      1.0  0.29462  0.13917  0.43160  1.0000
  C   C203      1.0  0.28935  0.08488  0.41417  1.0000
  S   S91       1.0  0.39998  0.07898  0.50879  1.0000
  S   S92       1.0  0.51437  0.05023  0.44348  1.0000
  H   H334      1.0  0.51518  0.50144  0.34219  1.0000
  H   H335      1.0  0.29999  0.16763  0.51415  1.0000
  H   H336      1.0  0.32990  0.43544  0.33542  1.0000
  H   H337      1.0  0.52104  0.18526  0.38201  1.0000
  H   H338      1.0  0.43606  0.29008  0.28471  1.0000
  H   H339      1.0  0.52084  0.22319  0.39889  1.0000
  S   S93       1.0  0.44776  0.15220  0.49949  1.0000
  C   C204      1.0  0.31523  0.51378  0.31999  1.0000
  H   H340      1.0  0.29427  0.45553  0.35965  1.0000
  H   H341      1.0  0.52722  0.10933  0.47163  1.0000
  C   C205      1.0  0.31517  0.09337  0.45298  1.0000
  H   H342      1.0  0.52385  0.43569  0.42038  1.0000
  H   H343      1.0  0.31754  0.13066  0.51151  1.0000
  S   S94       1.0  0.30114  0.05111  0.28603  1.0000
  C   C206      1.0  0.52211  0.45002  0.40330  1.0000
  Fe  Fe54      1.0  0.41173  0.13134  0.51352  1.0000
  H   H344      1.0  0.47383  0.38641  0.28910  1.0000
  H   H345      1.0  0.46632  0.49454  0.51576  1.0000
  H   H346      1.0  0.31107  0.49267  0.36734  1.0000
  H   H347      1.0  0.29558  0.19392  0.38994  1.0000
  C   C207      1.0  0.46629  0.12345  0.48441  1.0000
  C   C208      1.0  0.49223  0.12833  0.48386  1.0000
  C   C209      1.0  0.50726  0.10553  0.47186  1.0000
  C   C210      1.0  0.49634  0.07813  0.45997  1.0000
  C   C211      1.0  0.47049  0.07311  0.46078  1.0000
  C   C212      1.0  0.45549  0.09577  0.47286  1.0000
  H   H348      1.0  0.50071  0.14973  0.49276  1.0000
  H   H349      1.0  0.42933  0.40372  0.28809  1.0000
  H   H350      1.0  0.46191  0.05196  0.45158  1.0000
  H   H351      1.0  0.43547  0.09222  0.47253  1.0000
  S   S95       1.0  0.51137  0.33096  0.32115  1.0000
  N   N22       1.0  0.30978  0.47997  0.32795  1.0000
  C   C213      1.0  0.29575  0.22272  0.32994  1.0000
  H   H352      1.0  0.30131  0.17185  0.36183  1.0000
  H   H353      1.0  0.48633  0.19005  0.45295  1.0000
  C   C214      1.0  0.33330  0.46113  0.32957  1.0000
  C   C215      1.0  0.52015  0.43430  0.37988  1.0000
  C   C216      1.0  0.51995  0.50283  0.38269  1.0000
  S   S96       1.0  0.37276  0.15160  0.50837  1.0000
  Fe  Fe55      1.0  0.53367  0.36927  0.34277  1.0000
  H   H354      1.0  0.29034  0.16495  0.43105  1.0000
  H   H355      1.0  0.31852  0.14334  0.46544  1.0000
  H   H356      1.0  0.28702  0.43919  0.31500  1.0000
  C   C217      1.0  0.52211  0.48418  0.40469  1.0000
  C   C218      1.0  0.51715  0.48713  0.35927  1.0000
  C   C219      1.0  0.51747  0.45284  0.35784  1.0000
  H   H357      1.0  0.49227  0.20713  0.38467  1.0000
  H   H358      1.0  0.48669  0.13826  0.42962  1.0000
  C   C220      1.0  0.49124  0.15193  0.41232  1.0000
  C   C221      1.0  0.49049  0.20302  0.43515  1.0000
  C   C222      1.0  0.52943  0.17423  0.43148  1.0000
  H   H359      1.0  0.29465  0.19873  0.32003  1.0000
  H   H360      1.0  0.47320  0.15709  0.40190  1.0000
  H   H361      1.0  0.31558  0.23107  0.33004  1.0000
  H   H362      1.0  0.52677  0.16214  0.44985  1.0000
  C   C223      1.0  0.51001  0.20026  0.39500  1.0000
  N   N23       1.0  0.50527  0.18236  0.41849  1.0000
  H   H363      1.0  0.52359  0.45813  0.50020  1.0000
  H   H364      1.0  0.48354  0.07710  0.52425  1.0000
  C   C224      1.0  0.30452  0.07250  0.43431  1.0000
  C   C225      1.0  0.30216  0.19668  0.37046  1.0000
  C   C226      1.0  0.29209  0.46445  0.30935  1.0000
  H   H365      1.0  0.50072  0.22598  0.44043  1.0000
  H   H366      1.0  0.34228  0.46028  0.31102  1.0000
  C   C227      1.0  0.31054  0.12695  0.45124  1.0000
  H   H367      1.0  0.30780  0.04647  0.43557  1.0000
  Fe  Fe56      1.0  0.52675  0.35528  0.28725  1.0000
  H   H368      1.0  0.32215  0.20434  0.37182  1.0000
  H   H369      1.0  0.50222  0.13522  0.40051  1.0000
  H   H370      1.0  0.30758  0.26196  0.36934  1.0000
  C   C228      1.0  0.29847  0.48055  0.35285  1.0000
  N   N24       1.0  0.28656  0.22016  0.35571  1.0000
  H   H371      1.0  0.47222  0.20992  0.42587  1.0000
  H   H372      1.0  0.52336  0.49590  0.42287  1.0000
  H   H373      1.0  0.51543  0.44080  0.33972  1.0000
  H   H374      1.0  0.30028  0.46277  0.29051  1.0000
  S   S97       1.0  0.52167  0.39155  0.37894  1.0000
  H   H375      1.0  0.40250  0.24774  0.28112  1.0000
  H   H376      1.0  0.32373  0.51437  0.30122  1.0000
  C   C229      1.0  0.28800  0.25255  0.36804  1.0000
  H   H377      1.0  0.39149  0.30686  0.28269  1.0000
  C   C230      1.0  0.30474  0.14418  0.52372  1.0000
  H   H378      1.0  0.45017  0.51816  0.42317  1.0000
  C   C231      1.0  0.42330  0.48459  0.72665  1.0000
  H   H379      1.0  0.45277  0.24326  0.63382  1.0000
  H   H380      1.0  0.49392  0.14365  0.57140  1.0000
  Fe  Fe57      1.0  0.39675  0.07917  0.55066  1.0000
  S   S98       1.0  0.41067  0.13052  0.55550  1.0000
  H   H381      1.0  0.41211  0.10753  0.76044  1.0000
  Fe  Fe58      1.0  0.37072  0.14587  0.55046  1.0000
  S   S99       1.0  0.35860  0.18788  0.57497  1.0000
  S   S100      1.0  0.35626  0.09426  0.54894  1.0000
  S   S101      1.0  0.49406  0.11129  0.69056  1.0000
  H   H382      1.0  0.50316  0.27601  0.69331  1.0000
  H   H383      1.0  0.39350  0.25810  0.59621  1.0000
  H   H384      1.0  0.49337  0.49283  0.68978  1.0000
  S   S102      1.0  0.48306  0.04424  0.73815  1.0000
  Fe  Fe59      1.0  0.50151  0.40506  0.57219  1.0000
  S   S103      1.0  0.52814  0.36385  0.56608  1.0000
  H   H385      1.0  0.40594  0.48272  0.71438  1.0000
  H   H386      1.0  0.41749  0.27409  0.57680  1.0000
  C   C232      1.0  0.47461  0.08701  0.58682  1.0000
  H   H387      1.0  0.53229  0.50717  0.58335  1.0000
  C   C233      1.0  0.30866  0.32570  0.74526  1.0000
  S   S104      1.0  0.50708  0.20749  0.70407  1.0000
  S   S105      1.0  0.48262  0.37979  0.60390  1.0000
  C   C234      1.0  0.40985  0.25131  0.58503  1.0000
  C   C235      1.0  0.45019  0.22512  0.58498  1.0000
  C   C236      1.0  0.50928  0.21305  0.65226  1.0000
  C   C237      1.0  0.50853  0.23095  0.62962  1.0000
  C   C238      1.0  0.50606  0.26512  0.62987  1.0000
  S   S106      1.0  0.49991  0.43189  0.66350  1.0000
  H   H388      1.0  0.42296  0.26337  0.63354  1.0000
  H   H389      1.0  0.44386  0.20928  0.56884  1.0000
  H   H390      1.0  0.34334  0.12286  0.75411  1.0000
  Fe  Fe60      1.0  0.50893  0.08471  0.72500  1.0000
  Fe  Fe61      1.0  0.51176  0.40451  0.62910  1.0000
  H   H391      1.0  0.49475  0.13325  0.53856  1.0000
  C   C239      1.0  0.28815  0.09751  0.74367  1.0000
  H   H392      1.0  0.32175  0.41915  0.74845  1.0000
  H   H393      1.0  0.50887  0.49256  0.62085  1.0000
  C   C240      1.0  0.42057  0.50196  0.55813  1.0000
  C   C241      1.0  0.42715  0.47543  0.57365  1.0000
  C   C242      1.0  0.44777  0.45587  0.56843  1.0000
  C   C243      1.0  0.46180  0.46248  0.54744  1.0000
  H   H394      1.0  0.48047  0.49069  0.60179  1.0000
  S   S107      1.0  0.48741  0.43770  0.54039  1.0000
  C   C244      1.0  0.31813  0.39313  0.74760  1.0000
  H   H395      1.0  0.45247  0.43527  0.58039  1.0000
  C   C245      1.0  0.29767  0.07952  0.76431  1.0000
  H   H396      1.0  0.47640  0.04630  0.54698  1.0000
  S   S108      1.0  0.29431  0.23165  0.70329  1.0000
  C   C246      1.0  0.46141  0.04412  0.76244  1.0000
  C   C247      1.0  0.32034  0.15471  0.59773  1.0000
  C   C248      1.0  0.33404  0.18377  0.59608  1.0000
  C   C249      1.0  0.32779  0.21053  0.61113  1.0000
  S   S109      1.0  0.50306  0.28650  0.60100  1.0000
  H   H397      1.0  0.40246  0.23561  0.56918  1.0000
  H   H398      1.0  0.32540  0.13371  0.58678  1.0000
  H   H399      1.0  0.33830  0.23310  0.61003  1.0000
  C   C250      1.0  0.36375  0.12410  0.75089  1.0000
  H   H400      1.0  0.45499  0.45984  0.69371  1.0000
  H   H401      1.0  0.45448  0.09379  0.58522  1.0000
  H   H402      1.0  0.45324  0.41830  0.70381  1.0000
  C   C251      1.0  0.30479  0.37954  0.72670  1.0000
  H   H403      1.0  0.42918  0.40417  0.74160  1.0000
  H   H404      1.0  0.31542  0.15033  0.54160  1.0000
  C   C252      1.0  0.30007  0.34581  0.72552  1.0000
  H   H405      1.0  0.47029  0.43365  0.74594  1.0000
  C   C253      1.0  0.45547  0.48927  0.53200  1.0000
  H   H406      1.0  0.45930  0.24724  0.57714  1.0000
  H   H407      1.0  0.46493  0.21182  0.59618  1.0000
  H   H408      1.0  0.46540  0.13535  0.55323  1.0000
  Fe  Fe62      1.0  0.51205  0.34092  0.60060  1.0000
  H   H409      1.0  0.29819  0.39514  0.71143  1.0000
  C   C254      1.0  0.51384  0.08385  0.56612  1.0000
  C   C255      1.0  0.29998  0.15286  0.61363  1.0000
  H   H410      1.0  0.51119  0.18674  0.65185  1.0000
  H   H411      1.0  0.41058  0.06928  0.74406  1.0000
  H   H412      1.0  0.37261  0.13906  0.76640  1.0000
  S   S110      1.0  0.52949  0.12917  0.74108  1.0000
  C   C256      1.0  0.44282  0.44182  0.70310  1.0000
  N   N25       1.0  0.43645  0.45294  0.72855  1.0000
  H   H413      1.0  0.45542  0.46466  0.76393  1.0000
  H   H414      1.0  0.45466  0.07856  0.54017  1.0000
  Fe  Fe63      1.0  0.52893  0.09398  0.67302  1.0000
  C   C257      1.0  0.50445  0.28130  0.65296  1.0000
  H   H415      1.0  0.30293  0.22932  0.63876  1.0000
  H   H416      1.0  0.41605  0.46975  0.58966  1.0000
  N   N26       1.0  0.48716  0.09287  0.56297  1.0000
  C   C258      1.0  0.49302  0.50740  0.61311  1.0000
  S   S111      1.0  0.41598  0.04423  0.57816  1.0000
  N   N27       1.0  0.42911  0.23407  0.60069  1.0000
  C   C259      1.0  0.43838  0.25566  0.62147  1.0000
  C   C260      1.0  0.41802  0.20417  0.61125  1.0000
  H   H417      1.0  0.44737  0.27818  0.61415  1.0000
  H   H418      1.0  0.47227  0.47572  0.73660  1.0000
  Fe  Fe64      1.0  0.51740  0.15381  0.70455  1.0000
  H   H419      1.0  0.43184  0.19074  0.62356  1.0000
  H   H420      1.0  0.41111  0.18718  0.59606  1.0000
  C   C261      1.0  0.51146  0.49319  0.68150  1.0000
  H   H421      1.0  0.40162  0.20998  0.62268  1.0000
  C   C262      1.0  0.28941  0.09356  0.54074  1.0000
  C   C263      1.0  0.50486  0.26336  0.67557  1.0000
  H   H422      1.0  0.52392  0.08804  0.54852  1.0000
  C   C264      1.0  0.51971  0.46580  0.66841  1.0000
  H   H423      1.0  0.34150  0.06944  0.73274  1.0000
  S   S112      1.0  0.30043  0.03680  0.76159  1.0000
  C   C265      1.0  0.42003  0.42850  0.74011  1.0000
  C   C266      1.0  0.36191  0.07188  0.72961  1.0000
  H   H424      1.0  0.42577  0.43808  0.69064  1.0000
  C   C267      1.0  0.29338  0.14792  0.76761  1.0000
  H   H425      1.0  0.40491  0.10658  0.72704  1.0000
  H   H426      1.0  0.50236  0.30758  0.65336  1.0000
  C   C268      1.0  0.43496  0.50915  0.53742  1.0000
  C   C269      1.0  0.50721  0.22919  0.67531  1.0000
  C   C270      1.0  0.47497  0.07284  0.54268  1.0000
  H   H427      1.0  0.48350  0.10134  0.60266  1.0000
  C   C271      1.0  0.32704  0.37288  0.76714  1.0000
  C   C272      1.0  0.30776  0.20846  0.62744  1.0000
  H   H428      1.0  0.36381  0.08360  0.71090  1.0000
  C   C273      1.0  0.45965  0.45692  0.74445  1.0000
  H   H429      1.0  0.47543  0.06079  0.59233  1.0000
  N   N28       1.0  0.37480  0.09110  0.74996  1.0000
  H   H430      1.0  0.52353  0.09841  0.58143  1.0000
  H   H431      1.0  0.30523  0.29962  0.74437  1.0000
  H   H432      1.0  0.40208  0.42527  0.72892  1.0000
  H   H433      1.0  0.41768  0.49316  0.74548  1.0000
  C   C274      1.0  0.48525  0.12784  0.55630  1.0000
  C   C275      1.0  0.29354  0.17973  0.62850  1.0000
  H   H434      1.0  0.36955  0.04668  0.72861  1.0000
  H   H435      1.0  0.36592  0.13755  0.73292  1.0000
  H   H436      1.0  0.50380  0.50557  0.56422  1.0000
  H   H437      1.0  0.51600  0.05771  0.57139  1.0000
  S   S113      1.0  0.52454  0.07360  0.63359  1.0000
  C   C276      1.0  0.40175  0.09380  0.74510  1.0000
  H   H438      1.0  0.28922  0.13046  0.61460  1.0000
  H   H439      1.0  0.51004  0.21832  0.61186  1.0000
  S   S114      1.0  0.52827  0.43243  0.59770  1.0000
  H   H440      1.0  0.43539  0.50400  0.71880  1.0000
  H   H441      1.0  0.29956  0.09790  0.55919  1.0000
  H   H442      1.0  0.49272  0.02466  0.68537  1.0000
  S   S115      1.0  0.29095  0.19052  0.77032  1.0000
  H   H443      1.0  0.41521  0.43599  0.75952  1.0000
  H   H444      1.0  0.48250  0.51617  0.62942  1.0000
  S   S116      1.0  0.36617  0.47704  0.76899  1.0000
  H   H445      1.0  0.30194  0.07905  0.52878  1.0000
  C   C277      1.0  0.32228  0.33919  0.76595  1.0000
  H   H446      1.0  0.38024  0.04975  0.77431  1.0000
  C   C278      1.0  0.37177  0.07447  0.77430  1.0000
  C   C279      1.0  0.28615  0.13165  0.74525  1.0000
  H   H447      1.0  0.33874  0.38009  0.87857  1.0000
  S   S117      1.0  0.36891  0.46165  0.83021  1.0000
  Fe  Fe65      1.0  0.34749  0.44348  0.79576  1.0000
  C   C280      1.0  0.32986  0.38105  0.85924  1.0000
  C   C281      1.0  0.30294  0.12995  0.78821  1.0000
  H   H448      1.0  0.29619  0.37598  0.89586  1.0000
  H   H449      1.0  0.44338  0.08589  0.81417  1.0000
  Fe  Fe66      1.0  0.33570  0.51251  0.77746  1.0000
  Fe  Fe67      1.0  0.33738  0.49710  0.83337  1.0000
  C   C282      1.0  0.30865  0.47803  0.88905  1.0000
  H   H450      1.0  0.30564  0.35455  0.81815  1.0000
  H   H451      1.0  0.29086  0.31559  0.86345  1.0000
  H   H452      1.0  0.31244  0.08254  0.80256  1.0000
  Fe  Fe68      1.0  0.38556  0.49796  0.80371  1.0000
  H   H453      1.0  0.34507  0.45654  0.88643  1.0000
  S   S118      1.0  0.31485  0.47639  0.80052  1.0000
  C   C283      1.0  0.32737  0.45552  0.89553  1.0000
  N   N29       1.0  0.30536  0.36405  0.85793  1.0000
  S   S119      1.0  0.29700  0.40082  0.94997  1.0000
  C   C284      1.0  0.44357  0.06691  0.79996  1.0000
  S   S120      1.0  0.34413  0.38887  0.79335  1.0000
  S   S121      1.0  0.33487  0.03281  0.82851  1.0000
  H   H454      1.0  0.29224  0.39291  0.82625  1.0000
  H   H455      1.0  0.32794  0.40727  0.85394  1.0000
  C   C285      1.0  0.32363  0.43254  0.91466  1.0000
  S   S122      1.0  0.31358  0.50870  0.86646  1.0000
  H   H456      1.0  0.34309  0.36996  0.84608  1.0000
  S   S123      1.0  0.40571  0.03831  0.82595  1.0000
  H   H457      1.0  0.32152  0.31711  0.85086  1.0000
  C   C286      1.0  0.42692  0.04029  0.80128  1.0000
  C   C287      1.0  0.30090  0.43121  0.92691  1.0000
  H   H458      1.0  0.33845  0.41572  0.92006  1.0000
  H   H459      1.0  0.38096  0.08831  0.79028  1.0000
  S   S124      1.0  0.42762  0.50395  0.80186  1.0000
  C   C288      1.0  0.30509  0.09589  0.78655  1.0000
  H   H460      1.0  0.30876  0.14248  0.80547  1.0000
  C   C289      1.0  0.30898  0.32917  0.86423  1.0000
  C   C290      1.0  0.46063  0.06900  0.78048  1.0000
  H   H461      1.0  0.31757  0.32620  0.88358  1.0000
  H   H462      1.0  0.47354  0.08940  0.77978  1.0000
  C   C291      1.0  0.28866  0.37904  0.87612  1.0000
  C   C292      1.0  0.29399  0.36688  0.83216  1.0000
  H   H463      1.0  0.32929  0.32341  0.78094  1.0000
  H   H464      1.0  0.47646  0.51570  0.78340  1.0000
  H   H465      1.0  0.35175  0.07120  0.77838  1.0000
  C   C293      1.0  0.28597  0.47697  0.90145  1.0000
  H   H466      1.0  0.28645  0.40575  0.87270  1.0000
  S   S125      1.0  0.51879  0.85022  0.24593  1.0000
  C   C294      1.0  0.35741  0.83635  0.03565  1.0000
  Fe  Fe69      1.0  0.33637  0.86392  0.19327  1.0000
  H   H467      1.0  0.49060  0.72874  0.23527  1.0000
  S   S126      1.0  0.33079  0.88938  0.15564  1.0000
  Fe  Fe70      1.0  0.36821  0.84379  0.23974  1.0000
  H   H468      1.0  0.31446  0.82178  0.15116  1.0000
  H   H469      1.0  0.51912  0.78387  0.26374  1.0000
  Fe  Fe71      1.0  0.32238  0.80384  0.22295  1.0000
  C   C295      1.0  0.30606  0.83539  0.13554  1.0000
  Fe  Fe72      1.0  0.31577  0.87227  0.24519  1.0000
  C   C296      1.0  0.29112  0.81914  0.11697  1.0000
  S   S127      1.0  0.35729  0.81769  0.20339  1.0000
  S   S128      1.0  0.35046  0.89159  0.22797  1.0000
  C   C297      1.0  0.31065  0.86892  0.13351  1.0000
  H   H470      1.0  0.37575  0.84935  0.03726  1.0000
  H   H471      1.0  0.53227  0.75359  0.24394  1.0000
  H   H472      1.0  0.30286  0.91227  0.11163  1.0000
  H   H473      1.0  0.35892  0.61233  0.24113  1.0000
  C   C298      1.0  0.29137  0.94098  0.27348  1.0000
  H   H474      1.0  0.33122  0.58744  0.23899  1.0000
  C   C299      1.0  0.48645  0.84470  0.25046  1.0000
  S   S129      1.0  0.29153  0.55581  0.26274  1.0000
  N   N30       1.0  0.33634  0.85919  0.03807  1.0000
  C   C300      1.0  0.43470  0.83827  0.25813  1.0000
  C   C301      1.0  0.44282  0.85120  0.23551  1.0000
  C   C302      1.0  0.46868  0.85434  0.23169  1.0000
  H   H475      1.0  0.31143  0.82115  0.04984  1.0000
  H   H476      1.0  0.32562  0.69087  0.23011  1.0000
  H   H477      1.0  0.42924  0.85923  0.22117  1.0000
  H   H478      1.0  0.47490  0.86471  0.21429  1.0000
  C   C303      1.0  0.33679  0.66859  0.22679  1.0000
  C   C304      1.0  0.29413  0.73733  0.24692  1.0000
  C   C305      1.0  0.32184  0.64276  0.26416  1.0000
  H   H479      1.0  0.29597  0.97685  0.16087  1.0000
  S   S130      1.0  0.30366  0.75452  0.21869  1.0000
  S   S131      1.0  0.30078  0.84776  0.20998  1.0000
  H   H480      1.0  0.30072  0.63216  0.20338  1.0000
  C   C306      1.0  0.31409  0.95641  0.26886  1.0000
  H   H481      1.0  0.31239  0.62109  0.27219  1.0000
  S   S132      1.0  0.33421  0.82677  0.25978  1.0000
  H   H482      1.0  0.32386  0.75910  0.26999  1.0000
  H   H483      1.0  0.35563  0.67270  0.23600  1.0000
  C   C307      1.0  0.47817  0.83123  0.27277  1.0000
  H   H484      1.0  0.29618  0.85711  0.03800  1.0000
  C   C308      1.0  0.33996  0.61013  0.23178  1.0000
  C   C309      1.0  0.48589  0.73499  0.25491  1.0000
  H   H485      1.0  0.33665  0.85717  0.07859  1.0000
  C   C310      1.0  0.30734  0.74378  0.26968  1.0000
  H   H486      1.0  0.30393  0.92724  0.21882  1.0000
  H   H487      1.0  0.32956  0.94238  0.26224  1.0000
  H   H488      1.0  0.31041  0.66447  0.26857  1.0000
  C   C311      1.0  0.30542  0.94774  0.20527  1.0000
  C   C312      1.0  0.33833  0.87523  0.06304  1.0000
  C   C313      1.0  0.29953  0.88627  0.11321  1.0000
  C   C314      1.0  0.31248  0.84087  0.03548  1.0000
  C   C315      1.0  0.29949  0.63498  0.22412  1.0000
  N   N31       1.0  0.32453  0.63912  0.23671  1.0000
  H   H489      1.0  0.33899  0.66686  0.20609  1.0000
  H   H490      1.0  0.32323  0.89354  0.06504  1.0000
  H   H491      1.0  0.35651  0.88827  0.06613  1.0000
  H   H492      1.0  0.52569  0.69467  0.25304  1.0000
  H   H493      1.0  0.35741  0.81730  0.05062  1.0000
  H   H494      1.0  0.31851  0.94003  0.19067  1.0000
  S   S133      1.0  0.28662  0.89913  0.26677  1.0000
  H   H495      1.0  0.28965  0.61305  0.23127  1.0000
  S   S134      1.0  0.40285  0.83587  0.26527  1.0000
  C   C316      1.0  0.52674  0.75868  0.26351  1.0000
  H   H496      1.0  0.34230  0.60658  0.21124  1.0000
  H   H497      1.0  0.29136  0.00560  0.18588  1.0000
  H   H498      1.0  0.31419  0.96879  0.21569  1.0000
  H   H499      1.0  0.33448  0.00207  0.26924  1.0000
  H   H500      1.0  0.47714  0.75968  0.25436  1.0000
  H   H501      1.0  0.28737  0.65639  0.22750  1.0000
  C   C317      1.0  0.31687  0.99020  0.27288  1.0000
  H   H502      1.0  0.28808  0.79306  0.11844  1.0000
  H   H503      1.0  0.47148  0.71724  0.26090  1.0000
  N   N32       1.0  0.50838  0.73450  0.27212  1.0000
  C   C318      1.0  0.51974  0.70163  0.27213  1.0000
  H   H504      1.0  0.34029  0.64575  0.27441  1.0000
  H   H505      1.0  0.42866  0.57983  0.44620  1.0000
  H   H506      1.0  0.46028  0.93986  0.28890  1.0000
  S   S135      1.0  0.32431  0.62868  0.48178  1.0000
  H   H507      1.0  0.50647  0.68261  0.27847  1.0000
  H   H508      1.0  0.48078  0.61216  0.44233  1.0000
  H   H509      1.0  0.49999  0.93968  0.34820  1.0000
  C   C319      1.0  0.31550  0.56035  0.42592  1.0000
  Fe  Fe73      1.0  0.41177  0.63010  0.52091  1.0000
  H   H510      1.0  0.48776  0.72461  0.30520  1.0000
  C   C320      1.0  0.29854  0.57553  0.40872  1.0000
  H   H511      1.0  0.51174  0.00021  0.51315  1.0000
  S   S136      1.0  0.39169  0.58590  0.50485  1.0000
  H   H512      1.0  0.47054  0.53846  0.40219  1.0000
  C   C321      1.0  0.29035  0.60715  0.41381  1.0000
  H   H513      1.0  0.30920  0.73580  0.30984  1.0000
  H   H514      1.0  0.47693  0.86139  0.32058  1.0000
  H   H515      1.0  0.29792  0.52864  0.31841  1.0000
  C   C322      1.0  0.31550  0.60796  0.45342  1.0000
  H   H516      1.0  0.46658  0.94451  0.34614  1.0000
  H   H517      1.0  0.45734  0.89633  0.28675  1.0000
  H   H518      1.0  0.49151  0.82369  0.28727  1.0000
  S   S137      1.0  0.28749  0.55390  0.38149  1.0000
  C   C323      1.0  0.32412  0.57658  0.44811  1.0000
  H   H519      1.0  0.32183  0.53584  0.42220  1.0000
  C   C324      1.0  0.29864  0.62314  0.43616  1.0000
  C   C325      1.0  0.47314  0.59576  0.42703  1.0000
  Fe  Fe74      1.0  0.35655  0.61543  0.50904  1.0000
  H   H520      1.0  0.30301  0.72867  0.50163  1.0000
  H   H521      1.0  0.45709  0.60852  0.41743  1.0000
  S   S138      1.0  0.52107  0.54569  0.38429  1.0000
  C   C326      1.0  0.51504  0.58728  0.50956  1.0000
  C   C327      1.0  0.51629  0.61874  0.49951  1.0000
  C   C328      1.0  0.49534  0.63909  0.49940  1.0000
  S   S139      1.0  0.28874  0.60604  0.32222  1.0000
  C   C329      1.0  0.44566  0.56860  0.45532  1.0000
  H   H522      1.0  0.52118  0.90927  0.31552  1.0000
  H   H523      1.0  0.49631  0.66320  0.49114  1.0000
  H   H524      1.0  0.53343  0.62738  0.49163  1.0000
  H   H525      1.0  0.43992  0.54510  0.46395  1.0000
  C   C330      1.0  0.47187  0.59690  0.52008  1.0000
  H   H526      1.0  0.32465  0.69551  0.50637  1.0000
  H   H527      1.0  0.28675  0.64432  0.52083  1.0000
  H   H528      1.0  0.50351  0.88965  0.29029  1.0000
  C   C331      1.0  0.47864  0.88342  0.33277  1.0000
  H   H529      1.0  0.50266  0.54428  0.43673  1.0000
  H   H530      1.0  0.45208  0.58519  0.47095  1.0000
  C   C332      1.0  0.48347  0.94199  0.33477  1.0000
  H   H531      1.0  0.49515  0.87976  0.34596  1.0000
  H   H532      1.0  0.52405  0.96152  0.52268  1.0000
  H   H533      1.0  0.44149  0.91801  0.31064  1.0000
  S   S140      1.0  0.44658  0.65308  0.50677  1.0000
  N   N33       1.0  0.46549  0.56375  0.43713  1.0000
  H   H534      1.0  0.51781  0.74323  0.31136  1.0000
  C   C333      1.0  0.47304  0.62808  0.50935  1.0000
  C   C334      1.0  0.49291  0.57646  0.52016  1.0000
  H   H535      1.0  0.48797  0.59293  0.41306  1.0000
  H   H536      1.0  0.48242  0.52385  0.45791  1.0000
  C   C335      1.0  0.45914  0.91713  0.30028  1.0000
  H   H537      1.0  0.29185  0.64737  0.44011  1.0000
  H   H538      1.0  0.33694  0.56456  0.46135  1.0000
  H   H539      1.0  0.46172  0.88430  0.34423  1.0000
  C   C336      1.0  0.29918  0.73032  0.29217  1.0000
  C   C337      1.0  0.48735  0.54805  0.44995  1.0000
  H   H540      1.0  0.43951  0.55369  0.40600  1.0000
  H   H541      1.0  0.44630  0.81794  0.29410  1.0000
  H   H542      1.0  0.48580  0.96512  0.32411  1.0000
  N   N34       1.0  0.48131  0.91347  0.31767  1.0000
  C   C338      1.0  0.50122  0.74276  0.29794  1.0000
  C   C339      1.0  0.45595  0.54259  0.41622  1.0000
  H   H543      1.0  0.49514  0.56343  0.46567  1.0000
  H   H544      1.0  0.50643  0.93325  0.29092  1.0000
  C   C340      1.0  0.50408  0.91133  0.30296  1.0000
  H   H545      1.0  0.49233  0.76720  0.29867  1.0000
  S   S141      1.0  0.37743  0.66075  0.52165  1.0000
  C   C341      1.0  0.30449  0.70226  0.50630  1.0000
  H   H546      1.0  0.44442  0.97181  0.51149  1.0000
  C   C342      1.0  0.29708  0.00869  0.28180  1.0000
  H   H547      1.0  0.29496  0.68820  0.49060  1.0000
  H   H548      1.0  0.32815  0.52649  0.33385  1.0000
  H   H549      1.0  0.52798  0.99045  0.47068  1.0000
  H   H550      1.0  0.28781  0.80274  0.28431  1.0000
  C   C343      1.0  0.52883  0.98791  0.52117  1.0000
  H   H551      1.0  0.53455  0.95608  0.38373  1.0000
  C   C344      1.0  0.45249  0.82800  0.27658  1.0000
  S   S142      1.0  0.50764  0.87949  0.59737  1.0000
  S   S143      1.0  0.31490  0.54107  0.74697  1.0000
  H   H552      1.0  0.45211  0.00125  0.60201  1.0000
  Fe  Fe75      1.0  0.38740  0.57349  0.54583  1.0000
  S   S144      1.0  0.41016  0.61566  0.56129  1.0000
  S   S145      1.0  0.39416  0.52523  0.56518  1.0000
  Fe  Fe76      1.0  0.37381  0.64270  0.56097  1.0000
  S   S146      1.0  0.36767  0.68129  0.59058  1.0000
  S   S147      1.0  0.35047  0.59930  0.54892  1.0000
  C   C345      1.0  0.48035  0.55393  0.58793  1.0000
  H   H553      1.0  0.37372  0.63837  0.66960  1.0000
  H   H554      1.0  0.41115  0.72184  0.56330  1.0000
  C   C346      1.0  0.29345  0.68613  0.63034  1.0000
  H   H555      1.0  0.42643  0.70923  0.53536  1.0000
  Fe  Fe77      1.0  0.50853  0.90033  0.55829  1.0000
  H   H556      1.0  0.45459  0.58820  0.52763  1.0000
  H   H557      1.0  0.32705  0.70696  0.55275  1.0000
  C   C347      1.0  0.29772  0.66080  0.61321  1.0000
  C   C348      1.0  0.47239  0.97781  0.65600  1.0000
  H   H558      1.0  0.48596  0.97867  0.64073  1.0000
  Fe  Fe78      1.0  0.51120  0.62228  0.72652  1.0000
  H   H559      1.0  0.30884  0.72950  0.64815  1.0000
  H   H560      1.0  0.33620  0.63854  0.72690  1.0000
  H   H561      1.0  0.45582  0.99499  0.70130  1.0000
  C   C349      1.0  0.30867  0.82801  0.75226  1.0000
  H   H562      1.0  0.51081  0.71821  0.60925  1.0000
  C   C350      1.0  0.30687  0.71366  0.55097  1.0000
  H   H563      1.0  0.45318  0.95132  0.69742  1.0000
  C   C351      1.0  0.44636  0.97840  0.53123  1.0000
  H   H564      1.0  0.35990  0.58904  0.69268  1.0000
  C   C352      1.0  0.29818  0.84915  0.73410  1.0000
  H   H565      1.0  0.32868  0.58674  0.70355  1.0000
  C   C353      1.0  0.46667  0.97185  0.70065  1.0000
  S   S148      1.0  0.29255  0.73612  0.70618  1.0000
  H   H566      1.0  0.44827  0.76276  0.53344  1.0000
  H   H567      1.0  0.30597  0.80188  0.75028  1.0000
  H   H568      1.0  0.29956  0.63269  0.69638  1.0000
  H   H569      1.0  0.34719  0.63480  0.64781  1.0000
  H   H570      1.0  0.36723  0.64153  0.71560  1.0000
  C   C354      1.0  0.45057  0.99495  0.58223  1.0000
  C   C355      1.0  0.46505  0.96934  0.57292  1.0000
  C   C356      1.0  0.46270  0.96076  0.54740  1.0000
  H   H571      1.0  0.46174  0.00112  0.65524  1.0000
  C   C357      1.0  0.43205  0.00406  0.54049  1.0000
  C   C358      1.0  0.31187  0.64188  0.68165  1.0000
  H   H572      1.0  0.47760  0.95581  0.58550  1.0000
  H   H573      1.0  0.45484  0.70577  0.60073  1.0000
  C   C359      1.0  0.35368  0.64501  0.66643  1.0000
  H   H574      1.0  0.51391  0.94262  0.66612  1.0000
  H   H575      1.0  0.43299  0.77594  0.56121  1.0000
  C   C360      1.0  0.32051  0.65888  0.60109  1.0000
  C   C361      1.0  0.33898  0.68272  0.60563  1.0000
  C   C362      1.0  0.33462  0.70826  0.62253  1.0000
  H   H576      1.0  0.31914  0.92172  0.75913  1.0000
  H   H577      1.0  0.43607  0.74205  0.60016  1.0000
  H   H578      1.0  0.32382  0.63890  0.58834  1.0000
  H   H579      1.0  0.34884  0.72682  0.62611  1.0000
  N   N35       1.0  0.48530  0.97315  0.68092  1.0000
  C   C363      1.0  0.51880  0.55602  0.61362  1.0000
  C   C364      1.0  0.29759  0.64831  0.76261  1.0000
  C   C365      1.0  0.34726  0.64753  0.71108  1.0000
  C   C366      1.0  0.45295  0.73062  0.59242  1.0000
  N   N36       1.0  0.33828  0.63279  0.68690  1.0000
  H   H580      1.0  0.42104  0.60449  0.75163  1.0000
  S   S149      1.0  0.53376  0.66479  0.74183  1.0000
  H   H581      1.0  0.49166  0.55186  0.52742  1.0000
  H   H582      1.0  0.51750  0.00171  0.67240  1.0000
  S   S150      1.0  0.29051  0.68914  0.76937  1.0000
  H   H583      1.0  0.30585  0.74040  0.54738  1.0000
  C   C367      1.0  0.52518  0.01095  0.61577  1.0000
  S   S151      1.0  0.47950  0.92804  0.53487  1.0000
  H   H584      1.0  0.51198  0.99883  0.70528  1.0000
  H   H585      1.0  0.52561  0.57736  0.60286  1.0000
  C   C368      1.0  0.43391  0.01224  0.56605  1.0000
  S   S152      1.0  0.47022  0.61798  0.73508  1.0000
  H   H586      1.0  0.42920  0.68509  0.56341  1.0000
  C   C369      1.0  0.44960  0.76284  0.55442  1.0000
  H   H587      1.0  0.30448  0.63168  0.66335  1.0000
  H   H588      1.0  0.35273  0.67211  0.66495  1.0000
  C   C370      1.0  0.30862  0.58233  0.75325  1.0000
  H   H589      1.0  0.29873  0.70912  0.56961  1.0000
  H   H590      1.0  0.51964  0.54299  0.69269  1.0000
  C   C371      1.0  0.34027  0.59682  0.68843  1.0000
  H   H591      1.0  0.33372  0.58496  0.67042  1.0000
  Fe  Fe79      1.0  0.52644  0.83546  0.58121  1.0000
  S   S153      1.0  0.52354  0.85446  0.54146  1.0000
  C   C372      1.0  0.52163  0.73303  0.62264  1.0000
  N   N37       1.0  0.45113  0.72927  0.56457  1.0000
  H   H592      1.0  0.53264  0.99726  0.54065  1.0000
  H   H593      1.0  0.48638  0.57480  0.57618  1.0000
  C   C373      1.0  0.52654  0.76598  0.61717  1.0000
  C   C374      1.0  0.47390  0.55965  0.76107  1.0000
  H   H594      1.0  0.52299  0.54181  0.56449  1.0000
  H   H595      1.0  0.49101  0.72644  0.56111  1.0000
  C   C375      1.0  0.53089  0.71903  0.64537  1.0000
  H   H596      1.0  0.30954  0.66888  0.68090  1.0000
  C   C376      1.0  0.31200  0.70984  0.63503  1.0000
  C   C377      1.0  0.31615  0.89563  0.75736  1.0000
  H   H597      1.0  0.52342  0.96035  0.60451  1.0000
  H   H598      1.0  0.46938  0.56401  0.60347  1.0000
  C   C378      1.0  0.28857  0.59753  0.74022  1.0000
  H   H599      1.0  0.34552  0.67465  0.71077  1.0000
  H   H600      1.0  0.45899  0.95752  0.65144  1.0000
  C   C379      1.0  0.45845  0.58510  0.75248  1.0000
  N   N38       1.0  0.50201  0.53483  0.59779  1.0000
  S   S154      1.0  0.51442  0.78324  0.58875  1.0000
  H   H601      1.0  0.47524  0.68752  0.56226  1.0000
  C   C380      1.0  0.47354  0.71301  0.55515  1.0000
  C   C381      1.0  0.32342  0.84062  0.77258  1.0000
  H   H602      1.0  0.48723  0.92086  0.67698  1.0000
  H   H603      1.0  0.46732  0.53853  0.57597  1.0000
  H   H604      1.0  0.49323  0.55913  0.75603  1.0000
  H   H605      1.0  0.47274  0.71158  0.53418  1.0000
  C   C382      1.0  0.50261  0.00078  0.68620  1.0000
  S   S155      1.0  0.52279  0.63063  0.68675  1.0000
  H   H606      1.0  0.50989  0.93829  0.69927  1.0000
  H   H607      1.0  0.50925  0.56555  0.63034  1.0000
  C   C383      1.0  0.30179  0.88297  0.73678  1.0000
  H   H608      1.0  0.46649  0.77753  0.56031  1.0000
  H   H609      1.0  0.46947  0.74533  0.59929  1.0000
  C   C384      1.0  0.49965  0.94235  0.68085  1.0000
  C   C385      1.0  0.53305  0.97832  0.61636  1.0000
  H   H610      1.0  0.47590  0.96871  0.71971  1.0000
  C   C386      1.0  0.42847  0.71062  0.55629  1.0000
  H   H611      1.0  0.29377  0.89941  0.72273  1.0000
  H   H612      1.0  0.31616  0.65216  0.53696  1.0000
  H   H613      1.0  0.44516  0.99819  0.74999  1.0000
  H   H614      1.0  0.52706  0.69366  0.64944  1.0000
  N   N39       1.0  0.29355  0.69473  0.53074  1.0000
  H   H615      1.0  0.41913  0.01691  0.52790  1.0000
  C   C387      1.0  0.29615  0.65944  0.53598  1.0000
  H   H616      1.0  0.42999  0.52958  0.52536  1.0000
  H   H617      1.0  0.28797  0.65267  0.55418  1.0000
  C   C388      1.0  0.43311  0.58493  0.75834  1.0000
  C   C389      1.0  0.52630  0.52160  0.68311  1.0000
  C   C390      1.0  0.51589  0.52180  0.57651  1.0000
  C   C391      1.0  0.32331  0.60027  0.77082  1.0000
  C   C392      1.0  0.44465  0.01766  0.76372  1.0000
  C   C393      1.0  0.42336  0.55987  0.77316  1.0000
  H   H618      1.0  0.50937  0.01783  0.60360  1.0000
  H   H619      1.0  0.53560  0.54247  0.62093  1.0000
  Fe  Fe80      1.0  0.34360  0.94357  0.80774  1.0000
  S   S156      1.0  0.35899  0.96281  0.84510  1.0000
  C   C394      1.0  0.30974  0.84018  0.85388  1.0000
  C   C395      1.0  0.31288  0.92592  0.93329  1.0000
  H   H620      1.0  0.33049  0.89015  0.88289  1.0000
  H   H621      1.0  0.31159  0.59850  0.82118  1.0000
  H   H622      1.0  0.32999  0.91489  0.94072  1.0000
  H   H623      1.0  0.48590  0.57613  0.81374  1.0000
  Fe  Fe81      1.0  0.32150  0.98712  0.84719  1.0000
  C   C396      1.0  0.32067  0.89589  0.86455  1.0000
  S   S157      1.0  0.30574  0.96558  0.81102  1.0000
  H   H624      1.0  0.41488  0.99507  0.78384  1.0000
  H   H625      1.0  0.33489  0.89494  0.84996  1.0000
  C   C397      1.0  0.31371  0.94734  0.91264  1.0000
  C   C398      1.0  0.49889  0.58664  0.82862  1.0000
  H   H626      1.0  0.33593  0.87297  0.99897  1.0000
  H   H627      1.0  0.29711  0.88628  0.81962  1.0000
  H   H628      1.0  0.32907  0.64693  0.78930  1.0000
  C   C399      1.0  0.46429  0.53495  0.77634  1.0000
  C   C400      1.0  0.30033  0.59211  0.83756  1.0000
  C   C401      1.0  0.42738  0.01586  0.78290  1.0000
  H   H629      1.0  0.50479  0.64478  0.80674  1.0000
  H   H630      1.0  0.48851  0.60633  0.83811  1.0000
  H   H631      1.0  0.35450  0.89916  0.01969  1.0000
  H   H632      1.0  0.33923  0.58907  0.78044  1.0000
  C   C402      1.0  0.33705  0.88425  0.01809  1.0000
  H   H633      1.0  0.31408  0.92156  0.86530  1.0000
  S   S158      1.0  0.35620  0.53586  0.81057  1.0000
  H   H634      1.0  0.50295  0.56707  0.84271  1.0000
  H   H635      1.0  0.32202  0.84049  0.83740  1.0000
  H   H636      1.0  0.30991  0.82933  0.01654  1.0000
  Fe  Fe82      1.0  0.37084  0.00642  0.82222  1.0000
  H   H637      1.0  0.32117  0.83103  0.87038  1.0000
  S   S159      1.0  0.35821  0.98505  0.78484  1.0000
  C   C403      1.0  0.29015  0.91900  0.94453  1.0000
  H   H638      1.0  0.53271  0.63509  0.79085  1.0000
  N   N40       1.0  0.52206  0.59929  0.81784  1.0000
  C   C404      1.0  0.31767  0.63312  0.77566  1.0000
  N   N41       1.0  0.29969  0.87305  0.85879  1.0000
  S   S160      1.0  0.34622  0.88946  0.80044  1.0000
  Fe  Fe83      1.0  0.32179  0.00942  0.79228  1.0000
  H   H639      1.0  0.33139  0.95286  0.90438  1.0000
  S   S161      1.0  0.29181  0.98818  0.87654  1.0000
  H   H640      1.0  0.32089  0.90128  0.01892  1.0000
  C   C405      1.0  0.43904  0.53513  0.78255  1.0000
  H   H641      1.0  0.52374  0.56031  0.79077  1.0000
  C   C406      1.0  0.51558  0.62437  0.79870  1.0000
  H   H642      1.0  0.40383  0.56010  0.77773  1.0000
  H   H643      1.0  0.29363  0.86366  0.89798  1.0000
  S   S162      1.0  0.29019  0.89180  0.97036  1.0000
  H   H644      1.0  0.29960  0.61414  0.84979  1.0000
  H   H645      1.0  0.28811  0.55673  0.79642  1.0000
  H   H646      1.0  0.52905  0.63492  0.84718  1.0000
  H   H647      1.0  0.50396  0.61401  0.78267  1.0000
  C   C407      1.0  0.29175  0.96188  0.90295  1.0000
  H   H648      1.0  0.33208  0.82411  0.78620  1.0000
  H   H649      1.0  0.31084  0.57298  0.84838  1.0000
  H   H650      1.0  0.29447  0.82216  0.84961  1.0000
  H   H651      1.0  0.35624  0.82355  0.01710  1.0000
  H   H652      1.0  0.28616  0.53100  0.82343  1.0000
  C   C408      1.0  0.53551  0.57224  0.80596  1.0000
  C   C409      1.0  0.32733  0.87440  0.77505  1.0000
  H   H653      1.0  0.64044  0.04718  0.25767  1.0000
  S   S163      1.0  0.73877  0.46705  0.26163  1.0000
  C   C410      1.0  0.75898  0.07654  0.04093  1.0000
  C   C411      1.0  0.77346  0.10347  0.26367  1.0000
  H   H654      1.0  0.74809  0.09579  0.03058  1.0000
  Fe  Fe84      1.0  0.76706  0.02327  0.18972  1.0000
  H   H655      1.0  0.66911  0.02526  0.26367  1.0000
  H   H656      1.0  0.74665  0.47327  0.15009  1.0000
  S   S164      1.0  0.74295  0.03940  0.22112  1.0000
  Fe  Fe85      1.0  0.70787  0.48878  0.23717  1.0000
  H   H657      1.0  0.76838  0.47868  0.12569  1.0000
  Fe  Fe86      1.0  0.75908  0.51430  0.25481  1.0000
  S   S165      1.0  0.77531  0.06040  0.15943  1.0000
  H   H658      1.0  0.74078  0.41787  0.16874  1.0000
  H   H659      1.0  0.75910  0.09027  0.25298  1.0000
  S   S166      1.0  0.66657  0.48617  0.24493  1.0000
  S   S167      1.0  0.72215  0.46969  0.20087  1.0000
  H   H660      1.0  0.75965  0.38460  0.15937  1.0000
  C   C412      1.0  0.75534  0.46079  0.13402  1.0000
  S   S168      1.0  0.77803  0.49639  0.22054  1.0000
  H   H661      1.0  0.78215  0.33561  0.23234  1.0000
  H   H662      1.0  0.74012  0.45557  0.11960  1.0000
  Fe  Fe87      1.0  0.75448  0.45144  0.22504  1.0000
  H   H663      1.0  0.75293  0.05245  0.03293  1.0000
  C   C413      1.0  0.62811  0.45114  0.26457  1.0000
  N   N42       1.0  0.76847  0.43066  0.14222  1.0000
  H   H664      1.0  0.76056  0.15051  0.25058  1.0000
  C   C414      1.0  0.77423  0.13768  0.26244  1.0000
  S   S169      1.0  0.76788  0.40064  0.21732  1.0000
  C   C415      1.0  0.75029  0.40730  0.15239  1.0000
  H   H665      1.0  0.73550  0.40027  0.13800  1.0000
  C   C416      1.0  0.78051  0.41575  0.12050  1.0000
  H   H666      1.0  0.61596  0.46788  0.25418  1.0000
  C   C417      1.0  0.65419  0.45430  0.26316  1.0000
  H   H667      1.0  0.77937  0.45057  0.17846  1.0000
  C   C418      1.0  0.64840  0.02391  0.26514  1.0000
  H   H668      1.0  0.76647  0.40934  0.10517  1.0000
  H   H669      1.0  0.78328  0.13410  0.04013  1.0000
  H   H670      1.0  0.75356  0.07717  0.06096  1.0000
  Fe  Fe88      1.0  0.74454  0.51608  0.19895  1.0000
  H   H671      1.0  0.64392  0.22330  0.31548  1.0000
  C   C419      1.0  0.75892  0.36493  0.31180  1.0000
  S   S170      1.0  0.57805  0.09689  0.46013  1.0000
  Fe  Fe89      1.0  0.59430  0.05484  0.39789  1.0000
  S   S171      1.0  0.62259  0.08486  0.42031  1.0000
  S   S172      1.0  0.56112  0.32380  0.28708  1.0000
  Fe  Fe90      1.0  0.60739  0.05912  0.45376  1.0000
  H   H672      1.0  0.64149  0.06880  0.30123  1.0000
  Fe  Fe91      1.0  0.59046  0.11967  0.42413  1.0000
  S   S173      1.0  0.59366  0.17475  0.42221  1.0000
  S   S174      1.0  0.54646  0.39634  0.30879  1.0000
  S   S175      1.0  0.56319  0.09133  0.39908  1.0000
  Fe  Fe92      1.0  0.57945  0.36253  0.31158  1.0000
  Fe  Fe93      1.0  0.71335  0.41168  0.51554  1.0000
  H   H673      1.0  0.64502  0.24966  0.36874  1.0000
  C   C420      1.0  0.62771  0.25313  0.35666  1.0000
  C   C421      1.0  0.62299  0.45501  0.38375  1.0000
  S   S176      1.0  0.69713  0.37686  0.48656  1.0000
  Fe  Fe94      1.0  0.69965  0.34076  0.51822  1.0000
  H   H674      1.0  0.76403  0.43034  0.31439  1.0000
  Fe  Fe95      1.0  0.73708  0.36309  0.47985  1.0000
  S   S177      1.0  0.75406  0.36185  0.44119  1.0000
  C   C422      1.0  0.65834  0.49889  0.50134  1.0000
  C   C423      1.0  0.74649  0.37073  0.35475  1.0000
  H   H675      1.0  0.64473  0.04150  0.32751  1.0000
  C   C424      1.0  0.61062  0.46889  0.34085  1.0000
  C   C425      1.0  0.76829  0.32714  0.42821  1.0000
  H   H676      1.0  0.66102  0.30084  0.34926  1.0000
  H   H677      1.0  0.64830  0.31381  0.31900  1.0000
  S   S178      1.0  0.62096  0.37433  0.31239  1.0000
  H   H678      1.0  0.59063  0.45153  0.48448  1.0000
  H   H679      1.0  0.77315  0.18326  0.39518  1.0000
  C   C426      1.0  0.77449  0.18240  0.34468  1.0000
  H   H680      1.0  0.61283  0.28393  0.29848  1.0000
  S   S179      1.0  0.54756  0.24714  0.32578  1.0000
  H   H681      1.0  0.55940  0.18028  0.33503  1.0000
  S   S180      1.0  0.56802  0.33839  0.34725  1.0000
  H   H682      1.0  0.61858  0.22876  0.35392  1.0000
  C   C427      1.0  0.67652  0.47495  0.49762  1.0000
  C   C428      1.0  0.68051  0.46391  0.47320  1.0000
  H   H683      1.0  0.75431  0.43465  0.34616  1.0000
  H   H684      1.0  0.54304  0.49170  0.49130  1.0000
  H   H685      1.0  0.63343  0.43309  0.37774  1.0000
  H   H686      1.0  0.69474  0.44587  0.47010  1.0000
  C   C429      1.0  0.58721  0.46301  0.50303  1.0000
  N   N43       1.0  0.76157  0.38518  0.33487  1.0000
  C   C430      1.0  0.66665  0.47699  0.45258  1.0000
  H   H687      1.0  0.57178  0.49721  0.36232  1.0000
  N   N44       1.0  0.63313  0.26854  0.33232  1.0000
  H   H688      1.0  0.75517  0.29260  0.45526  1.0000
  H   H689      1.0  0.74838  0.38504  0.37263  1.0000
  H   H690      1.0  0.74444  0.16638  0.38192  1.0000
  H   H691      1.0  0.67017  0.46869  0.43373  1.0000
  C   C431      1.0  0.60975  0.27109  0.31658  1.0000
  C   C432      1.0  0.56047  0.22769  0.35277  1.0000
  C   C433      1.0  0.65930  0.40799  0.29151  1.0000
  C   C434      1.0  0.57465  0.17742  0.37321  1.0000
  C   C435      1.0  0.58118  0.19478  0.39522  1.0000
  C   C436      1.0  0.57738  0.22868  0.39593  1.0000
  C   C437      1.0  0.56691  0.24511  0.37479  1.0000
  H   H692      1.0  0.57777  0.15138  0.37237  1.0000
  H   H693      1.0  0.58238  0.24221  0.41297  1.0000
  H   H694      1.0  0.56378  0.27119  0.37557  1.0000
  H   H695      1.0  0.60259  0.45511  0.51645  1.0000
  N   N45       1.0  0.60148  0.46200  0.36620  1.0000
  Fe  Fe96      1.0  0.55334  0.06596  0.43474  1.0000
  H   H696      1.0  0.62131  0.44786  0.33356  1.0000
  S   S181      1.0  0.58170  0.02654  0.43099  1.0000
  H   H697      1.0  0.72625  0.36993  0.34895  1.0000
  H   H698      1.0  0.59532  0.28502  0.32641  1.0000
  H   H699      1.0  0.63641  0.47594  0.38488  1.0000
  H   H700      1.0  0.67147  0.39145  0.30202  1.0000
  C   C438      1.0  0.55561  0.02820  0.50272  1.0000
  H   H701      1.0  0.54114  0.19645  0.43531  1.0000
  H   H702      1.0  0.73896  0.36192  0.30535  1.0000
  H   H703      1.0  0.77464  0.11919  0.33158  1.0000
  H   H704      1.0  0.76639  0.14059  0.39899  1.0000
  C   C439      1.0  0.56436  0.19385  0.35205  1.0000
  H   H705      1.0  0.63007  0.31765  0.34628  1.0000
  C   C440      1.0  0.77852  0.26930  0.42831  1.0000
  C   C441      1.0  0.76626  0.29606  0.43890  1.0000
  S   S182      1.0  0.69439  0.45949  0.52355  1.0000
  C   C442      1.0  0.64368  0.30157  0.33695  1.0000
  H   H706      1.0  0.58899  0.48996  0.50065  1.0000
  H   H707      1.0  0.76870  0.37630  0.29596  1.0000
  H   H708      1.0  0.61484  0.26847  0.36753  1.0000
  S   S183      1.0  0.75320  0.40168  0.50629  1.0000
  H   H709      1.0  0.57718  0.42727  0.38352  1.0000
  H   H710      1.0  0.58021  0.48605  0.39422  1.0000
  C   C443      1.0  0.58783  0.49070  0.37537  1.0000
  C   C444      1.0  0.76470  0.16135  0.38551  1.0000
  H   H711      1.0  0.66931  0.24633  0.33024  1.0000
  H   H712      1.0  0.60029  0.51255  0.37736  1.0000
  H   H713      1.0  0.76712  0.34019  0.31475  1.0000
  C   C445      1.0  0.64862  0.50105  0.45625  1.0000
  N   N46       1.0  0.77725  0.15417  0.36187  1.0000
  S   S184      1.0  0.62717  0.03316  0.48610  1.0000
  S   S185      1.0  0.73800  0.32318  0.50892  1.0000
  H   H714      1.0  0.74543  0.12852  0.34518  1.0000
  H   H715      1.0  0.56359  0.40509  0.49694  1.0000
  H   H716      1.0  0.76780  0.10297  0.36190  1.0000
  S   S186      1.0  0.60513  0.02670  0.36379  1.0000
  H   H717      1.0  0.60428  0.03736  0.28513  1.0000
  C   C446      1.0  0.65131  0.24846  0.31905  1.0000
  H   H718      1.0  0.56809  0.43789  0.35175  1.0000
  H   H719      1.0  0.62322  0.49065  0.34106  1.0000
  C   C447      1.0  0.58453  0.43334  0.36478  1.0000
  N   N47       1.0  0.56237  0.45383  0.51213  1.0000
  H   H720      1.0  0.54226  0.41033  0.52190  1.0000
  C   C448      1.0  0.56082  0.41797  0.51506  1.0000
  H   H721      1.0  0.73288  0.41872  0.32204  1.0000
  C   C449      1.0  0.61762  0.42629  0.27915  1.0000
  H   H722      1.0  0.54060  0.15743  0.41995  1.0000
  C   C450      1.0  0.75278  0.41868  0.32917  1.0000
  C   C451      1.0  0.64998  0.04531  0.30762  1.0000
  H   H723      1.0  0.65550  0.25934  0.30047  1.0000
  C   C452      1.0  0.63322  0.40470  0.29272  1.0000
  H   H724      1.0  0.59416  0.41130  0.35770  1.0000
  Fe  Fe97      1.0  0.54704  0.30231  0.32262  1.0000
  H   H725      1.0  0.75452  0.18745  0.33951  1.0000
  H   H726      1.0  0.61685  0.45066  0.40325  1.0000
  C   C453      1.0  0.76574  0.12492  0.34964  1.0000
  H   H727      1.0  0.75251  0.34528  0.35919  1.0000
  H   H728      1.0  0.59750  0.42401  0.27996  1.0000
  H   H729      1.0  0.60147  0.24664  0.31205  1.0000
  H   H730      1.0  0.59486  0.47365  0.32697  1.0000
  H   H731      1.0  0.77696  0.24537  0.43673  1.0000
  H   H732      1.0  0.67070  0.04813  0.30768  1.0000
  C   C454      1.0  0.66977  0.43253  0.27663  1.0000
  H   H733      1.0  0.57184  0.03270  0.49072  1.0000
  C   C455      1.0  0.78247  0.33113  0.40677  1.0000
  H   H734      1.0  0.78268  0.20501  0.35337  1.0000
  H   H735      1.0  0.53925  0.04125  0.49389  1.0000
  H   H736      1.0  0.65528  0.50763  0.52019  1.0000
  S   S187      1.0  0.63216  0.51743  0.42981  1.0000
  H   H737      1.0  0.78438  0.33001  0.48148  1.0000
  H   H738      1.0  0.78449  0.35517  0.39869  1.0000
  C   C456      1.0  0.64428  0.51180  0.48070  1.0000
  H   H739      1.0  0.78416  0.17820  0.32686  1.0000
  C   C457      1.0  0.54255  0.46471  0.49380  1.0000
  H   H740      1.0  0.54467  0.45331  0.47497  1.0000
  H   H741      1.0  0.68984  0.43478  0.27569  1.0000
  H   H742      1.0  0.56027  0.03965  0.52136  1.0000
  C   C458      1.0  0.57125  0.25514  0.73047  1.0000
  H   H743      1.0  0.64562  0.43180  0.62844  1.0000
  H   H744      1.0  0.67555  0.37203  0.58730  1.0000
  S   S188      1.0  0.55090  0.13862  0.68396  1.0000
  H   H745      1.0  0.67961  0.46189  0.58756  1.0000
  S   S189      1.0  0.59253  0.40640  0.58304  1.0000
  C   C459      1.0  0.55676  0.02465  0.64818  1.0000
  H   H746      1.0  0.57336  0.46191  0.55108  1.0000
  C   C460      1.0  0.66827  0.38325  0.60463  1.0000
  H   H747      1.0  0.59312  0.33528  0.57910  1.0000
  C   C461      1.0  0.56747  0.20022  0.74629  1.0000
  H   H748      1.0  0.55964  0.49680  0.53518  1.0000
  H   H749      1.0  0.56783  0.20881  0.76618  1.0000
  H   H750      1.0  0.65968  0.38144  0.52715  1.0000
  H   H751      1.0  0.64747  0.38278  0.60243  1.0000
  C   C462      1.0  0.66664  0.12514  0.77439  1.0000
  H   H752      1.0  0.56605  0.04248  0.66043  1.0000
  H   H753      1.0  0.76420  0.13055  0.73436  1.0000
  S   S190      1.0  0.54023  0.36433  0.62790  1.0000
  H   H754      1.0  0.71119  0.40113  0.62926  1.0000
  C   C463      1.0  0.60838  0.22303  0.74014  1.0000
  N   N48       1.0  0.58211  0.22200  0.73027  1.0000
  H   H755      1.0  0.71448  0.40582  0.59608  1.0000
  H   H756      1.0  0.58172  0.27227  0.71849  1.0000
  C   C464      1.0  0.58126  0.20944  0.70415  1.0000
  H   H757      1.0  0.70993  0.06321  0.75026  1.0000
  C   C465      1.0  0.60997  0.37923  0.56512  1.0000
  C   C466      1.0  0.62842  0.39200  0.54994  1.0000
  C   C467      1.0  0.55877  0.46967  0.53673  1.0000
  C   C468      1.0  0.64344  0.33735  0.54156  1.0000
  C   C469      1.0  0.62413  0.32442  0.55565  1.0000
  C   C470      1.0  0.60739  0.34535  0.56747  1.0000
  Fe  Fe98      1.0  0.55398  0.39006  0.59359  1.0000
  H   H758      1.0  0.62258  0.29824  0.55803  1.0000
  C   C471      1.0  0.55781  0.49492  0.65907  1.0000
  H   H759      1.0  0.55139  0.25476  0.72302  1.0000
  C   C472      1.0  0.54307  0.46654  0.65758  1.0000
  H   H760      1.0  0.66972  0.03430  0.75287  1.0000
  H   H761      1.0  0.61682  0.19812  0.74023  1.0000
  H   H762      1.0  0.65056  0.43991  0.58365  1.0000
  C   C473      1.0  0.77631  0.40323  0.62461  1.0000
  H   H763      1.0  0.63010  0.41811  0.54741  1.0000
  S   S191      1.0  0.66607  0.31150  0.52910  1.0000
  N   N49       1.0  0.67785  0.41693  0.60859  1.0000
  C   C474      1.0  0.71424  0.05626  0.77020  1.0000
  C   C475      1.0  0.77338  0.39070  0.59995  1.0000
  C   C476      1.0  0.67119  0.43699  0.58619  1.0000
  H   H764      1.0  0.57533  0.40891  0.52897  1.0000
  C   C477      1.0  0.70537  0.41627  0.61265  1.0000
  S   S192      1.0  0.71419  0.37604  0.54756  1.0000
  H   H765      1.0  0.62011  0.23901  0.72845  1.0000
  H   H766      1.0  0.57571  0.49553  0.65033  1.0000
  C   C478      1.0  0.64953  0.12855  0.75366  1.0000
  H   H767      1.0  0.67790  0.42571  0.56862  1.0000
  Fe  Fe99      1.0  0.75237  0.36242  0.53573  1.0000
  H   H768      1.0  0.67118  0.41686  0.64821  1.0000
  H   H769      1.0  0.54753  0.19889  0.73950  1.0000
  H   H770      1.0  0.57139  0.26541  0.74989  1.0000
  C   C479      1.0  0.66645  0.43125  0.63091  1.0000
  H   H771      1.0  0.76392  0.42217  0.63073  1.0000
  H   H772      1.0  0.75890  0.15720  0.70784  1.0000
  H   H773      1.0  0.67369  0.36705  0.62072  1.0000
  H   H774      1.0  0.58944  0.18452  0.70323  1.0000
  H   H775      1.0  0.54979  0.44524  0.64794  1.0000
  C   C480      1.0  0.53676  0.03404  0.63199  1.0000
  Fe  Fe100     1.0  0.56258  0.11211  0.71969  1.0000
  H   H776      1.0  0.75305  0.17128  0.73912  1.0000
  H   H777      1.0  0.67299  0.45683  0.63425  1.0000
  H   H778      1.0  0.56167  0.20803  0.69618  1.0000
  S   S193      1.0  0.60418  0.12291  0.72800  1.0000
  C   C481      1.0  0.76588  0.15632  0.72787  1.0000
  C   C482      1.0  0.64521  0.37119  0.53837  1.0000
  H   H779      1.0  0.75894  0.40007  0.58711  1.0000
  H   H780      1.0  0.65571  0.13940  0.73643  1.0000
  H   H781      1.0  0.71328  0.44126  0.61569  1.0000
  S   S194      1.0  0.54327  0.06560  0.70659  1.0000
  C   C483      1.0  0.62455  0.11797  0.75499  1.0000
  H   H782      1.0  0.57494  0.17490  0.74638  1.0000
  H   H783      1.0  0.60979  0.23234  0.75986  1.0000
  H   H784      1.0  0.78126  0.21856  0.73414  1.0000
  H   H785      1.0  0.76417  0.27796  0.77232  1.0000
  H   H786      1.0  0.68574  0.13343  0.77301  1.0000
  H   H787      1.0  0.75017  0.49470  0.74067  1.0000
  H   H788      1.0  0.59194  0.22541  0.69148  1.0000
  H   H789      1.0  0.54024  0.46304  0.54413  1.0000
  H   H790      1.0  0.73494  0.05542  0.77305  1.0000
  C   C484      1.0  0.67515  0.02694  0.77252  1.0000
  S   S195      1.0  0.78531  0.07778  0.76460  1.0000
  C   C485      1.0  0.78287  0.26811  0.77470  1.0000
  S   S196      1.0  0.76261  0.22653  0.80837  1.0000
  Fe  Fe101     1.0  0.72155  0.11940  0.82371  1.0000
  S   S197      1.0  0.73961  0.14033  0.79010  1.0000
  S   S198      1.0  0.68038  0.10422  0.82275  1.0000
  Fe  Fe102     1.0  0.77016  0.10405  0.79819  1.0000
  H   H791      1.0  0.66726  0.04547  0.78530  1.0000
  Fe  Fe103     1.0  0.76084  0.17265  0.81782  1.0000
  H   H792      1.0  0.78315  0.10113  0.00127  1.0000
  S   S199      1.0  0.75087  0.08080  0.83015  1.0000
  S   S200      1.0  0.74072  0.15423  0.85154  1.0000
  C   C486      1.0  0.77826  0.31484  0.82941  1.0000
  C   C487      1.0  0.63398  0.10046  0.79813  1.0000
  C   C488      1.0  0.65899  0.11097  0.79675  1.0000
  N   N50       1.0  0.70262  0.02463  0.77647  1.0000
  H   H793      1.0  0.76610  0.31886  0.81215  1.0000
  Fe  Fe104     1.0  0.77201  0.11748  0.85487  1.0000
  H   H794      1.0  0.70745  0.07623  0.78232  1.0000
  H   H795      1.0  0.62787  0.08940  0.81532  1.0000
  H   H796      1.0  0.76601  0.31480  0.84582  1.0000
  H   H797      1.0  0.77532  0.37949  0.81792  1.0000
  H   H798      1.0  0.77450  0.37321  0.85142  1.0000
  H   H799      1.0  0.70213  0.03606  0.81601  1.0000
  C   C489      1.0  0.61679  0.10400  0.77738  1.0000
  H   H800      1.0  0.59763  0.09574  0.77868  1.0000
  H   H801      1.0  0.76443  0.51364  0.78335  1.0000
  H   H802      1.0  0.78314  0.15852  0.91329  1.0000
  H   H803      1.0  0.77426  0.03063  0.80349  1.0000
  H   H804      1.0  0.61954  0.90349  0.24995  1.0000
  H   H805      1.0  0.69018  0.86353  0.24166  1.0000
  H   H806      1.0  0.77062  0.60141  0.21611  1.0000
  H   H807      1.0  0.70641  0.94479  0.26548  1.0000
  H   H808      1.0  0.63667  0.94654  0.22234  1.0000
  H   H809      1.0  0.75007  0.58777  0.26165  1.0000
  C   C490      1.0  0.77574  0.56570  0.12418  1.0000
  C   C491      1.0  0.64822  0.93681  0.23777  1.0000
  H   H810      1.0  0.70641  0.82563  0.24616  1.0000
  S   S201      1.0  0.68461  0.97877  0.22187  1.0000
  S   S202      1.0  0.75475  0.96838  0.24801  1.0000
  Fe  Fe105     1.0  0.72642  0.98872  0.22003  1.0000
  H   H811      1.0  0.73988  0.90351  0.20569  1.0000
  H   H812      1.0  0.72718  0.89057  0.26182  1.0000
  H   H813      1.0  0.75550  0.64705  0.25457  1.0000
  C   C492      1.0  0.67294  0.94818  0.24175  1.0000
  S   S203      1.0  0.74741  0.97464  0.18583  1.0000
  C   C493      1.0  0.63845  0.91250  0.25340  1.0000
  H   H814      1.0  0.73508  0.82999  0.19709  1.0000
  C   C494      1.0  0.72222  0.89089  0.21047  1.0000
  S   S204      1.0  0.74707  0.54510  0.16275  1.0000
  N   N51       1.0  0.72723  0.86281  0.22741  1.0000
  C   C495      1.0  0.77025  0.63334  0.26426  1.0000
  C   C496      1.0  0.76722  0.59969  0.26807  1.0000
  H   H815      1.0  0.76184  0.85135  0.21040  1.0000
  C   C497      1.0  0.73961  0.87446  0.25121  1.0000
  C   C498      1.0  0.70337  0.84639  0.23289  1.0000
  C   C499      1.0  0.65344  0.89935  0.27305  1.0000
  S   S205      1.0  0.72706  0.53747  0.23295  1.0000
  H   H816      1.0  0.64160  0.00399  0.25225  1.0000
  H   H817      1.0  0.74532  0.85381  0.26378  1.0000
  C   C500      1.0  0.68763  0.93559  0.26180  1.0000
  H   H818      1.0  0.75673  0.88886  0.24759  1.0000
  C   C501      1.0  0.74382  0.83950  0.21504  1.0000
  H   H819      1.0  0.75947  0.57959  0.11793  1.0000
  H   H820      1.0  0.71020  0.90938  0.21927  1.0000
  H   H821      1.0  0.69374  0.83670  0.21542  1.0000
  H   H822      1.0  0.71261  0.88313  0.19244  1.0000
  H   H823      1.0  0.74848  0.81827  0.22743  1.0000
  C   C502      1.0  0.77471  0.54599  0.14574  1.0000
  Fe  Fe106     1.0  0.77687  0.95739  0.21409  1.0000
  Fe  Fe107     1.0  0.77306  0.01797  0.24656  1.0000
  H   H824      1.0  0.75978  0.64082  0.18331  1.0000
  H   H825      1.0  0.77086  0.61165  0.16152  1.0000
  H   H826      1.0  0.78257  0.65282  0.16105  1.0000
  C   C503      1.0  0.77674  0.63271  0.17363  1.0000
  H   H827      1.0  0.59599  0.73948  0.45692  1.0000
  H   H828      1.0  0.64544  0.96566  0.29005  1.0000
  S   S206      1.0  0.59779  0.59273  0.46568  1.0000
  H   H829      1.0  0.60776  0.01024  0.31146  1.0000
  S   S207      1.0  0.58658  0.58320  0.40431  1.0000
  H   H830      1.0  0.60310  0.69316  0.48596  1.0000
  Fe  Fe108     1.0  0.60119  0.55281  0.43686  1.0000
  C   C504      1.0  0.67798  0.91115  0.27727  1.0000
  Fe  Fe109     1.0  0.57991  0.62165  0.43347  1.0000
  S   S208      1.0  0.58788  0.67595  0.42932  1.0000
  H   H831      1.0  0.76833  0.68017  0.38520  1.0000
  S   S209      1.0  0.54007  0.56036  0.50619  1.0000
  H   H832      1.0  0.64967  0.98317  0.32089  1.0000
  H   H833      1.0  0.59285  0.91145  0.34255  1.0000
  S   S210      1.0  0.59508  0.83161  0.33505  1.0000
  H   H834      1.0  0.63657  0.88506  0.44391  1.0000
  Fe  Fe110     1.0  0.72707  0.89732  0.48212  1.0000
  S   S211      1.0  0.72932  0.84407  0.47196  1.0000
  S   S212      1.0  0.70776  0.93026  0.45318  1.0000
  H   H835      1.0  0.62586  0.73187  0.44423  1.0000
  Fe  Fe111     1.0  0.76917  0.84761  0.48708  1.0000
  C   C505      1.0  0.65822  0.84918  0.50713  1.0000
  S   S213      1.0  0.76761  0.90176  0.49460  1.0000
  H   H836      1.0  0.68939  0.94744  0.50243  1.0000
  H   H837      1.0  0.57369  0.94625  0.42653  1.0000
  H   H838      1.0  0.63404  0.88709  0.49286  1.0000
  C   C506      1.0  0.65661  0.00291  0.45191  1.0000
  C   C507      1.0  0.56203  0.93043  0.36286  1.0000
  C   C508      1.0  0.63598  0.86702  0.50590  1.0000
  H   H839      1.0  0.63328  0.93777  0.46536  1.0000
  H   H840      1.0  0.58923  0.74279  0.41184  1.0000
  H   H841      1.0  0.73343  0.64842  0.32840  1.0000
  C   C509      1.0  0.65055  0.00587  0.47716  1.0000
  C   C510      1.0  0.61378  0.01473  0.29198  1.0000
  C   C511      1.0  0.61608  0.88624  0.43908  1.0000
  C   C512      1.0  0.57281  0.97665  0.51676  1.0000
  C   C513      1.0  0.66248  0.98583  0.49535  1.0000
  C   C514      1.0  0.55223  0.95782  0.37465  1.0000
  C   C515      1.0  0.68639  0.95981  0.46304  1.0000
  H   H842      1.0  0.61243  0.87189  0.42145  1.0000
  H   H843      1.0  0.74039  0.61802  0.36901  1.0000
  S   S214      1.0  0.58173  0.81146  0.27592  1.0000
  H   H844      1.0  0.66132  0.73886  0.50624  1.0000
  Fe  Fe112     1.0  0.55906  0.57251  0.47021  1.0000
  Fe  Fe113     1.0  0.56042  0.86203  0.33214  1.0000
  H   H845      1.0  0.55731  0.00897  0.38311  1.0000
  C   C516      1.0  0.58489  0.93275  0.35118  1.0000
  C   C517      1.0  0.59796  0.96247  0.35125  1.0000
  C   C518      1.0  0.58050  0.92088  0.42973  1.0000
  C   C519      1.0  0.56524  0.98764  0.37452  1.0000
  H   H846      1.0  0.56968  0.90987  0.44505  1.0000
  Fe  Fe114     1.0  0.54742  0.84288  0.27826  1.0000
  S   S215      1.0  0.56992  0.73878  0.32052  1.0000
  H   H847      1.0  0.77091  0.87881  0.40461  1.0000
  C   C520      1.0  0.57447  0.72198  0.35099  1.0000
  C   C521      1.0  0.57185  0.68811  0.35421  1.0000
  C   C522      1.0  0.57558  0.67387  0.37817  1.0000
  C   C523      1.0  0.58214  0.69337  0.39911  1.0000
  C   C524      1.0  0.58448  0.72734  0.39588  1.0000
  C   C525      1.0  0.58062  0.74161  0.37194  1.0000
  H   H848      1.0  0.57362  0.64775  0.38034  1.0000
  C   C526      1.0  0.65318  0.74497  0.48717  1.0000
  H   H849      1.0  0.59220  0.74743  0.50280  1.0000
  H   H850      1.0  0.56709  0.67273  0.33810  1.0000
  Fe  Fe115     1.0  0.72002  0.83543  0.51228  1.0000
  H   H851      1.0  0.60620  0.87378  0.45447  1.0000
  H   H852      1.0  0.64187  0.93549  0.41943  1.0000
  S   S216      1.0  0.71502  0.88834  0.52127  1.0000
  C   C527      1.0  0.58819  0.98994  0.36294  1.0000
  N   N52       1.0  0.76711  0.64973  0.35213  1.0000
  H   H853      1.0  0.77057  0.61989  0.38533  1.0000
  C   C528      1.0  0.61632  0.74543  0.45927  1.0000
  N   N53       1.0  0.62631  0.73621  0.48462  1.0000
  H   H854      1.0  0.76431  0.70187  0.35613  1.0000
  H   H855      1.0  0.75930  0.62649  0.31639  1.0000
  N   N54       1.0  0.60769  0.92043  0.43601  1.0000
  H   H856      1.0  0.61868  0.77203  0.45572  1.0000
  H   H857      1.0  0.68957  0.90130  0.29263  1.0000
  S   S217      1.0  0.78266  0.53958  0.28526  1.0000
  Fe  Fe116     1.0  0.54907  0.56348  0.41404  1.0000
  Fe  Fe117     1.0  0.60242  0.85213  0.29662  1.0000
  S   S218      1.0  0.64294  0.86741  0.29226  1.0000
  H   H858      1.0  0.57580  0.90669  0.41222  1.0000
  S   S219      1.0  0.56415  0.53025  0.44425  1.0000
  H   H859      1.0  0.76880  0.78130  0.44959  1.0000
  C   C529      1.0  0.75911  0.67895  0.36600  1.0000
  H   H860      1.0  0.77295  0.73758  0.41737  1.0000
  H   H861      1.0  0.60774  0.96468  0.45800  1.0000
  H   H862      1.0  0.63314  0.68653  0.47357  1.0000
  H   H863      1.0  0.61398  0.78085  0.50136  1.0000
  S   S220      1.0  0.56909  0.88533  0.29531  1.0000
  H   H864      1.0  0.58975  0.98116  0.50574  1.0000
  H   H865      1.0  0.56054  0.98173  0.46748  1.0000
  C   C530      1.0  0.62124  0.93600  0.41547  1.0000
  H   H866      1.0  0.67368  0.98765  0.29857  1.0000
  C   C531      1.0  0.61248  0.75390  0.50387  1.0000
  C   C532      1.0  0.68034  0.96281  0.48831  1.0000
  S   S221      1.0  0.53636  0.82222  0.31515  1.0000
  Fe  Fe118     1.0  0.57192  0.79348  0.31435  1.0000
  H   H867      1.0  0.76897  0.83543  0.37167  1.0000
  H   H868      1.0  0.61590  0.96384  0.34276  1.0000
  H   H869      1.0  0.67932  0.97805  0.42539  1.0000
  H   H870      1.0  0.65622  0.77167  0.48446  1.0000
  H   H871      1.0  0.58259  0.76774  0.36967  1.0000
  C   C533      1.0  0.62318  0.70058  0.48804  1.0000
  H   H872      1.0  0.61989  0.74816  0.52326  1.0000
  C   C534      1.0  0.61299  0.93848  0.45978  1.0000
  H   H873      1.0  0.61734  0.92329  0.39716  1.0000
  H   H874      1.0  0.63049  0.53049  0.48365  1.0000
  C   C535      1.0  0.67459  0.98009  0.44493  1.0000
  H   H875      1.0  0.57007  0.94972  0.51798  1.0000
  H   H876      1.0  0.61577  0.96206  0.41288  1.0000
  H   H877      1.0  0.60273  0.92779  0.47565  1.0000
  H   H878      1.0  0.66425  0.73190  0.47306  1.0000
  H   H879      1.0  0.73852  0.67909  0.36819  1.0000
  H   H880      1.0  0.65785  0.98799  0.51491  1.0000
  H   H881      1.0  0.67296  0.85515  0.49456  1.0000
  N   N55       1.0  0.55048  0.99286  0.50519  1.0000
  C   C536      1.0  0.76088  0.61996  0.36633  1.0000
  H   H882      1.0  0.63050  0.69255  0.50694  1.0000
  H   H883      1.0  0.54043  0.95197  0.48132  1.0000
  H   H884      1.0  0.76668  0.59748  0.35627  1.0000
  S   S222      1.0  0.54084  0.60434  0.44039  1.0000
  C   C537      1.0  0.65304  0.98726  0.30062  1.0000
  C   C538      1.0  0.54464  0.97860  0.48002  1.0000
  H   H885      1.0  0.75914  0.67032  0.31542  1.0000
  S   S223      1.0  0.54585  0.89323  0.36292  1.0000
  C   C539      1.0  0.75413  0.64874  0.32700  1.0000
  H   H886      1.0  0.64752  0.01826  0.43776  1.0000
  C   C540      1.0  0.61659  0.85948  0.52180  1.0000
  S   S224      1.0  0.58870  0.88188  0.51877  1.0000
  H   H887      1.0  0.60662  0.99400  0.28006  1.0000
  N   N56       1.0  0.64130  0.01782  0.29133  1.0000
  H   H888      1.0  0.77204  0.89359  0.35917  1.0000
  H   H889      1.0  0.54412  0.75855  0.27575  1.0000
  C   C541      1.0  0.66138  0.82379  0.52448  1.0000
  H   H890      1.0  0.53670  0.70065  0.28512  1.0000
  H   H891      1.0  0.62469  0.76924  0.74655  1.0000
  H   H892      1.0  0.76440  0.59612  0.75425  1.0000
  Fe  Fe119     1.0  0.75578  0.88755  0.53325  1.0000
  S   S225      1.0  0.58066  0.63638  0.71100  1.0000
  C   C542      1.0  0.64203  0.81602  0.54047  1.0000
  H   H893      1.0  0.57960  0.98460  0.66185  1.0000
  H   H894      1.0  0.70766  0.00380  0.73982  1.0000
  Fe  Fe120     1.0  0.54821  0.66990  0.70309  1.0000
  S   S226      1.0  0.56591  0.85371  0.58833  1.0000
  Fe  Fe121     1.0  0.56146  0.87626  0.54985  1.0000
  C   C543      1.0  0.61961  0.83394  0.53917  1.0000
  C   C544      1.0  0.62011  0.71977  0.71338  1.0000
  S   S227      1.0  0.76614  0.91401  0.57000  1.0000
  H   H895      1.0  0.63594  0.68479  0.76986  1.0000
  H   H896      1.0  0.58501  0.69465  0.74241  1.0000
  C   C545      1.0  0.69571  0.87546  0.58230  1.0000
  H   H897      1.0  0.74181  0.85371  0.57662  1.0000
  H   H898      1.0  0.70727  0.88258  0.63197  1.0000
  C   C546      1.0  0.56448  0.99195  0.64891  1.0000
  C   C547      1.0  0.54525  0.73789  0.66265  1.0000
  Fe  Fe122     1.0  0.54693  0.89906  0.60170  1.0000
  C   C548      1.0  0.63473  0.68735  0.74897  1.0000
  H   H899      1.0  0.70844  0.89489  0.57547  1.0000
  H   H900      1.0  0.72062  0.82096  0.56894  1.0000
  H   H901      1.0  0.73308  0.99687  0.76226  1.0000
  C   C549      1.0  0.72891  0.83571  0.58484  1.0000
  S   S228      1.0  0.76015  0.83372  0.52676  1.0000
  H   H902      1.0  0.60971  0.74193  0.70683  1.0000
  H   H903      1.0  0.58456  0.73811  0.74456  1.0000
  N   N57       1.0  0.76043  0.54407  0.75048  1.0000
  S   S229      1.0  0.55760  0.72140  0.69124  1.0000
  S   S230      1.0  0.56747  0.55832  0.67179  1.0000
  Fe  Fe123     1.0  0.56478  0.62881  0.74879  1.0000
  H   H904      1.0  0.64442  0.79641  0.55397  1.0000
  C   C550      1.0  0.78375  0.89440  0.59449  1.0000
  H   H905      1.0  0.75330  0.58256  0.72360  1.0000
  N   N58       1.0  0.70944  0.85223  0.59902  1.0000
  C   C551      1.0  0.59550  0.71606  0.75033  1.0000
  H   H906      1.0  0.70159  0.80954  0.62083  1.0000
  H   H907      1.0  0.68046  0.88787  0.59216  1.0000
  S   S231      1.0  0.56098  0.92748  0.63563  1.0000
  H   H908      1.0  0.70443  0.97438  0.76463  1.0000
  C   C552      1.0  0.72139  0.87024  0.62054  1.0000
  C   C553      1.0  0.54088  0.78477  0.63449  1.0000
  H   H909      1.0  0.73266  0.85375  0.63318  1.0000
  H   H910      1.0  0.61013  0.69844  0.70452  1.0000
  H   H911      1.0  0.54468  0.81019  0.63054  1.0000
  C   C554      1.0  0.75233  0.57765  0.74413  1.0000
  H   H912      1.0  0.60466  0.82792  0.55146  1.0000
  H   H913      1.0  0.77872  0.93352  0.62101  1.0000
  H   H914      1.0  0.65394  0.74788  0.74565  1.0000
  H   H915      1.0  0.65417  0.68722  0.74231  1.0000
  H   H916      1.0  0.68257  0.81369  0.59225  1.0000
  C   C555      1.0  0.71231  0.99879  0.76007  1.0000
  H   H917      1.0  0.68703  0.86285  0.56545  1.0000
  H   H918      1.0  0.73436  0.88951  0.61392  1.0000
  N   N59       1.0  0.62120  0.71734  0.74119  1.0000
  H   H919      1.0  0.66040  0.57677  0.75624  1.0000
  C   C556      1.0  0.55024  0.77074  0.65709  1.0000
  H   H920      1.0  0.62508  0.66506  0.74131  1.0000
  H   H921      1.0  0.72447  0.52292  0.74067  1.0000
  Fe  Fe124     1.0  0.55407  0.59662  0.69810  1.0000
  H   H922      1.0  0.73273  0.58204  0.74958  1.0000
  H   H923      1.0  0.74051  0.81912  0.59706  1.0000
  C   C557      1.0  0.55251  0.96871  0.63315  1.0000
  H   H924      1.0  0.56129  0.78550  0.67037  1.0000
  H   H925      1.0  0.67675  0.83909  0.61897  1.0000
  H   H926      1.0  0.63913  0.72084  0.70574  1.0000
  C   C558      1.0  0.69180  0.82753  0.60825  1.0000
  H   H927      1.0  0.61618  0.59486  0.75288  1.0000
  H   H928      1.0  0.57717  0.98577  0.53623  1.0000
  C   C559      1.0  0.54941  0.52250  0.67171  1.0000
  S   S232      1.0  0.54632  0.92332  0.56407  1.0000
  C   C560      1.0  0.74452  0.52027  0.73615  1.0000
  H   H929      1.0  0.74593  0.52363  0.71547  1.0000
  S   S233      1.0  0.54095  0.58557  0.73686  1.0000
  C   C561      1.0  0.62816  0.60265  0.76874  1.0000
  H   H930      1.0  0.59550  0.71385  0.77122  1.0000
  C   C562      1.0  0.63444  0.74620  0.75209  1.0000
  C   C563      1.0  0.65325  0.59246  0.77065  1.0000
  H   H931      1.0  0.63554  0.74512  0.77307  1.0000
  S   S234      1.0  0.68973  0.80237  0.52636  1.0000
  S   S235      1.0  0.70027  0.58800  0.79291  1.0000
  Fe  Fe125     1.0  0.73028  0.60820  0.82039  1.0000
  C   C564      1.0  0.78062  0.98336  0.78725  1.0000
  C   C565      1.0  0.78038  0.01766  0.78723  1.0000
  S   S236      1.0  0.58718  0.63567  0.78561  1.0000
  H   H932      1.0  0.73832  0.54105  0.78332  1.0000
  Fe  Fe126     1.0  0.75865  0.61261  0.87220  1.0000
  H   H933      1.0  0.76424  0.58462  0.96626  1.0000
  S   S237      1.0  0.75624  0.57413  0.84186  1.0000
  S   S238      1.0  0.72924  0.64393  0.85249  1.0000
  H   H934      1.0  0.62714  0.64755  0.82258  1.0000
  S   S239      1.0  0.76137  0.63423  0.80150  1.0000
  H   H935      1.0  0.76079  0.67605  0.90697  1.0000
  C   C566      1.0  0.65963  0.62243  0.80971  1.0000
  H   H936      1.0  0.67164  0.63000  0.82560  1.0000
  H   H937      1.0  0.74094  0.76293  0.90704  1.0000
  C   C567      1.0  0.63439  0.63224  0.80799  1.0000
  C   C568      1.0  0.77813  0.60270  0.96159  1.0000
  H   H938      1.0  0.77201  0.77961  0.90498  1.0000
  C   C569      1.0  0.53838  0.61405  0.83803  1.0000
  H   H939      1.0  0.75534  0.73227  0.94532  1.0000
  C   C570      1.0  0.77975  0.61299  0.93650  1.0000
  S   S240      1.0  0.75797  0.59777  0.91330  1.0000
  H   H940      1.0  0.78093  0.70445  0.94392  1.0000
  H   H941      1.0  0.76944  0.55648  0.78906  1.0000
  C   C571      1.0  0.77350  0.72802  0.93640  1.0000
  H   H942      1.0  0.75736  0.75874  0.87847  1.0000
  H   H943      1.0  0.54356  0.59590  0.85292  1.0000
  H   H944      1.0  0.55293  0.58112  0.79734  1.0000
  H   H945      1.0  0.77430  0.97011  0.80342  1.0000
  N   N60       1.0  0.77039  0.72728  0.90860  1.0000
  S   S241      1.0  0.76246  0.72264  0.83156  1.0000
  Fe  Fe127     1.0  0.76225  0.66771  0.83482  1.0000
  C   C572      1.0  0.61860  0.62238  0.78751  1.0000
  C   C573      1.0  0.75329  0.70022  0.90088  1.0000
  C   C574      1.0  0.66908  0.60225  0.79112  1.0000
  C   C575      1.0  0.70881  0.01667  0.80316  1.0000
  H   H946      1.0  0.73461  0.70289  0.90906  1.0000
  H   H947      1.0  0.75027  0.69938  0.88006  1.0000
  H   H948      1.0  0.55615  0.62352  0.83043  1.0000
  H   H949      1.0  0.72938  0.01437  0.80679  1.0000
  H   H950      1.0  0.77005  0.78667  0.81099  1.0000
  C   C576      1.0  0.75970  0.75855  0.89945  1.0000
  H   H951      1.0  0.54104  0.55307  0.81992  1.0000
  H   H952      1.0  0.70006  0.99319  0.80870  1.0000
  H   H953      1.0  0.66575  0.00325  0.77635  1.0000
  C   C577      1.0  0.75804  0.53851  0.77773  1.0000
  S   S242      1.0  0.99287  0.09174  0.19233  1.0000
  H   H954      1.0  0.88290  0.07077  0.21410  1.0000
  C   C578      1.0  0.80832  0.08288  0.12540  1.0000
  C   C579      1.0  0.98700  0.23884  0.19129  1.0000
  C   C580      1.0  0.03180  0.46229  0.12921  1.0000
  H   H955      1.0  0.98432  0.26138  0.20260  1.0000
  H   H956      1.0  0.84499  0.14640  0.21871  1.0000
  H   H957      1.0  0.88458  0.09837  0.24038  1.0000
  H   H958      1.0  0.79532  0.51315  0.17031  1.0000
  C   C581      1.0  0.97937  0.49566  0.20299  1.0000
  C   C582      1.0  0.83610  0.02542  0.12466  1.0000
  S   S243      1.0  0.99814  0.29674  0.04284  1.0000
  N   N61       1.0  0.84806  0.09410  0.22185  1.0000
  H   H959      1.0  0.98264  0.17336  0.05165  1.0000
  H   H960      1.0  0.84679  0.04358  0.23301  1.0000
  H   H961      1.0  0.98855  0.11748  0.10684  1.0000
  H   H962      1.0  0.94335  0.46521  0.22794  1.0000
  H   H963      1.0  0.00625  0.49901  0.24676  1.0000
  Fe  Fe128     1.0  0.90366  0.15370  0.05734  1.0000
  S   S244      1.0  0.91732  0.10204  0.05932  1.0000
  S   S245      1.0  0.92556  0.18774  0.08389  1.0000
  Fe  Fe129     1.0  0.87692  0.08790  0.06175  1.0000
  S   S246      1.0  0.86710  0.04670  0.08811  1.0000
  S   S247      1.0  0.86344  0.13966  0.06270  1.0000
  C   C583      1.0  0.00180  0.17110  0.06043  1.0000
  H   H964      1.0  0.89856  0.15700  0.24408  1.0000
  H   H965      1.0  0.93535  0.20945  0.03297  1.0000
  H   H966      1.0  0.88255  0.11410  0.20886  1.0000
  H   H967      1.0  0.79061  0.39298  0.12609  1.0000
  H   H968      1.0  0.84709  0.07228  0.25869  1.0000
  H   H969      1.0  0.81617  0.08779  0.19604  1.0000
  H   H970      1.0  0.81927  0.06649  0.23914  1.0000
  S   S248      1.0  0.01286  0.08200  0.25078  1.0000
  H   H971      1.0  0.95075  0.17519  0.16992  1.0000
  C   C584      1.0  0.82877  0.08046  0.10971  1.0000
  C   C585      1.0  0.84250  0.05151  0.10899  1.0000
  H   H972      1.0  0.01639  0.20617  0.11736  1.0000
  H   H973      1.0  0.80220  0.45575  0.15492  1.0000
  H   H974      1.0  0.84282  0.06383  0.18876  1.0000
  H   H975      1.0  0.83367  0.10084  0.09799  1.0000
  H   H976      1.0  0.98904  0.16117  0.10772  1.0000
  C   C586      1.0  0.94452  0.24019  0.17402  1.0000
  C   C587      1.0  0.97845  0.26605  0.05446  1.0000
  C   C588      1.0  0.97755  0.25988  0.08029  1.0000
  C   C589      1.0  0.96131  0.23569  0.08905  1.0000
  C   C590      1.0  0.94587  0.21756  0.07207  1.0000
  C   C591      1.0  0.94712  0.22330  0.04620  1.0000
  C   C592      1.0  0.96340  0.24745  0.03744  1.0000
  H   H977      1.0  0.98905  0.27415  0.09352  1.0000
  H   H978      1.0  0.96055  0.23125  0.10906  1.0000
  H   H979      1.0  0.93666  0.19605  0.21064  1.0000
  S   S249      1.0  0.02620  0.44324  0.09966  1.0000
  H   H980      1.0  0.84718  0.13138  0.25047  1.0000
  C   C593      1.0  0.95424  0.21071  0.21256  1.0000
  C   C594      1.0  0.81584  0.02800  0.14060  1.0000
  H   H981      1.0  0.00182  0.22418  0.20128  1.0000
  H   H982      1.0  0.79572  0.03102  0.04435  1.0000
  H   H983      1.0  0.96673  0.14058  0.08721  1.0000
  C   C595      1.0  0.83935  0.12600  0.23111  1.0000
  H   H984      1.0  0.96410  0.48604  0.19009  1.0000
  H   H985      1.0  0.95037  0.23251  0.22431  1.0000
  H   H986      1.0  0.99439  0.24653  0.17294  1.0000
  C   C596      1.0  0.80168  0.05662  0.14077  1.0000
  C   C597      1.0  0.98641  0.13974  0.09496  1.0000
  H   H987      1.0  0.98230  0.17431  0.18259  1.0000
  C   C598      1.0  0.84003  0.06797  0.23892  1.0000
  H   H988      1.0  0.00193  0.08857  0.06744  1.0000
  H   H989      1.0  0.94049  0.26287  0.18468  1.0000
  H   H990      1.0  0.95099  0.24770  0.15520  1.0000
  H   H991      1.0  0.81857  0.12654  0.23190  1.0000
  N   N62       1.0  0.00447  0.14024  0.07466  1.0000
  H   H992      1.0  0.95201  0.48149  0.25857  1.0000
  C   C599      1.0  0.83704  0.08796  0.19622  1.0000
  Fe  Fe130     1.0  0.98711  0.11651  0.22937  1.0000
  Fe  Fe131     1.0  0.02321  0.32499  0.07070  1.0000
  H   H993      1.0  0.01539  0.17259  0.04516  1.0000
  N   N63       1.0  0.97007  0.50467  0.22788  1.0000
  Fe  Fe132     1.0  0.02113  0.06062  0.21297  1.0000
  H   H994      1.0  0.97984  0.11284  0.04933  1.0000
  C   C600      1.0  0.79957  0.40849  0.25877  1.0000
  H   H995      1.0  0.92655  0.22661  0.17083  1.0000
  C   C601      1.0  0.79993  0.05548  0.05273  1.0000
  C   C602      1.0  0.79134  0.35275  0.24529  1.0000
  H   H996      1.0  0.92415  0.03950  0.09632  1.0000
  C   C603      1.0  0.87569  0.09435  0.22124  1.0000
  H   H997      1.0  0.96816  0.19555  0.22342  1.0000
  H   H998      1.0  0.84275  0.10701  0.18266  1.0000
  H   H999      1.0  0.80872  0.31514  0.26846  1.0000
  C   C604      1.0  0.99937  0.11229  0.05748  1.0000
  S   S250      1.0  0.94615  0.12908  0.23390  1.0000
  H   H1000     1.0  0.00501  0.19280  0.07284  1.0000
  H   H1001     1.0  0.02722  0.26466  0.12090  1.0000
  N   N64       1.0  0.96346  0.21998  0.18769  1.0000
  S   S251      1.0  0.01294  0.34786  0.10732  1.0000
  C   C605      1.0  0.96808  0.19015  0.17288  1.0000
  C   C606      1.0  0.99105  0.51736  0.24417  1.0000
  C   C607      1.0  0.03027  0.13786  0.08565  1.0000
  H   H1002     1.0  0.97517  0.19618  0.15403  1.0000
  C   C608      1.0  0.03128  0.51160  0.15516  1.0000
  C   C609      1.0  0.80637  0.34116  0.26567  1.0000
  H   H1003     1.0  0.79756  0.10520  0.12563  1.0000
  C   C610      1.0  0.02696  0.49580  0.13181  1.0000
  C   C611      1.0  0.93060  0.02086  0.11038  1.0000
  C   C612      1.0  0.93680  0.15467  0.25859  1.0000
  H   H1004     1.0  0.79752  0.41647  0.16930  1.0000
  H   H1005     1.0  0.79694  0.43450  0.25627  1.0000
  S   S252      1.0  0.01721  0.15408  0.22443  1.0000
  H   H1006     1.0  0.01208  0.11254  0.04138  1.0000
  C   C613      1.0  0.91173  0.16469  0.25893  1.0000
  H   H1007     1.0  0.99415  0.47659  0.20471  1.0000
  C   C614      1.0  0.79337  0.11374  0.04998  1.0000
  H   H1008     1.0  0.81367  0.11867  0.04822  1.0000
  H   H1009     1.0  0.82058  0.05929  0.05253  1.0000
  C   C615      1.0  0.95922  0.47552  0.23975  1.0000
  H   H1010     1.0  0.01457  0.03614  0.16002  1.0000
  C   C616      1.0  0.78780  0.43877  0.16200  1.0000
  H   H1011     1.0  0.01990  0.50954  0.11566  1.0000
  H   H1012     1.0  0.97342  0.45588  0.24250  1.0000
  C   C617      1.0  0.78770  0.38639  0.24202  1.0000
  C   C618      1.0  0.03331  0.19349  0.15362  1.0000
  H   H1013     1.0  0.79438  0.43277  0.11243  1.0000
  C   C619      1.0  0.02664  0.21493  0.13397  1.0000
  Fe  Fe133     1.0  0.02440  0.12724  0.18867  1.0000
  H   H1014     1.0  0.94794  0.03031  0.12030  1.0000
  H   H1015     1.0  0.83371  0.51508  0.14570  1.0000
  S   S253      1.0  0.02497  0.15211  0.15102  1.0000
  C   C620      1.0  0.03280  0.24815  0.13592  1.0000
  H   H1016     1.0  0.78936  0.11500  0.07037  1.0000
  H   H1017     1.0  0.98792  0.51702  0.19358  1.0000
  H   H1018     1.0  0.79487  0.05446  0.07284  1.0000
  N   N65       1.0  0.78621  0.08167  0.03894  1.0000
  H   H1019     1.0  0.03269  0.11567  0.09760  1.0000
  H   H1020     1.0  0.03513  0.15922  0.09791  1.0000
  H   H1021     1.0  0.91582  0.01896  0.12446  1.0000
  S   S254      1.0  0.79228  0.19823  0.27486  1.0000
  H   H1022     1.0  0.85988  0.34729  0.50727  1.0000
  C   C621      1.0  0.79448  0.30435  0.39601  1.0000
  N   N66       1.0  0.82263  0.34241  0.49074  1.0000
  H   H1023     1.0  0.82471  0.15181  0.30205  1.0000
  Fe  Fe134     1.0  0.87065  0.23705  0.32297  1.0000
  S   S255      1.0  0.85038  0.25721  0.28856  1.0000
  S   S256      1.0  0.91080  0.21984  0.32276  1.0000
  Fe  Fe135     1.0  0.82552  0.24702  0.35631  1.0000
  Fe  Fe136     1.0  0.81811  0.22697  0.30137  1.0000
  H   H1024     1.0  0.80550  0.30776  0.37959  1.0000
  Fe  Fe137     1.0  0.83643  0.29527  0.31499  1.0000
  S   S257      1.0  0.83533  0.34969  0.30924  1.0000
  S   S258      1.0  0.83923  0.20431  0.33412  1.0000
  S   S259      1.0  0.85921  0.27765  0.34872  1.0000
  H   H1025     1.0  0.82438  0.41415  0.29156  1.0000
  C   C622      1.0  0.80410  0.14806  0.36767  1.0000
  H   H1026     1.0  0.83584  0.31405  0.45984  1.0000
  C   C623      1.0  0.79260  0.27333  0.40679  1.0000
  H   H1027     1.0  0.84802  0.30604  0.50563  1.0000
  H   H1028     1.0  0.83230  0.39336  0.49455  1.0000
  C   C624      1.0  0.81013  0.13853  0.29170  1.0000
  H   H1029     1.0  0.82279  0.09136  0.30503  1.0000
  C   C625      1.0  0.83112  0.33973  0.46469  1.0000
  C   C626      1.0  0.92047  0.19513  0.29769  1.0000
  C   C627      1.0  0.94561  0.18549  0.29712  1.0000
  S   S260      1.0  0.80193  0.26726  0.32427  1.0000
  C   C628      1.0  0.80046  0.32127  0.49351  1.0000
  H   H1030     1.0  0.81624  0.34777  0.45075  1.0000
  H   H1031     1.0  0.95878  0.19345  0.31196  1.0000
  H   H1032     1.0  0.80690  0.12714  0.38083  1.0000
  C   C629      1.0  0.95380  0.16539  0.27761  1.0000
  H   H1033     1.0  0.84796  0.35515  0.46188  1.0000
  S   S261      1.0  0.80778  0.23933  0.39388  1.0000
  H   H1034     1.0  0.79439  0.32111  0.51329  1.0000
  H   H1035     1.0  0.81343  0.16981  0.37671  1.0000
  H   H1036     1.0  0.88419  0.19225  0.27863  1.0000
  H   H1037     1.0  0.97318  0.15793  0.27749  1.0000
  C   C630      1.0  0.79078  0.08666  0.27917  1.0000
  H   H1038     1.0  0.80098  0.38545  0.48237  1.0000
  C   C631      1.0  0.80912  0.10427  0.29323  1.0000
  H   H1039     1.0  0.79574  0.36144  0.34745  1.0000
  C   C632      1.0  0.81593  0.37668  0.49596  1.0000
  H   H1040     1.0  0.81417  0.14230  0.35030  1.0000
  C   C633      1.0  0.79246  0.15533  0.27651  1.0000
  H   H1041     1.0  0.80416  0.29553  0.48809  1.0000
  C   C634      1.0  0.84277  0.33196  0.50883  1.0000
  H   H1042     1.0  0.80007  0.39772  0.32944  1.0000
  H   H1043     1.0  0.80882  0.37941  0.51528  1.0000
  C   C635      1.0  0.81509  0.39695  0.27873  1.0000
  S   S262      1.0  0.79012  0.04374  0.28091  1.0000
  C   C636      1.0  0.90356  0.18481  0.27842  1.0000
  C   C637      1.0  0.78816  0.38637  0.34373  1.0000
  H   H1044     1.0  0.79085  0.40085  0.36140  1.0000
  C   C638      1.0  0.81820  0.36329  0.28244  1.0000
  S   S263      1.0  0.85098  0.28509  0.74667  1.0000
  C   C639      1.0  0.81161  0.36762  0.63311  1.0000
  Fe  Fe138     1.0  0.87893  0.39813  0.72875  1.0000
  H   H1045     1.0  0.90210  0.32119  0.74772  1.0000
  S   S264      1.0  0.91877  0.41590  0.72423  1.0000
  Fe  Fe139     1.0  0.82660  0.39276  0.70270  1.0000
  S   S265      1.0  0.81096  0.36742  0.73615  1.0000
  H   H1046     1.0  0.95390  0.26510  0.70679  1.0000
  S   S266      1.0  0.79829  0.40862  0.67201  1.0000
  H   H1047     1.0  0.80280  0.03085  0.72920  1.0000
  C   C640      1.0  0.80876  0.35520  0.60837  1.0000
  H   H1048     1.0  0.82642  0.35873  0.64576  1.0000
  S   S267      1.0  0.84595  0.43215  0.72611  1.0000
  S   S268      1.0  0.86090  0.36102  0.70219  1.0000
  C   C641      1.0  0.82646  0.26871  0.76379  1.0000
  C   C642      1.0  0.98903  0.39183  0.74902  1.0000
  S   S269      1.0  0.86686  0.37360  0.76389  1.0000
  H   H1049     1.0  0.80751  0.12172  0.72129  1.0000
  H   H1050     1.0  0.00781  0.39537  0.74266  1.0000
  H   H1051     1.0  0.84448  0.47491  0.76976  1.0000
  H   H1052     1.0  0.81271  0.21263  0.72485  1.0000
  C   C643      1.0  0.94650  0.27100  0.72552  1.0000
  H   H1053     1.0  0.81952  0.17678  0.76091  1.0000
  C   C644      1.0  0.78797  0.03490  0.76617  1.0000
  H   H1054     1.0  0.92128  0.37610  0.76975  1.0000
  C   C645      1.0  0.94400  0.40023  0.74292  1.0000
  C   C646      1.0  0.96859  0.40633  0.73585  1.0000
  N   N67       1.0  0.92602  0.29509  0.72330  1.0000
  H   H1055     1.0  0.79844  0.30114  0.74797  1.0000
  C   C647      1.0  0.79540  0.39177  0.64129  1.0000
  H   H1056     1.0  0.97176  0.42135  0.71952  1.0000
  H   H1057     1.0  0.95162  0.33583  0.72356  1.0000
  Fe  Fe140     1.0  0.83258  0.40459  0.75937  1.0000
  C   C648      1.0  0.80827  0.14790  0.71547  1.0000
  H   H1058     1.0  0.94007  0.24777  0.73406  1.0000
  H   H1059     1.0  0.96249  0.28050  0.73767  1.0000
  C   C649      1.0  0.93549  0.32556  0.71211  1.0000
  H   H1060     1.0  0.92078  0.34475  0.71085  1.0000
  C   C650      1.0  0.91684  0.30207  0.74858  1.0000
  H   H1061     1.0  0.82143  0.33667  0.60211  1.0000
  C   C651      1.0  0.98502  0.37138  0.76954  1.0000
  H   H1062     1.0  0.80247  0.14905  0.69511  1.0000
  Fe  Fe141     1.0  0.84654  0.33873  0.73752  1.0000
  C   C652      1.0  0.80231  0.28142  0.76101  1.0000
  H   H1063     1.0  0.90840  0.27998  0.75709  1.0000
  H   H1064     1.0  0.89747  0.25890  0.71506  1.0000
  C   C653      1.0  0.90525  0.28174  0.70705  1.0000
  H   H1065     1.0  0.82816  0.15597  0.71756  1.0000
  H   H1066     1.0  0.94196  0.32147  0.69274  1.0000
  H   H1067     1.0  0.88947  0.29932  0.70520  1.0000
  H   H1068     1.0  0.91136  0.27622  0.68774  1.0000
  C   C654      1.0  0.78960  0.36662  0.59174  1.0000
  C   C655      1.0  0.80054  0.16597  0.75761  1.0000
  H   H1069     1.0  0.93220  0.31080  0.76172  1.0000
  N   N68       1.0  0.79199  0.16823  0.73087  1.0000
  C   C656      1.0  0.79329  0.20270  0.72268  1.0000
  C   C657      1.0  0.94007  0.38060  0.76391  1.0000
  H   H1070     1.0  0.80173  0.14027  0.76405  1.0000
  H   H1071     1.0  0.79366  0.51487  0.74883  1.0000
  H   H1072     1.0  0.01291  0.45432  0.76577  1.0000
  H   H1073     1.0  0.96868  0.46762  0.76912  1.0000
  H   H1074     1.0  0.78742  0.17857  0.77003  1.0000
  S   S270      1.0  0.78679  0.35089  0.56067  1.0000
  H   H1075     1.0  0.78695  0.20550  0.70257  1.0000
  H   H1076     1.0  0.83674  0.33402  0.52864  1.0000
  H   H1077     1.0  0.79617  0.18032  0.95570  1.0000
  S   S271      1.0  0.81429  0.42516  0.79336  1.0000
  S   S272      1.0  0.82686  0.15424  0.99673  1.0000
  H   H1078     1.0  0.01247  0.42459  0.79066  1.0000
  C   C658      1.0  0.96050  0.36605  0.77705  1.0000
  H   H1079     1.0  0.82481  0.07115  0.92934  1.0000
  C   C659      1.0  0.81453  0.33260  0.85451  1.0000
  H   H1080     1.0  0.91529  0.09782  0.90172  1.0000
  Fe  Fe142     1.0  0.91002  0.10191  0.01763  1.0000
  C   C660      1.0  0.83333  0.48643  0.78370  1.0000
  C   C661      1.0  0.80369  0.48272  0.81669  1.0000
  S   S273      1.0  0.93773  0.07969  0.99220  1.0000
  H   H1081     1.0  0.84977  0.23266  0.78260  1.0000
  C   C662      1.0  0.81843  0.13841  0.96641  1.0000
  C   C663      1.0  0.80267  0.15659  0.94990  1.0000
  H   H1082     1.0  0.01755  0.46932  0.83509  1.0000
  H   H1083     1.0  0.78702  0.05752  0.00289  1.0000
  H   H1084     1.0  0.80160  0.34549  0.79210  1.0000
  C   C664      1.0  0.82652  0.10766  0.95877  1.0000
  C   C665      1.0  0.96584  0.13525  0.00027  1.0000
  H   H1085     1.0  0.99439  0.43765  0.83088  1.0000
  C   C666      1.0  0.81163  0.22934  0.79418  1.0000
  H   H1086     1.0  0.83844  0.09324  0.97131  1.0000
  C   C667      1.0  0.96498  0.10359  0.99034  1.0000
  C   C668      1.0  0.98597  0.09107  0.97878  1.0000
  C   C669      1.0  0.00800  0.10985  0.97787  1.0000
  C   C670      1.0  0.00888  0.14128  0.98826  1.0000
  C   C671      1.0  0.79257  0.08103  0.01213  1.0000
  C   C672      1.0  0.99838  0.46387  0.82703  1.0000
  H   H1087     1.0  0.98538  0.06664  0.97093  1.0000
  H   H1088     1.0  0.81536  0.20952  0.80726  1.0000
  C   C673      1.0  0.80321  0.11344  0.91832  1.0000
  Fe  Fe143     1.0  0.86015  0.13520  0.02022  1.0000
  H   H1089     1.0  0.95729  0.35010  0.79284  1.0000
  C   C674      1.0  0.81878  0.09519  0.93495  1.0000
  C   C675      1.0  0.01476  0.45105  0.78656  1.0000
  H   H1090     1.0  0.92066  0.14107  0.96332  1.0000
  H   H1091     1.0  0.80135  0.39182  0.83806  1.0000
  H   H1092     1.0  0.02237  0.24556  0.01539  1.0000
  H   H1093     1.0  0.82216  0.31564  0.80648  1.0000
  H   H1094     1.0  0.87326  0.08222  0.93644  1.0000
  C   C676      1.0  0.81752  0.46756  0.79819  1.0000
  H   H1095     1.0  0.90582  0.07386  0.94338  1.0000
  H   H1096     1.0  0.02441  0.09978  0.96954  1.0000
  H   H1097     1.0  0.90582  0.13889  0.89429  1.0000
  H   H1098     1.0  0.82983  0.35106  0.85703  1.0000
  C   C677      1.0  0.79525  0.14431  0.92585  1.0000
  H   H1099     1.0  0.88272  0.10694  0.89573  1.0000
  H   H1100     1.0  0.93724  0.11741  0.94121  1.0000
  S   S274      1.0  0.87090  0.08237  0.01978  1.0000
  C   C678      1.0  0.90057  0.11645  0.90467  1.0000
  H   H1101     1.0  0.92806  0.15852  0.93352  1.0000
  H   H1102     1.0  0.88846  0.09709  0.96512  1.0000
  C   C679      1.0  0.81328  0.33982  0.80940  1.0000
  C   C680      1.0  0.83107  0.24250  0.78028  1.0000
  H   H1103     1.0  0.98799  0.17887  0.00625  1.0000
  H   H1104     1.0  0.94987  0.14520  0.00922  1.0000
  C   C681      1.0  0.92201  0.13568  0.94288  1.0000
  C   C682      1.0  0.00169  0.50596  0.79556  1.0000
  S   S275      1.0  0.89900  0.15461  0.01505  1.0000
  S   S276      1.0  0.00961  0.34847  0.78374  1.0000
  C   C683      1.0  0.98759  0.15420  0.99888  1.0000
  H   H1105     1.0  0.98503  0.47877  0.83764  1.0000
  N   N69       1.0  0.89795  0.12325  0.93178  1.0000
  H   H1106     1.0  0.88324  0.17167  0.92612  1.0000
  C   C684      1.0  0.87824  0.14797  0.93486  1.0000
  H   H1107     1.0  0.03427  0.45787  0.79252  1.0000
  H   H1108     1.0  0.86003  0.13988  0.92587  1.0000
  S   S277      1.0  0.79329  0.13840  0.82281  1.0000
  H   H1109     1.0  0.82846  0.35858  0.81074  1.0000
  N   N70       1.0  0.99639  0.47094  0.79972  1.0000
  C   C685      1.0  0.89101  0.09277  0.94470  1.0000
  H   H1110     1.0  0.87502  0.15274  0.95514  1.0000
  C   C686      1.0  0.80500  0.51673  0.82010  1.0000
  H   H1111     1.0  0.79168  0.46823  0.82822  1.0000
  H   H1112     1.0  0.02083  0.51274  0.80312  1.0000
  H   H1113     1.0  0.96642  0.43647  0.79256  1.0000
  H   H1114     1.0  0.82343  0.30818  0.85284  1.0000
  H   H1115     1.0  0.96403  0.25211  0.01743  1.0000
  C   C687      1.0  0.02546  0.25309  0.99563  1.0000
  N   N71       1.0  0.79820  0.33993  0.83209  1.0000
  H   H1116     1.0  0.81304  0.08435  0.01009  1.0000
  C   C688      1.0  0.78678  0.37246  0.83506  1.0000
  C   C689      1.0  0.78741  0.24188  0.79115  1.0000
  H   H1117     1.0  0.01043  0.27076  0.99016  1.0000
  H   H1118     1.0  0.80377  0.33250  0.87199  1.0000
  H   H1119     1.0  0.02271  0.23099  0.98356  1.0000
  C   C690      1.0  0.97086  0.46280  0.78974  1.0000
  S   S278      1.0  0.79438  0.09621  0.88858  1.0000
  H   H1120     1.0  0.95642  0.47732  0.79918  1.0000
  H   H1121     1.0  0.78623  0.28988  0.82806  1.0000
  H   H1122     1.0  0.00070  0.51206  0.77513  1.0000
  S   S279      1.0  0.00201  0.59030  0.19643  1.0000
  H   H1123     1.0  0.95837  0.96900  0.07011  1.0000
  H   H1124     1.0  0.81512  0.59287  0.16542  1.0000
  H   H1125     1.0  0.96985  0.74289  0.17770  1.0000
  C   C691      1.0  0.94882  0.71809  0.21840  1.0000
  H   H1126     1.0  0.95222  0.59746  0.06444  1.0000
  Fe  Fe144     1.0  0.84847  0.63808  0.03135  1.0000
  H   H1127     1.0  0.92708  0.69586  0.15957  1.0000
  S   S280      1.0  0.99946  0.85004  0.10954  1.0000
  C   C692      1.0  0.80345  0.65197  0.20831  1.0000
  Fe  Fe145     1.0  0.99572  0.83003  0.07008  1.0000
  S   S281      1.0  0.96361  0.80481  0.04919  1.0000
  C   C693      1.0  0.95388  0.66665  0.19696  1.0000
  H   H1128     1.0  0.79843  0.58303  0.09412  1.0000
  S   S282      1.0  0.01083  0.87495  0.05193  1.0000
  H   H1129     1.0  0.97266  0.70504  0.16099  1.0000
  S   S283      1.0  0.79402  0.90813  0.20799  1.0000
  H   H1130     1.0  0.84662  0.00293  0.12424  1.0000
  Fe  Fe146     1.0  0.88641  0.65369  0.07482  1.0000
  S   S284      1.0  0.89794  0.60138  0.07786  1.0000
  S   S285      1.0  0.90866  0.68719  0.10156  1.0000
  Fe  Fe147     1.0  0.85688  0.58967  0.07417  1.0000
  S   S286      1.0  0.84633  0.54970  0.10141  1.0000
  S   S287      1.0  0.84506  0.64249  0.07366  1.0000
  H   H1131     1.0  0.95822  0.55240  0.21557  1.0000
  H   H1132     1.0  0.99953  0.53937  0.23577  1.0000
  C   C694      1.0  0.01428  0.71889  0.12905  1.0000
  H   H1133     1.0  0.96863  0.68561  0.06866  1.0000
  S   S288      1.0  0.88867  0.65436  0.03292  1.0000
  C   C695      1.0  0.01583  0.01001  0.15733  1.0000
  H   H1134     1.0  0.94544  0.65653  0.05769  1.0000
  H   H1135     1.0  0.98971  0.71113  0.19042  1.0000
  H   H1136     1.0  0.98025  0.58340  0.08068  1.0000
  C   C696      1.0  0.80536  0.89022  0.23620  1.0000
  C   C697      1.0  0.02092  0.98969  0.17805  1.0000
  C   C698      1.0  0.81869  0.54934  0.11832  1.0000
  C   C699      1.0  0.95173  0.64468  0.26513  1.0000
  H   H1137     1.0  0.93799  0.65523  0.20665  1.0000
  C   C700      1.0  0.94356  0.96506  0.11750  1.0000
  H   H1138     1.0  0.98147  0.59990  0.04943  1.0000
  H   H1139     1.0  0.00861  0.01241  0.11715  1.0000
  H   H1140     1.0  0.97476  0.65945  0.04247  1.0000
  C   C701      1.0  0.94896  0.77200  0.06415  1.0000
  C   C702      1.0  0.92976  0.75493  0.05096  1.0000
  C   C703      1.0  0.91733  0.72900  0.06238  1.0000
  C   C704      1.0  0.92405  0.71986  0.08707  1.0000
  C   C705      1.0  0.94340  0.73677  0.10030  1.0000
  C   C706      1.0  0.95593  0.76276  0.08883  1.0000
  C   C707      1.0  0.81754  0.84154  0.25983  1.0000
  C   C708      1.0  0.00402  0.64164  0.08230  1.0000
  H   H1141     1.0  0.94867  0.72988  0.11944  1.0000
  H   H1142     1.0  0.97064  0.77596  0.09916  1.0000
  C   C709      1.0  0.95070  0.53017  0.22470  1.0000
  H   H1143     1.0  0.92920  0.96080  0.13170  1.0000
  S   S289      1.0  0.85742  0.58444  0.03187  1.0000
  C   C710      1.0  0.91137  0.97727  0.08562  1.0000
  H   H1144     1.0  0.92359  0.73443  0.17510  1.0000
  N   N72       1.0  0.93495  0.98898  0.09821  1.0000
  C   C711      1.0  0.79577  0.52805  0.15360  1.0000
  C   C712      1.0  0.97152  0.71597  0.18010  1.0000
  S   S290      1.0  0.96516  0.61079  0.25022  1.0000
  S   S291      1.0  0.02482  0.00591  0.20882  1.0000
  H   H1145     1.0  0.80297  0.93438  0.25806  1.0000
  H   H1146     1.0  0.78577  0.57342  0.19612  1.0000
  C   C713      1.0  0.95427  0.99276  0.07932  1.0000
  C   C714      1.0  0.92603  0.64423  0.26964  1.0000
  S   S292      1.0  0.01212  0.65726  0.14861  1.0000
  H   H1147     1.0  0.02678  0.93997  0.19021  1.0000
  C   C715      1.0  0.96595  0.66040  0.06104  1.0000
  N   N73       1.0  0.97681  0.63572  0.07855  1.0000
  H   H1148     1.0  0.89623  0.97466  0.09925  1.0000
  C   C716      1.0  0.02284  0.95584  0.17428  1.0000
  H   H1149     1.0  0.83494  0.60617  0.19164  1.0000
  H   H1150     1.0  0.93347  0.70752  0.22945  1.0000
  C   C717      1.0  0.01415  0.96263  0.12930  1.0000
  H   H1151     1.0  0.96713  0.66303  0.11132  1.0000
  H   H1152     1.0  0.96097  0.97356  0.12782  1.0000
  H   H1153     1.0  0.80988  0.84260  0.21962  1.0000
  H   H1154     1.0  0.94431  0.63322  0.10093  1.0000
  H   H1155     1.0  0.80264  0.59024  0.22310  1.0000
  H   H1156     1.0  0.96654  0.71496  0.22994  1.0000
  H   H1157     1.0  0.02078  0.91618  0.14728  1.0000
  S   S293      1.0  0.03260  0.80484  0.07189  1.0000
  H   H1158     1.0  0.01550  0.76781  0.11433  1.0000
  C   C718      1.0  0.79211  0.64932  0.27315  1.0000
  C   C719      1.0  0.79778  0.56776  0.11069  1.0000
  C   C720      1.0  0.02499  0.69661  0.14630  1.0000
  C   C721      1.0  0.01242  0.99651  0.13306  1.0000
  N   N74       1.0  0.79710  0.62360  0.19195  1.0000
  H   H1159     1.0  0.95587  0.65392  0.17861  1.0000
  Fe  Fe148     1.0  0.02536  0.63234  0.18436  1.0000
  H   H1160     1.0  0.91475  0.62325  0.26396  1.0000
  H   H1161     1.0  0.99808  0.71198  0.11732  1.0000
  C   C722      1.0  0.96616  0.67184  0.27264  1.0000
  C   C723      1.0  0.81095  0.85680  0.23684  1.0000
  H   H1162     1.0  0.94541  0.74480  0.21661  1.0000
  C   C724      1.0  0.80691  0.90851  0.25846  1.0000
  C   C725      1.0  0.81754  0.52934  0.13971  1.0000
  N   N75       1.0  0.95023  0.70217  0.19348  1.0000
  C   C726      1.0  0.01950  0.94233  0.14996  1.0000
  C   C727      1.0  0.02414  0.75058  0.12732  1.0000
  H   H1163     1.0  0.90443  0.99476  0.07088  1.0000
  H   H1164     1.0  0.91388  0.95312  0.07641  1.0000
  Fe  Fe149     1.0  0.01776  0.89341  0.09161  1.0000
  H   H1165     1.0  0.01272  0.62384  0.09585  1.0000
  H   H1166     1.0  0.81085  0.00760  0.15236  1.0000
  H   H1167     1.0  0.92416  0.76215  0.03196  1.0000
  H   H1168     1.0  0.90204  0.71678  0.05227  1.0000
  C   C728      1.0  0.81941  0.61378  0.17834  1.0000
  S   S294      1.0  0.00808  0.94642  0.09880  1.0000
  C   C729      1.0  0.78874  0.59601  0.20752  1.0000
  H   H1169     1.0  0.00797  0.66642  0.09017  1.0000
  H   H1170     1.0  0.97292  0.62046  0.11692  1.0000
  C   C730      1.0  0.92675  0.70788  0.17842  1.0000
  Fe  Fe150     1.0  0.89745  0.60133  0.03581  1.0000
  Fe  Fe151     1.0  0.00369  0.61446  0.23437  1.0000
  C   C731      1.0  0.96477  0.63815  0.10300  1.0000
  H   H1171     1.0  0.78679  0.66074  0.21813  1.0000
  S   S295      1.0  0.02491  0.65844  0.22141  1.0000
  C   C732      1.0  0.97254  0.60269  0.06785  1.0000
  H   H1172     1.0  0.91024  0.69812  0.18809  1.0000
  H   H1173     1.0  0.97104  0.66155  0.20882  1.0000
  H   H1174     1.0  0.82159  0.81569  0.26032  1.0000
  H   H1175     1.0  0.01375  0.63958  0.06426  1.0000
  S   S296      1.0  0.79550  0.69128  0.26741  1.0000
  H   H1176     1.0  0.82642  0.63408  0.16658  1.0000
  H   H1177     1.0  0.98479  0.52460  0.26310  1.0000
  H   H1178     1.0  0.81057  0.67294  0.19735  1.0000
  S   S297      1.0  0.79814  0.00473  0.21533  1.0000
  H   H1179     1.0  0.00058  0.75798  0.02829  1.0000
  H   H1180     1.0  0.81802  0.64583  0.22315  1.0000
  H   H1181     1.0  0.94801  0.94105  0.10887  1.0000
  H   H1182     1.0  0.98600  0.67236  0.26945  1.0000
  H   H1183     1.0  0.93435  0.52140  0.21285  1.0000
  H   H1184     1.0  0.94378  0.53821  0.24320  1.0000
  H   H1185     1.0  0.02756  0.53743  0.15692  1.0000
  H   H1186     1.0  0.02900  0.01673  0.26458  1.0000
  H   H1187     1.0  0.94836  0.01035  0.06427  1.0000
  H   H1188     1.0  0.97229  0.00165  0.08817  1.0000
  H   H1189     1.0  0.79765  0.86013  0.41984  1.0000
  H   H1190     1.0  0.79934  0.90189  0.41035  1.0000
  C   C733      1.0  0.82993  0.77380  0.41294  1.0000
  S   S298      1.0  0.80480  0.75263  0.32078  1.0000
  Fe  Fe152     1.0  0.87492  0.73531  0.31251  1.0000
  H   H1191     1.0  0.83561  0.85681  0.36314  1.0000
  S   S299      1.0  0.91645  0.73072  0.30607  1.0000
  Fe  Fe153     1.0  0.83234  0.73270  0.34953  1.0000
  H   H1192     1.0  0.96639  0.71876  0.29131  1.0000
  Fe  Fe154     1.0  0.82234  0.71858  0.29382  1.0000
  Fe  Fe155     1.0  0.83500  0.78785  0.31143  1.0000
  H   H1193     1.0  0.03334  0.99208  0.29231  1.0000
  S   S300      1.0  0.84806  0.69557  0.32312  1.0000
  S   S301      1.0  0.86173  0.77030  0.34209  1.0000
  H   H1194     1.0  0.84350  0.81389  0.43622  1.0000
  S   S302      1.0  0.80418  0.83195  0.46778  1.0000
  C   C734      1.0  0.95503  0.69808  0.28506  1.0000
  H   H1195     1.0  0.84709  0.77165  0.40300  1.0000
  C   C735      1.0  0.79276  0.89109  0.36060  1.0000
  H   H1196     1.0  0.79896  0.88375  0.34169  1.0000
  C   C736      1.0  0.79170  0.87748  0.40472  1.0000
  C   C737      1.0  0.80783  0.59783  0.28983  1.0000
  S   S303      1.0  0.81312  0.72029  0.38545  1.0000
  C   C738      1.0  0.92939  0.69752  0.28986  1.0000
  H   H1197     1.0  0.79660  0.82560  0.35508  1.0000
  C   C739      1.0  0.81359  0.89331  0.28138  1.0000
  H   H1198     1.0  0.83476  0.84657  0.39582  1.0000
  H   H1199     1.0  0.79964  0.67327  0.33820  1.0000
  C   C740      1.0  0.78821  0.75459  0.42115  1.0000
  C   C741      1.0  0.80581  0.80065  0.44499  1.0000
  C   C742      1.0  0.81022  0.75192  0.40776  1.0000
  S   S304      1.0  0.82600  0.84149  0.31134  1.0000
  H   H1200     1.0  0.81477  0.90760  0.29855  1.0000
  C   C743      1.0  0.82787  0.79767  0.43179  1.0000
  H   H1201     1.0  0.82252  0.58406  0.29955  1.0000
  C   C744      1.0  0.78976  0.83463  0.37334  1.0000
  N   N76       1.0  0.80061  0.86698  0.38002  1.0000
  H   H1202     1.0  0.89510  0.66994  0.28551  1.0000
  C   C745      1.0  0.82823  0.86471  0.38146  1.0000
  H   H1203     1.0  0.83712  0.88859  0.38653  1.0000
  C   C746      1.0  0.81093  0.63152  0.28591  1.0000
  H   H1204     1.0  0.80094  0.91564  0.36485  1.0000
  H   H1205     1.0  0.80491  0.65277  0.36767  1.0000
  C   C747      1.0  0.91484  0.67064  0.28184  1.0000
  H   H1206     1.0  0.82810  0.64346  0.29233  1.0000
  H   H1207     1.0  0.80126  0.62946  0.33899  1.0000
  H   H1208     1.0  0.79495  0.81604  0.38785  1.0000
  S   S305      1.0  0.85008  0.75598  0.28125  1.0000
  C   C748      1.0  0.79442  0.65127  0.34911  1.0000
  C   C749      1.0  0.81877  0.85981  0.28213  1.0000
  C   C750      1.0  0.78583  0.77926  0.43944  1.0000
  C   C751      1.0  0.78608  0.58179  0.28066  1.0000
  H   H1209     1.0  0.85905  0.90165  0.62830  1.0000
  H   H1210     1.0  0.88208  0.85045  0.63157  1.0000
  Fe  Fe156     1.0  0.87233  0.89195  0.73565  1.0000
  H   H1211     1.0  0.89253  0.89740  0.69075  1.0000
  S   S306      1.0  0.90875  0.92017  0.74050  1.0000
  Fe  Fe157     1.0  0.83318  0.86065  0.69938  1.0000
  S   S307      1.0  0.80864  0.84529  0.73063  1.0000
  H   H1212     1.0  0.92878  0.89612  0.63265  1.0000
  Fe  Fe158     1.0  0.81709  0.89552  0.74640  1.0000
  H   H1213     1.0  0.90620  0.93248  0.67674  1.0000
  Fe  Fe159     1.0  0.84425  0.83080  0.75136  1.0000
  N   N77       1.0  0.89342  0.89515  0.65040  1.0000
  S   S308      1.0  0.83899  0.91218  0.71349  1.0000
  S   S309      1.0  0.86842  0.84195  0.71898  1.0000
  C   C752      1.0  0.90960  0.90646  0.63027  1.0000
  S   S310      1.0  0.01203  0.84711  0.76231  1.0000
  S   S311      1.0  0.85181  0.78366  0.77224  1.0000
  H   H1214     1.0  0.87998  0.84967  0.66500  1.0000
  S   S312      1.0  0.82719  0.84259  0.65911  1.0000
  C   C753      1.0  0.79974  0.89398  0.63835  1.0000
  C   C754      1.0  0.81005  0.86306  0.63481  1.0000
  C   C755      1.0  0.95698  0.91565  0.75993  1.0000
  C   C756      1.0  0.98361  0.86807  0.75622  1.0000
  H   H1215     1.0  0.86899  0.93673  0.64680  1.0000
  H   H1216     1.0  0.91008  0.84733  0.65162  1.0000
  C   C757      1.0  0.93743  0.89974  0.74622  1.0000
  C   C758      1.0  0.94110  0.86804  0.73728  1.0000
  C   C759      1.0  0.96423  0.85246  0.74201  1.0000
  C   C760      1.0  0.80726  0.84801  0.61108  1.0000
  H   H1217     1.0  0.91146  0.93357  0.63034  1.0000
  H   H1218     1.0  0.92628  0.85568  0.72647  1.0000
  H   H1219     1.0  0.96711  0.82808  0.73479  1.0000
  C   C761      1.0  0.79769  0.98334  0.74581  1.0000
  H   H1220     1.0  0.80421  0.97018  0.72971  1.0000
  H   H1221     1.0  0.80181  0.90581  0.65656  1.0000
  C   C762      1.0  0.90440  0.90543  0.67521  1.0000
  C   C763      1.0  0.79413  0.86354  0.59101  1.0000
  H   H1222     1.0  0.92332  0.89484  0.67903  1.0000
  H   H1223     1.0  0.79224  0.85171  0.57281  1.0000
  H   H1224     1.0  0.81533  0.82417  0.60816  1.0000
  S   S313      1.0  0.85088  0.87957  0.76968  1.0000
  H   H1225     1.0  0.90181  0.89896  0.61132  1.0000
  C   C764      1.0  0.86825  0.90956  0.64655  1.0000
  C   C765      1.0  0.89140  0.85910  0.64955  1.0000
  H   H1226     1.0  0.85568  0.90184  0.66160  1.0000
  H   H1227     1.0  0.95434  0.94027  0.76676  1.0000
  H   H1228     1.0  0.89978  0.82416  0.76638  1.0000
  C   C766      1.0  0.97989  0.89972  0.76523  1.0000
  H   H1229     1.0  0.79932  0.55755  0.75458  1.0000
  H   H1230     1.0  0.93205  0.81200  0.76836  1.0000
  C   C767      1.0  0.78670  0.90962  0.61819  1.0000
  S   S314      1.0  0.78735  0.92320  0.76638  1.0000
  H   H1231     1.0  0.78943  0.54376  0.72358  1.0000
  C   C768      1.0  0.78925  0.96611  0.76655  1.0000
  C   C769      1.0  0.79681  0.01768  0.74554  1.0000
  C   C770      1.0  0.78684  0.53987  0.74403  1.0000
  N   N78       1.0  0.01306  0.77405  0.99236  1.0000
  C   C771      1.0  0.92345  0.86043  0.80184  1.0000
  S   S315      1.0  0.82709  0.66356  0.99922  1.0000
  H   H1232     1.0  0.87750  0.83454  0.80588  1.0000
  N   N79       1.0  0.87642  0.58303  0.95405  1.0000
  H   H1233     1.0  0.88726  0.79576  0.81789  1.0000
  S   S316      1.0  0.00987  0.67480  0.97172  1.0000
  H   H1234     1.0  0.97809  0.56717  0.99691  1.0000
  C   C772      1.0  0.99596  0.75479  0.00779  1.0000
  S   S317      1.0  0.03194  0.89369  0.82623  1.0000
  C   C773      1.0  0.01103  0.80906  0.99883  1.0000
  H   H1235     1.0  0.00777  0.74316  0.95973  1.0000
  C   C774      1.0  0.87276  0.55344  0.96942  1.0000
  C   C775      1.0  0.81062  0.64138  0.97520  1.0000
  H   H1236     1.0  0.90250  0.55991  0.93006  1.0000
  H   H1237     1.0  0.90931  0.87400  0.78994  1.0000
  H   H1238     1.0  0.89427  0.83234  0.83587  1.0000
  C   C776      1.0  0.89300  0.82189  0.81652  1.0000
  C   C777      1.0  0.81299  0.65072  0.94999  1.0000
  S   S318      1.0  0.81989  0.57877  0.80672  1.0000
  H   H1239     1.0  0.80469  0.81088  0.78739  1.0000
  C   C778      1.0  0.80785  0.72025  0.80904  1.0000
  H   H1240     1.0  0.82624  0.66967  0.94548  1.0000
  C   C779      1.0  0.95098  0.60524  0.00171  1.0000
  C   C780      1.0  0.97411  0.59293  0.99470  1.0000
  C   C781      1.0  0.99235  0.61396  0.98522  1.0000
  C   C782      1.0  0.98739  0.64733  0.98255  1.0000
  C   C783      1.0  0.96410  0.65945  0.98903  1.0000
  C   C784      1.0  0.94596  0.63848  0.99849  1.0000
  C   C785      1.0  0.82765  0.73416  0.79609  1.0000
  H   H1241     1.0  0.01026  0.60438  0.98008  1.0000
  H   H1242     1.0  0.96005  0.68519  0.98676  1.0000
  H   H1243     1.0  0.93963  0.81851  0.83769  1.0000
  H   H1244     1.0  0.85762  0.61339  0.98008  1.0000
  H   H1245     1.0  0.92474  0.87245  0.82065  1.0000
  H   H1246     1.0  0.79165  0.60931  0.00026  1.0000
  H   H1247     1.0  0.79989  0.64326  0.91132  1.0000
  C   C786      1.0  0.82009  0.53578  0.80497  1.0000
  H   H1248     1.0  0.89087  0.61231  0.98503  1.0000
  C   C787      1.0  0.90109  0.58160  0.94257  1.0000
  H   H1249     1.0  0.93269  0.78171  0.82003  1.0000
  C   C788      1.0  0.87549  0.61231  0.97027  1.0000
  C   C789      1.0  0.85631  0.58484  0.93409  1.0000
  H   H1250     1.0  0.88740  0.55151  0.98492  1.0000
  H   H1251     1.0  0.01613  0.81349  0.01904  1.0000
  H   H1252     1.0  0.97615  0.76252  0.00451  1.0000
  H   H1253     1.0  0.99155  0.81807  0.99552  1.0000
  C   C790      1.0  0.80566  0.78565  0.79342  1.0000
  H   H1254     1.0  0.87715  0.63529  0.95930  1.0000
  H   H1255     1.0  0.95526  0.81055  0.80911  1.0000
  H   H1256     1.0  0.85820  0.60712  0.92231  1.0000
  C   C791      1.0  0.00616  0.76928  0.96534  1.0000
  H   H1257     1.0  0.94189  0.86381  0.79324  1.0000
  H   H1258     1.0  0.83747  0.58572  0.94229  1.0000
  H   H1259     1.0  0.91656  0.57995  0.95731  1.0000
  H   H1260     1.0  0.01854  0.78374  0.95319  1.0000
  H   H1261     1.0  0.85648  0.56325  0.92132  1.0000
  H   H1262     1.0  0.90464  0.60380  0.93116  1.0000
  C   C792      1.0  0.79501  0.72237  0.89754  1.0000
  N   N80       1.0  0.91689  0.82541  0.80374  1.0000
  H   H1263     1.0  0.98652  0.77686  0.96087  1.0000
  C   C793      1.0  0.79792  0.63613  0.93066  1.0000
  H   H1264     1.0  0.80876  0.69495  0.81486  1.0000
  H   H1265     1.0  0.99694  0.72825  0.00343  1.0000
  H   H1266     1.0  0.92813  0.64823  0.00308  1.0000
  H   H1267     1.0  0.03223  0.77182  0.90846  1.0000
  C   C794      1.0  0.93698  0.80825  0.81833  1.0000
  S   S319      1.0  0.92882  0.57869  0.01459  1.0000
  C   C795      1.0  0.79371  0.61658  0.98087  1.0000
  H   H1268     1.0  0.85427  0.55368  0.97831  1.0000
  H   H1269     1.0  0.79324  0.72094  0.87658  1.0000
  C   C796      1.0  0.82654  0.76680  0.78811  1.0000
  H   H1270     1.0  0.79429  0.52814  0.83440  1.0000
  H   H1271     1.0  0.80389  0.69936  0.90427  1.0000
  H   H1272     1.0  0.80817  0.74277  0.90245  1.0000
  H   H1273     1.0  0.02373  0.82444  0.98768  1.0000
  H   H1274     1.0  0.90808  0.78497  0.77886  1.0000
  C   C797      1.0  0.83472  0.52044  0.78720  1.0000
  H   H1275     1.0  0.87363  0.53081  0.95787  1.0000
  H   H1276     1.0  0.84373  0.71946  0.79197  1.0000
  S   S320      1.0  0.79144  0.63895  0.85668  1.0000
  Fe  Fe160     1.0  0.78723  0.60251  0.82502  1.0000
  C   C798      1.0  0.91416  0.81102  0.77822  1.0000
  H   H1277     1.0  0.98814  0.52179  0.80511  1.0000
  C   C799      1.0  0.78707  0.73917  0.81451  1.0000
  H   H1278     1.0  0.84669  0.53498  0.77565  1.0000
  H   H1279     1.0  0.99476  0.91210  0.77600  1.0000
  C   C800      1.0  0.78609  0.77193  0.80682  1.0000
  H   H1280     1.0  0.78674  0.74765  0.94295  1.0000
