data_image0
_chemical_formula_structural       HCH3CHSH2CSH6CH2CHCNCH2CHSHNH7NCHSHFeSFeHSHFeS2H3CHC6H9FeHC2H2CHCH3SHC2FeHSHNHC2HCSCH2C2HFeSHFeSFeSFeS3HSC7H6CHC2H3FeH2C3NH2CH2SCH4CH2SC2HCH2C2H3CHCH2SH2C2SFeH2C2H2C2S2HC5HCH6C2N2H4CHFeH2SCHCSCHCSC3HCH3CHCH3CHFeNC2H2FeS2FeS2Fe2S3H3C2NCSH2CH3CH2C2SCHCSHCHC2H2C2H2CHCHC2HNC2H3SFeH4C2HCH2CH4FeS2HCSC2H5C3H4FeSHNHFeSFeCFeS2CHCNH2SH3CHCH3C2HCHCH2C2HC2SHSH4CH2CH3SHCSHFeHNHSCHCHCFeCH2SC2H3CH2C3HC3HC2H3NH3CHCFeSFeSFeCFeS3CH3S2HCHCH2CFeSHSC2H3C3H4CHCH2C2NH4C3HNCH2C2H4FeS2H2NH2CHCH2C3H3CH4C2FeHSFeS2CFeS2HCHFeH4C3HNSH2SHCH2C2FeCSHCH2CH3CH3SH3SH3C3HSH5C3H6SHFeHSHSHFeSFeCFeS3HSHC9H7NHCH4CHNCHFeH10CFeS2FeS2Fe2NS2HCSHC2H2C6H9SH4CHFeH2CH3CH2C2HSCHCH2NCSHCH2NHCHC2HC2H2C2HCSHSCHCH2SCNC4H3C2FeSH2FeH2C3H3
_chemical_formula_sum              "H384 C240 S96 N24 Fe48"
_cell_length_a       28.7449
_cell_length_b       53.0221
_cell_length_c       33.1346
_cell_angle_alpha    90.1778
_cell_angle_beta     108.44
_cell_angle_gamma    89.9414

_space_group_name_H-M_alt    "P 1"
_space_group_IT_number       1

loop_
  _space_group_symop_operation_xyz
  'x, y, z'

loop_
  _atom_site_type_symbol
  _atom_site_label
  _atom_site_symmetry_multiplicity
  _atom_site_fract_x
  _atom_site_fract_y
  _atom_site_fract_z
  _atom_site_occupancy
  H   H1        1.0  0.32133  0.21652  0.18603  1.0000
  C   C1        1.0  0.45210  0.18756  0.10176  1.0000
  H   H2        1.0  0.41666  0.18389  0.10547  1.0000
  H   H3        1.0  0.48191  0.04400  0.41025  1.0000
  H   H4        1.0  0.44102  0.16122  0.04970  1.0000
  C   C2        1.0  0.46581  0.17468  0.07007  1.0000
  H   H5        1.0  0.25660  0.24649  0.14590  1.0000
  S   S1        1.0  0.46377  0.22117  0.16715  1.0000
  H   H6        1.0  0.47466  0.06614  0.47321  1.0000
  H   H7        1.0  0.35532  0.22225  0.14970  1.0000
  C   C3        1.0  0.49783  0.08163  0.46742  1.0000
  S   S2        1.0  0.47261  0.25127  0.27159  1.0000
  H   H8        1.0  0.29774  0.25236  0.22372  1.0000
  H   H9        1.0  0.48529  0.09575  0.09200  1.0000
  H   H10       1.0  0.47288  0.09641  0.44841  1.0000
  H   H11       1.0  0.29017  0.25224  0.10930  1.0000
  H   H12       1.0  0.47668  0.16771  0.39698  1.0000
  H   H13       1.0  0.38406  0.22673  0.20553  1.0000
  C   C4        1.0  0.34883  0.22913  0.17925  1.0000
  H   H14       1.0  0.50053  0.20302  0.35816  1.0000
  H   H15       1.0  0.47789  0.07380  0.38364  1.0000
  C   C5        1.0  0.48396  0.20500  0.12887  1.0000
  H   H16       1.0  0.37546  0.19822  0.01735  1.0000
  C   C6        1.0  0.48103  0.02677  0.01324  1.0000
  N   N1        1.0  0.33270  0.25575  0.17529  1.0000
  C   C7        1.0  0.28599  0.25822  0.14019  1.0000
  H   H17       1.0  0.50038  0.11653  0.05533  1.0000
  H   H18       1.0  0.49681  0.08313  0.04588  1.0000
  C   C8        1.0  0.04582  0.16568  0.85143  1.0000
  H   H19       1.0  0.05905  0.21079  0.65266  1.0000
  S   S3        1.0  0.43168  0.04801  0.99143  1.0000
  H   H20       1.0  0.44871  0.19530  0.96680  1.0000
  N   N2        1.0  0.07947  0.24176  0.62005  1.0000
  H   H21       1.0  0.12338  0.14535  0.83405  1.0000
  H   H22       1.0  0.04673  0.15453  0.88006  1.0000
  H   H23       1.0  0.03198  0.21010  0.59567  1.0000
  H   H24       1.0  0.00882  0.17638  0.76781  1.0000
  H   H25       1.0  0.46466  0.01868  0.63417  1.0000
  H   H26       1.0  0.01272  0.17802  0.84365  1.0000
  H   H27       1.0  0.07463  0.17784  0.78481  1.0000
  N   N3        1.0  0.38101  0.21489  0.95990  1.0000
  C   C9        1.0  0.48162  0.04426  0.70888  1.0000
  H   H28       1.0  0.04313  0.15302  0.75003  1.0000
  S   S4        1.0  0.39311  0.09362  0.89042  1.0000
  H   H29       1.0  0.46502  0.06456  0.63045  1.0000
  Fe  Fe1       1.0  0.37484  0.13146  0.91312  1.0000
  S   S5        1.0  0.30162  0.15097  0.90646  1.0000
  Fe  Fe2       1.0  0.43608  0.08532  0.95868  1.0000
  H   H30       1.0  0.48798  0.06202  0.72791  1.0000
  S   S6        1.0  0.44181  0.15093  0.90625  1.0000
  H   H31       1.0  0.37442  0.22494  0.89535  1.0000
  Fe  Fe3       1.0  0.07746  0.22938  0.76371  1.0000
  S   S7        1.0  0.04964  0.23009  0.81980  1.0000
  S   S8        1.0  0.14120  0.20703  0.75464  1.0000
  H   H32       1.0  0.37189  0.19170  0.90456  1.0000
  H   H33       1.0  0.32412  0.24105  0.96059  1.0000
  H   H34       1.0  0.09285  0.12157  0.85491  1.0000
  C   C10       1.0  0.36113  0.21055  0.91347  1.0000
  H   H35       1.0  0.09011  0.12068  0.79994  1.0000
  C   C11       1.0  0.18626  0.19197  0.79724  1.0000
  C   C12       1.0  0.22577  0.17947  0.78939  1.0000
  C   C13       1.0  0.26172  0.16693  0.82239  1.0000
  C   C14       1.0  0.25810  0.16654  0.86349  1.0000
  C   C15       1.0  0.21861  0.17907  0.87130  1.0000
  C   C16       1.0  0.18303  0.19183  0.83848  1.0000
  H   H36       1.0  0.22861  0.17944  0.75761  1.0000
  H   H37       1.0  0.29185  0.15735  0.81588  1.0000
  H   H38       1.0  0.21559  0.17896  0.90303  1.0000
  H   H39       1.0  0.15318  0.20156  0.84512  1.0000
  H   H40       1.0  0.43773  0.02823  0.51506  1.0000
  H   H41       1.0  0.14116  0.21701  0.64473  1.0000
  H   H42       1.0  0.32027  0.21104  0.90212  1.0000
  H   H43       1.0  0.44208  0.04381  0.68968  1.0000
  H   H44       1.0  0.15141  0.24272  0.61334  1.0000
  Fe  Fe4       1.0  0.47852  0.13880  0.97402  1.0000
  H   H45       1.0  0.37788  0.25525  0.95376  1.0000
  C   C17       1.0  0.36276  0.19508  0.98235  1.0000
  C   C18       1.0  0.47495  0.02137  0.52817  1.0000
  H   H46       1.0  0.37941  0.24376  0.00511  1.0000
  H   H47       1.0  0.47346  0.14974  0.80520  1.0000
  C   C19       1.0  0.08970  0.13346  0.82654  1.0000
  H   H48       1.0  0.11427  0.21635  0.58777  1.0000
  C   C20       1.0  0.49529  0.14056  0.78818  1.0000
  H   H49       1.0  0.37582  0.17608  0.97640  1.0000
  H   H50       1.0  0.04684  0.24599  0.55232  1.0000
  H   H51       1.0  0.32194  0.19427  0.97136  1.0000
  S   S9        1.0  0.41144  0.12124  0.98190  1.0000
  H   H52       1.0  0.49235  0.17202  0.74621  1.0000
  C   C21       1.0  0.36487  0.23986  0.97031  1.0000
  C   C22       1.0  0.04353  0.22276  0.62393  1.0000
  Fe  Fe5       1.0  0.46279  0.11243  0.88806  1.0000
  H   H53       1.0  0.07859  0.17820  0.86035  1.0000
  S   S10       1.0  0.49855  0.09875  0.83952  1.0000
  H   H54       1.0  0.00977  0.23193  0.62681  1.0000
  N   N4        1.0  0.04485  0.14914  0.81516  1.0000
  H   H55       1.0  0.45046  0.22845  0.95687  1.0000
  C   C23       1.0  0.12352  0.22888  0.61622  1.0000
  C   C24       1.0  0.04280  0.16477  0.77781  1.0000
  H   H56       1.0  0.48859  0.02827  0.73170  1.0000
  C   C25       1.0  0.43520  0.21404  0.97353  1.0000
  S   S11       1.0  0.00316  0.22214  0.71648  1.0000
  C   C26       1.0  0.00096  0.13280  0.80472  1.0000
  H   H57       1.0  0.00116  0.12065  0.83210  1.0000
  H   H58       1.0  0.11129  0.24677  0.68765  1.0000
  C   C27       1.0  0.05714  0.25746  0.58200  1.0000
  C   C28       1.0  0.09364  0.25794  0.65835  1.0000
  H   H59       1.0  0.45145  0.21743  0.00837  1.0000
  Fe  Fe6       1.0  0.10084  0.40334  0.14303  1.0000
  S   S12       1.0  0.15230  0.42766  0.12060  1.0000
  H   H60       1.0  0.25182  0.41746  0.18831  1.0000
  Fe  Fe7       1.0  0.08240  0.36812  0.06612  1.0000
  S   S13       1.0  0.13233  0.39024  0.03974  1.0000
  Fe  Fe8       1.0  0.18341  0.39081  0.10707  1.0000
  S   S14       1.0  0.26537  0.38457  0.12014  1.0000
  Fe  Fe9       1.0  0.09607  0.42486  0.05582  1.0000
  S   S15       1.0  0.01459  0.40586  0.44299  1.0000
  S   S16       1.0  0.13552  0.36664  0.13296  1.0000
  S   S17       1.0  0.04273  0.40262  0.07866  1.0000
  H   H61       1.0  0.25772  0.41723  0.31884  1.0000
  S   S18       1.0  0.40647  0.31335  0.26164  1.0000
  C   C29       1.0  0.27555  0.41773  0.22219  1.0000
  C   C30       1.0  0.30304  0.36340  0.15799  1.0000
  C   C31       1.0  0.28680  0.35191  0.18903  1.0000
  C   C32       1.0  0.31916  0.33694  0.22078  1.0000
  C   C33       1.0  0.36748  0.33245  0.22090  1.0000
  C   C34       1.0  0.38324  0.34326  0.18904  1.0000
  C   C35       1.0  0.35133  0.35891  0.15809  1.0000
  H   H62       1.0  0.24959  0.35495  0.18896  1.0000
  H   H63       1.0  0.30662  0.32868  0.24531  1.0000
  H   H64       1.0  0.42037  0.34010  0.18884  1.0000
  H   H65       1.0  0.36427  0.36776  0.13424  1.0000
  H   H66       1.0  0.31328  0.28402  0.21371  1.0000
  H   H67       1.0  0.19004  0.39495  0.26391  1.0000
  C   C36       1.0  0.03356  0.40894  0.29993  1.0000
  H   H68       1.0  0.19004  0.44161  0.21121  1.0000
  C   C37       1.0  0.03963  0.38137  0.22916  1.0000
  C   C38       1.0  0.05833  0.41888  0.27301  1.0000
  H   H69       1.0  0.06118  0.47299  0.47663  1.0000
  H   H70       1.0  0.29930  0.43472  0.22667  1.0000
  H   H71       1.0  0.23615  0.37744  0.24943  1.0000
  Fe  Fe10      1.0  0.47704  0.29312  0.26242  1.0000
  H   H72       1.0  0.30277  0.40024  0.30227  1.0000
  H   H73       1.0  0.07505  0.43734  0.27967  1.0000
  C   C39       1.0  0.27898  0.41733  0.29597  1.0000
  C   C40       1.0  0.21518  0.44065  0.24452  1.0000
  C   C41       1.0  0.21427  0.39514  0.24347  1.0000
  N   N5        1.0  0.24602  0.41772  0.25153  1.0000
  H   H74       1.0  0.35873  0.29172  0.16143  1.0000
  H   H75       1.0  0.19138  0.44094  0.26534  1.0000
  C   C42       1.0  0.06148  0.40518  0.23753  1.0000
  H   H76       1.0  0.29977  0.40086  0.22692  1.0000
  H   H77       1.0  0.23770  0.45813  0.25072  1.0000
  S   S19       1.0  0.09436  0.41836  0.20558  1.0000
  C   C43       1.0  0.01209  0.38504  0.29178  1.0000
  H   H78       1.0  0.18969  0.39463  0.20997  1.0000
  H   H79       1.0  0.06522  0.48512  0.07470  1.0000
  H   H80       1.0  0.36035  0.26286  0.24266  1.0000
  H   H81       1.0  0.03137  0.41968  0.32709  1.0000
  C   C44       1.0  0.04748  0.49521  0.04555  1.0000
  H   H82       1.0  0.30346  0.43413  0.30320  1.0000
  H   H83       1.0  0.04197  0.37060  0.20209  1.0000
  S   S20       1.0  0.04065  0.33410  0.03025  1.0000
  C   C45       1.0  0.32557  0.26405  0.21556  1.0000
  C   C46       1.0  0.01519  0.37134  0.25628  1.0000
  H   H84       1.0  0.40541  0.27121  0.19293  1.0000
  C   C47       1.0  0.37042  0.27164  0.16621  1.0000
  H   H85       1.0  0.27289  0.27815  0.13660  1.0000
  H   H86       1.0  0.37883  0.26508  0.13734  1.0000
  C   C48       1.0  0.05137  0.48950  0.49144  1.0000
  C   C49       1.0  0.00200  0.49447  0.48638  1.0000
  H   H87       1.0  0.00760  0.35617  0.90667  1.0000
  H   H88       1.0  0.07631  0.42560  0.55588  1.0000
  H   H89       1.0  0.02314  0.26689  0.58367  1.0000
  C   C50       1.0  0.02439  0.29957  0.91632  1.0000
  H   H90       1.0  0.07902  0.41461  0.94659  1.0000
  C   C51       1.0  0.05729  0.46381  0.60218  1.0000
  H   H91       1.0  0.05041  0.47166  0.63094  1.0000
  H   H92       1.0  0.04108  0.31233  0.66690  1.0000
  S   S21       1.0  0.06997  0.45411  0.00251  1.0000
  H   H93       1.0  0.06729  0.34497  0.62493  1.0000
  H   H94       1.0  0.07457  0.41565  0.62833  1.0000
  C   C52       1.0  0.01809  0.30689  0.95529  1.0000
  C   C53       1.0  0.03318  0.33496  0.61090  1.0000
  S   S22       1.0  0.02475  0.36354  0.54003  1.0000
  Fe  Fe11      1.0  0.03837  0.27173  0.80698  1.0000
  H   H95       1.0  0.12633  0.50196  0.51937  1.0000
  H   H96       1.0  0.11838  0.34425  0.99369  1.0000
  C   C54       1.0  0.01851  0.31639  0.63469  1.0000
  C   C55       1.0  0.06280  0.39828  0.92568  1.0000
  H   H97       1.0  0.12846  0.33240  0.92467  1.0000
  H   H98       1.0  0.09695  0.45902  0.61087  1.0000
  C   C56       1.0  0.00404  0.34065  0.56912  1.0000
  C   C57       1.0  0.08826  0.50605  0.51549  1.0000
  S   S23       1.0  0.07137  0.27126  0.75351  1.0000
  S   S24       1.0  0.07151  0.30287  0.85479  1.0000
  H   H99       1.0  0.07045  0.40084  0.89509  1.0000
  C   C58       1.0  0.05136  0.32352  0.98310  1.0000
  C   C59       1.0  0.09163  0.33217  0.97212  1.0000
  C   C60       1.0  0.09755  0.32519  0.93309  1.0000
  C   C61       1.0  0.06394  0.30898  0.90488  1.0000
  C   C62       1.0  0.02062  0.49761  0.96882  1.0000
  H   H100      1.0  0.02152  0.37600  0.97763  1.0000
  C   C63       1.0  0.04400  0.48414  0.00634  1.0000
  H   H101      1.0  0.01428  0.40927  0.98164  1.0000
  H   H102      1.0  0.06105  0.26743  0.66264  1.0000
  H   H103      1.0  0.11982  0.27296  0.65634  1.0000
  H   H104      1.0  0.02978  0.44562  0.52198  1.0000
  H   H105      1.0  0.08292  0.38116  0.94115  1.0000
  H   H106      1.0  0.05015  0.47922  0.57820  1.0000
  C   C64       1.0  0.03733  0.43157  0.54789  1.0000
  C   C65       1.0  0.03551  0.42177  0.61821  1.0000
  N   N6        1.0  0.02601  0.44161  0.58532  1.0000
  N   N7        1.0  0.00963  0.39602  0.91907  1.0000
  H   H107      1.0  0.01435  0.41492  0.53454  1.0000
  H   H108      1.0  0.01723  0.48913  0.93830  1.0000
  H   H109      1.0  0.08251  0.27263  0.57881  1.0000
  H   H110      1.0  0.01294  0.40460  0.60590  1.0000
  C   C66       1.0  0.00138  0.39265  0.96053  1.0000
  H   H111      1.0  0.02685  0.42840  0.64689  1.0000
  Fe  Fe12      1.0  0.01444  0.75410  0.21501  1.0000
  H   H112      1.0  0.06706  0.60476  0.46287  1.0000
  H   H113      1.0  0.11540  0.68059  0.49277  1.0000
  S   S25       1.0  0.09275  0.75546  0.25849  1.0000
  C   C67       1.0  0.00906  0.55306  0.40980  1.0000
  H   H114      1.0  0.03524  0.54879  0.39212  1.0000
  C   C68       1.0  0.02872  0.51967  0.04715  1.0000
  S   S26       1.0  0.10069  0.74024  0.37707  1.0000
  C   C69       1.0  0.01693  0.68447  0.40301  1.0000
  H   H115      1.0  0.09116  0.58030  0.43789  1.0000
  C   C70       1.0  0.02704  0.71957  0.06358  1.0000
  S   S27       1.0  0.02423  0.65225  0.46951  1.0000
  C   C71       1.0  0.03357  0.70364  0.38160  1.0000
  C   C72       1.0  0.04629  0.67610  0.44322  1.0000
  C   C73       1.0  0.09242  0.68694  0.46187  1.0000
  H   H116      1.0  0.02987  0.59362  0.36934  1.0000
  C   C74       1.0  0.07962  0.71461  0.40050  1.0000
  H   H117      1.0  0.01081  0.70991  0.35061  1.0000
  H   H118      1.0  0.01767  0.53996  0.43738  1.0000
  H   H119      1.0  0.05328  0.72913  0.05171  1.0000
  C   C75       1.0  0.10889  0.70617  0.44062  1.0000
  H   H120      1.0  0.03218  0.52820  0.07769  1.0000
  C   C76       1.0  0.06262  0.58462  0.45304  1.0000
  H   H121      1.0  0.07084  0.57311  0.48252  1.0000
  H   H122      1.0  0.14452  0.71460  0.45547  1.0000
  H   H123      1.0  0.04041  0.74391  0.11878  1.0000
  C   C77       1.0  0.01984  0.72798  0.10163  1.0000
  H   H124      1.0  0.00505  0.61676  0.39641  1.0000
  Fe  Fe13      1.0  0.06124  0.75738  0.31248  1.0000
  N   N8        1.0  0.01270  0.57968  0.42390  1.0000
  C   C78       1.0  0.00278  0.59652  0.38662  1.0000
  C   C79       1.0  0.00099  0.69872  0.04114  1.0000
  H   H125      1.0  0.04845  0.75206  0.44288  1.0000
  H   H126      1.0  0.00515  0.75702  0.36468  1.0000
  Fe  Fe14      1.0  0.17674  0.63952  0.60054  1.0000
  S   S28       1.0  0.10781  0.66193  0.59061  1.0000
  S   S29       1.0  0.24325  0.66521  0.61035  1.0000
  Fe  Fe15      1.0  0.11723  0.58994  0.57878  1.0000
  S   S30       1.0  0.04521  0.60959  0.56915  1.0000
  S   S31       1.0  0.12416  0.54803  0.56466  1.0000
  Fe  Fe16      1.0  0.07423  0.63821  0.53313  1.0000
  Fe  Fe17      1.0  0.08565  0.63166  0.62825  1.0000
  S   S32       1.0  0.14429  0.61761  0.53972  1.0000
  S   S33       1.0  0.15649  0.61004  0.64102  1.0000
  S   S34       1.0  0.01007  0.68917  0.99278  1.0000
  H   H127      1.0  0.22116  0.65242  0.73763  1.0000
  H   H128      1.0  0.15394  0.53866  0.90747  1.0000
  H   H129      1.0  0.09945  0.59849  0.92938  1.0000
  C   C80       1.0  0.06468  0.55175  0.90947  1.0000
  C   C81       1.0  0.14970  0.53993  0.93967  1.0000
  N   N9        1.0  0.19012  0.68912  0.71834  1.0000
  C   C82       1.0  0.02699  0.53304  0.52884  1.0000
  S   S35       1.0  0.02266  0.61960  0.95350  1.0000
  H   H130      1.0  0.05380  0.53229  0.91491  1.0000
  H   H131      1.0  0.16411  0.71193  0.76055  1.0000
  C   C83       1.0  0.01317  0.64006  0.78214  1.0000
  H   H132      1.0  0.20877  0.65934  0.68224  1.0000
  H   H133      1.0  0.15929  0.65215  0.70224  1.0000
  H   H134      1.0  0.31505  0.70398  0.62135  1.0000
  C   C84       1.0  0.07632  0.52798  0.53414  1.0000
  H   H135      1.0  0.06756  0.58307  0.78307  1.0000
  H   H136      1.0  0.26525  0.69206  0.75859  1.0000
  C   C85       1.0  0.02993  0.61583  0.79591  1.0000
  C   C86       1.0  0.32641  0.69242  0.64965  1.0000
  S   S36       1.0  0.05485  0.64998  0.67679  1.0000
  C   C87       1.0  0.29779  0.67149  0.65290  1.0000
  H   H137      1.0  0.39126  0.71475  0.67958  1.0000
  C   C88       1.0  0.23891  0.70127  0.73038  1.0000
  S   S37       1.0  0.43969  0.69048  0.76132  1.0000
  H   H138      1.0  0.13077  0.58391  0.89707  1.0000
  C   C89       1.0  0.15744  0.70124  0.67961  1.0000
  H   H139      1.0  0.06586  0.55267  0.87623  1.0000
  C   C90       1.0  0.06196  0.61184  0.73583  1.0000
  C   C91       1.0  0.05449  0.60183  0.77267  1.0000
  H   H140      1.0  0.08068  0.60084  0.71815  1.0000
  H   H141      1.0  0.29180  0.64029  0.69237  1.0000
  C   C92       1.0  0.38494  0.68377  0.71929  1.0000
  C   C93       1.0  0.35636  0.66281  0.72265  1.0000
  H   H142      1.0  0.18611  0.54475  0.96276  1.0000
  H   H143      1.0  0.36803  0.65117  0.75082  1.0000
  C   C94       1.0  0.31298  0.65666  0.68965  1.0000
  H   H144      1.0  0.25513  0.70011  0.70401  1.0000
  C   C95       1.0  0.04520  0.63608  0.72209  1.0000
  H   H145      1.0  0.09850  0.54081  0.99395  1.0000
  C   C96       1.0  0.10749  0.55970  0.98383  1.0000
  C   C97       1.0  0.12722  0.58387  0.92959  1.0000
  H   H146      1.0  0.13958  0.52081  0.94808  1.0000
  N   N10       1.0  0.11226  0.55883  0.94068  1.0000
  C   C98       1.0  0.36966  0.69859  0.68264  1.0000
  C   C99       1.0  0.19514  0.66206  0.70982  1.0000
  H   H147      1.0  0.16273  0.59008  0.95255  1.0000
  H   H148      1.0  0.48457  0.64084  0.74212  1.0000
  H   H149      1.0  0.01731  0.54957  0.54368  1.0000
  S   S38       1.0  0.02231  0.60237  0.84235  1.0000
  Fe  Fe18      1.0  0.49045  0.72403  0.76302  1.0000
  H   H150      1.0  0.23679  0.72160  0.73800  1.0000
  H   H151      1.0  0.12021  0.69255  0.66971  1.0000
  H   H152      1.0  0.17225  0.69929  0.65242  1.0000
  H   H153      1.0  0.15294  0.72172  0.68468  1.0000
  C   C100      1.0  0.00603  0.53331  0.00970  1.0000
  C   C101      1.0  0.00127  0.52194  0.97045  1.0000
  H   H154      1.0  0.07764  0.57271  0.98537  1.0000
  C   C102      1.0  0.02102  0.65015  0.74551  1.0000
  H   H155      1.0  0.13187  0.68267  0.74485  1.0000
  H   H156      1.0  0.03483  0.56473  0.91124  1.0000
  C   C103      1.0  0.16878  0.69176  0.75330  1.0000
  H   H157      1.0  0.19234  0.68267  0.78295  1.0000
  H   H158      1.0  0.00792  0.66892  0.73510  1.0000
  H   H159      1.0  0.14189  0.56621  0.00800  1.0000
  H   H160      1.0  0.15753  0.82245  0.34247  1.0000
  Fe  Fe19      1.0  0.08324  0.79772  0.25651  1.0000
  S   S39       1.0  0.14487  0.82331  0.25136  1.0000
  S   S40       1.0  0.05541  0.79965  0.31238  1.0000
  H   H161      1.0  0.47695  0.81982  0.01719  1.0000
  C   C104      1.0  0.18789  0.83271  0.33785  1.0000
  S   S41       1.0  0.00681  0.79633  0.20824  1.0000
  C   C105      1.0  0.26715  0.85958  0.32681  1.0000
  C   C106      1.0  0.42359  0.81107  0.06950  1.0000
  H   H162      1.0  0.44741  0.85705  0.04659  1.0000
  H   H163      1.0  0.23316  0.85160  0.25984  1.0000
  H   H164      1.0  0.38607  0.82909  0.44446  1.0000
  H   H165      1.0  0.30628  0.83404  0.48497  1.0000
  H   H166      1.0  0.29744  0.86996  0.32221  1.0000
  C   C107      1.0  0.19074  0.83568  0.29675  1.0000
  C   C108      1.0  0.47280  0.00471  0.03348  1.0000
  C   C109      1.0  0.23062  0.84915  0.29148  1.0000
  H   H167      1.0  0.06537  0.78839  0.40465  1.0000
  H   H168      1.0  0.40066  0.81664  0.03688  1.0000
  H   H169      1.0  0.48476  0.82160  0.14835  1.0000
  H   H170      1.0  0.40383  0.81707  0.09194  1.0000
  Fe  Fe20      1.0  0.48258  0.88191  0.48399  1.0000
  S   S42       1.0  0.43636  0.97595  0.49349  1.0000
  H   H171      1.0  0.48529  0.85501  0.24239  1.0000
  N   N11       1.0  0.36655  0.80844  0.49250  1.0000
  H   H172      1.0  0.43637  0.00079  0.03482  1.0000
  Fe  Fe21      1.0  0.46999  0.90813  0.39863  1.0000
  S   S43       1.0  0.40078  0.92781  0.39983  1.0000
  Fe  Fe22      1.0  0.44248  0.93614  0.46859  1.0000
  C   C110      1.0  0.49782  0.81421  0.05039  1.0000
  Fe  Fe23      1.0  0.38013  0.89053  0.42250  1.0000
  S   S44       1.0  0.30783  0.86983  0.41372  1.0000
  S   S45       1.0  0.44625  0.87024  0.41601  1.0000
  C   C111      1.0  0.22396  0.84339  0.37302  1.0000
  H   H173      1.0  0.22068  0.84133  0.40446  1.0000
  C   C112      1.0  0.26378  0.85688  0.36779  1.0000
  N   N12       1.0  0.47284  0.82261  0.08087  1.0000
  H   H174      1.0  0.42583  0.79011  0.07033  1.0000
  H   H175      1.0  0.47319  0.87388  0.30720  1.0000
  S   S46       1.0  0.41605  0.90065  0.49167  1.0000
  H   H176      1.0  0.05105  0.80879  0.44237  1.0000
  H   H177      1.0  0.36541  0.78350  0.44098  1.0000
  H   H178      1.0  0.43619  0.82340  0.49249  1.0000
  C   C113      1.0  0.39628  0.82767  0.47973  1.0000
  H   H179      1.0  0.44914  0.85748  0.10166  1.0000
  C   C114      1.0  0.46795  0.85034  0.07919  1.0000
  H   H180      1.0  0.30233  0.81545  0.43895  1.0000
  H   H181      1.0  0.29025  0.80113  0.48373  1.0000
  H   H182      1.0  0.02041  0.81286  0.38634  1.0000
  C   C115      1.0  0.31403  0.81496  0.47439  1.0000
  C   C116      1.0  0.49649  0.88317  0.29179  1.0000
  H   H183      1.0  0.41478  0.77803  0.48944  1.0000
  C   C117      1.0  0.37544  0.78349  0.47633  1.0000
  H   H184      1.0  0.35337  0.76853  0.48525  1.0000
  C   C118      1.0  0.01689  0.76223  0.44804  1.0000
  H   H185      1.0  0.03068  0.77140  0.47984  1.0000
  H   H186      1.0  0.39057  0.84669  0.49164  1.0000
  C   C119      1.0  0.03486  0.79854  0.41180  1.0000
  C   C120      1.0  0.38051  0.80770  0.53943  1.0000
  H   H187      1.0  0.43898  0.84742  0.62963  1.0000
  C   C121      1.0  0.49431  0.81848  0.64128  1.0000
  C   C122      1.0  0.47894  0.84990  0.58450  1.0000
  S   S47       1.0  0.47836  0.76430  0.77897  1.0000
  H   H188      1.0  0.48821  0.92133  0.96571  1.0000
  S   S48       1.0  0.47715  0.80540  0.68371  1.0000
  H   H189      1.0  0.37466  0.82633  0.55268  1.0000
  H   H190      1.0  0.35878  0.79347  0.55041  1.0000
  H   H191      1.0  0.45851  0.86602  0.56824  1.0000
  H   H192      1.0  0.41999  0.80280  0.55408  1.0000
  C   C123      1.0  0.48521  0.99598  0.52184  1.0000
  H   H193      1.0  0.47933  0.84540  0.90767  1.0000
  H   H194      1.0  0.48037  0.93735  0.89283  1.0000
  C   C124      1.0  0.46803  0.83936  0.61943  1.0000
  H   H195      1.0  0.49884  0.96840  0.91365  1.0000
  H   H196      1.0  0.57896  0.20026  0.08845  1.0000
  H   H197      1.0  0.58377  0.11583  0.04839  1.0000
  S   S49       1.0  0.52125  0.14681  0.48051  1.0000
  H   H198      1.0  0.58220  0.10325  0.46717  1.0000
  C   C125      1.0  0.54351  0.19658  0.09217  1.0000
  S   S50       1.0  0.58481  0.23752  0.38384  1.0000
  H   H199      1.0  0.62821  0.21623  0.46613  1.0000
  Fe  Fe24      1.0  0.50750  0.24786  0.21971  1.0000
  H   H200      1.0  0.60460  0.18102  0.50471  1.0000
  N   N13       1.0  0.56130  0.09548  0.09519  1.0000
  H   H201      1.0  0.55376  0.11539  0.14945  1.0000
  S   S51       1.0  0.58363  0.24673  0.26688  1.0000
  C   C126      1.0  0.52325  0.19825  0.39001  1.0000
  H   H202      1.0  0.55476  0.22278  0.14474  1.0000
  C   C127      1.0  0.58178  0.18573  0.47285  1.0000
  H   H203      1.0  0.54573  0.03682  0.47854  1.0000
  C   C128      1.0  0.52827  0.03160  0.01171  1.0000
  Fe  Fe25      1.0  0.54855  0.25362  0.31766  1.0000
  C   C129      1.0  0.52990  0.20939  0.12409  1.0000
  H   H204      1.0  0.58662  0.08756  0.42040  1.0000
  H   H205      1.0  0.60995  0.06802  0.13468  1.0000
  S   S52       1.0  0.52936  0.16413  0.02443  1.0000
  C   C130      1.0  0.57041  0.07073  0.11674  1.0000
  C   C131      1.0  0.57560  0.11598  0.12708  1.0000
  H   H206      1.0  0.56954  0.13488  0.11154  1.0000
  H   H207      1.0  0.54934  0.06865  0.13952  1.0000
  H   H208      1.0  0.52851  0.05291  0.38755  1.0000
  C   C132      1.0  0.56055  0.09373  0.43711  1.0000
  H   H209      1.0  0.68824  0.24764  0.43202  1.0000
  H   H210      1.0  0.63036  0.09602  0.08270  1.0000
  C   C133      1.0  0.59511  0.20568  0.45086  1.0000
  C   C134      1.0  0.51143  0.17931  0.06487  1.0000
  C   C135      1.0  0.56593  0.21208  0.40945  1.0000
  H   H211      1.0  0.61507  0.11473  0.14620  1.0000
  C   C136      1.0  0.59035  0.09747  0.06562  1.0000
  C   C137      1.0  0.53900  0.17198  0.45360  1.0000
  C   C138      1.0  0.56590  0.05366  0.47280  1.0000
  H   H212      1.0  0.53610  0.10842  0.41724  1.0000
  C   C139      1.0  0.50987  0.17824  0.41206  1.0000
  C   C140      1.0  0.50863  0.09783  0.07108  1.0000
  H   H213      1.0  0.55910  0.05491  0.09345  1.0000
  H   H214      1.0  0.58064  0.08225  0.04119  1.0000
  H   H215      1.0  0.59334  0.04683  0.45799  1.0000
  N   N14       1.0  0.53207  0.07231  0.44556  1.0000
  H   H216      1.0  0.58650  0.06182  0.50446  1.0000
  H   H217      1.0  0.60358  0.01900  0.03044  1.0000
  H   H218      1.0  0.51795  0.09035  0.49866  1.0000
  C   C141      1.0  0.50387  0.06024  0.40491  1.0000
  H   H219      1.0  0.74808  0.25328  0.42777  1.0000
  C   C142      1.0  0.56703  0.01493  0.03132  1.0000
  Fe  Fe26      1.0  0.56796  0.13751  0.54794  1.0000
  S   S53       1.0  0.63561  0.11392  0.55957  1.0000
  Fe  Fe27      1.0  0.57728  0.13820  0.64295  1.0000
  S   S54       1.0  0.64552  0.11439  0.66122  1.0000
  Fe  Fe28      1.0  0.66929  0.13918  0.61624  1.0000
  C   C143      1.0  0.62104  0.21171  0.69769  1.0000
  Fe  Fe29      1.0  0.60521  0.09143  0.60287  1.0000
  S   S55       1.0  0.60763  0.04855  0.60155  1.0000
  S   S56       1.0  0.60309  0.16433  0.60105  1.0000
  S   S57       1.0  0.53531  0.11353  0.58815  1.0000
  C   C144      1.0  0.56028  0.02902  0.56924  1.0000
  H   H220      1.0  0.57467  0.06067  0.72748  1.0000
  H   H221      1.0  0.81859  0.19469  0.63056  1.0000
  H   H222      1.0  0.96661  0.14426  0.79618  1.0000
  S   S58       1.0  0.74092  0.15982  0.62320  1.0000
  S   S59       1.0  0.54615  0.15752  0.68999  1.0000
  H   H223      1.0  0.52772  0.01703  0.63654  1.0000
  C   C145      1.0  0.82362  0.18732  0.66208  1.0000
  H   H224      1.0  0.66103  0.16594  0.69501  1.0000
  C   C146      1.0  0.51239  0.11601  0.79913  1.0000
  H   H225      1.0  0.59896  0.20697  0.71889  1.0000
  H   H226      1.0  0.67457  0.21357  0.78043  1.0000
  C   C147      1.0  0.79036  0.16943  0.66805  1.0000
  Fe  Fe30      1.0  0.97420  0.22583  0.77138  1.0000
  S   S60       1.0  0.92087  0.19647  0.78117  1.0000
  H   H227      1.0  0.84267  0.16104  0.77497  1.0000
  S   S61       1.0  0.50601  0.10225  0.95552  1.0000
  C   C148      1.0  0.87049  0.18646  0.73736  1.0000
  C   C149      1.0  0.83726  0.16853  0.74349  1.0000
  H   H228      1.0  0.65367  0.17125  0.74593  1.0000
  H   H229      1.0  0.69302  0.23869  0.75239  1.0000
  H   H230      1.0  0.88840  0.20971  0.69124  1.0000
  C   C150      1.0  0.67570  0.17680  0.72508  1.0000
  C   C151      1.0  0.55125  0.11680  0.74321  1.0000
  C   C152      1.0  0.54070  0.10431  0.77672  1.0000
  H   H231      1.0  0.57362  0.10779  0.72656  1.0000
  H   H232      1.0  0.55486  0.08554  0.78573  1.0000
  H   H233      1.0  0.73368  0.21267  0.77263  1.0000
  H   H234      1.0  0.69797  0.23079  0.67917  1.0000
  C   C153      1.0  0.53358  0.14119  0.73186  1.0000
  H   H235      1.0  0.61729  0.23228  0.69105  1.0000
  C   C154      1.0  0.69448  0.21792  0.75739  1.0000
  H   H236      1.0  0.71416  0.17053  0.74057  1.0000
  H   H237      1.0  0.74017  0.20574  0.70138  1.0000
  C   C155      1.0  0.86332  0.19586  0.69648  1.0000
  C   C156      1.0  0.70055  0.21040  0.68733  1.0000
  N   N15       1.0  0.67294  0.20422  0.71685  1.0000
  H   H238      1.0  0.68664  0.19959  0.65696  1.0000
  H   H239      1.0  0.60362  0.20163  0.66712  1.0000
  H   H240      1.0  0.57447  0.02683  0.73024  1.0000
  H   H241      1.0  0.77252  0.14591  0.71386  1.0000
  C   C157      1.0  0.79733  0.16002  0.70898  1.0000
  C   C158      1.0  0.51229  0.03788  0.55140  1.0000
  C   C159      1.0  0.50300  0.01919  0.65626  1.0000
  H   H242      1.0  0.53493  0.04819  0.99549  1.0000
  N   N16       1.0  0.51333  0.04281  0.68143  1.0000
  C   C160      1.0  0.56545  0.04314  0.70806  1.0000
  H   H243      1.0  0.59027  0.04222  0.68811  1.0000
  H   H244      1.0  0.50368  0.05730  0.55599  1.0000
  C   C161      1.0  0.50598  0.15310  0.75471  1.0000
  C   C162      1.0  0.50340  0.06469  0.65242  1.0000
  H   H245      1.0  0.52820  0.06469  0.63262  1.0000
  H   H246      1.0  0.50913  0.08286  0.67024  1.0000
  H   H247      1.0  0.99862  0.12027  0.77713  1.0000
  H   H248      1.0  0.78007  0.35097  0.19253  1.0000
  Fe  Fe31      1.0  0.58311  0.28913  0.26096  1.0000
  S   S62       1.0  0.55079  0.29598  0.31349  1.0000
  S   S63       1.0  0.65610  0.30565  0.25934  1.0000
  H   H249      1.0  0.82176  0.37761  0.30209  1.0000
  H   H250      1.0  0.85465  0.32795  0.23566  1.0000
  N   N17       1.0  0.83760  0.36661  0.24511  1.0000
  H   H251      1.0  0.86333  0.36370  0.19089  1.0000
  H   H252      1.0  0.76074  0.31100  0.29252  1.0000
  C   C163      1.0  0.74499  0.32519  0.30783  1.0000
  H   H253      1.0  0.76936  0.38274  0.20665  1.0000
  C   C164      1.0  0.69371  0.32659  0.29788  1.0000
  H   H254      1.0  0.76311  0.35692  0.23942  1.0000
  H   H255      1.0  0.72730  0.32205  0.40570  1.0000
  C   C165      1.0  0.85713  0.34160  0.26182  1.0000
  C   C166      1.0  0.86578  0.37649  0.21817  1.0000
  C   C167      1.0  0.84249  0.38420  0.28089  1.0000
  H   H256      1.0  0.85239  0.39542  0.20517  1.0000
  H   H257      1.0  0.89642  0.34279  0.28163  1.0000
  H   H258      1.0  0.82876  0.40337  0.26958  1.0000
  C   C168      1.0  0.78526  0.36421  0.21974  1.0000
  H   H259      1.0  0.88148  0.38619  0.30075  1.0000
  H   H260      1.0  0.83676  0.33349  0.28214  1.0000
  H   H261      1.0  0.90543  0.37854  0.23673  1.0000
  H   H262      1.0  0.63432  0.34603  0.31103  1.0000
  C   C169      1.0  0.67371  0.34467  0.31846  1.0000
  C   C170      1.0  0.77600  0.34167  0.33804  1.0000
  Fe  Fe32      1.0  0.95186  0.43227  0.43907  1.0000
  H   H263      1.0  0.75542  0.30846  0.45704  1.0000
  S   S64       1.0  0.95372  0.47425  0.45694  1.0000
  Fe  Fe33      1.0  0.87516  0.38898  0.41198  1.0000
  S   S65       1.0  0.93307  0.35981  0.41631  1.0000
  S   S66       1.0  0.79306  0.38144  0.39586  1.0000
  C   C171      1.0  0.68195  0.27968  0.36773  1.0000
  Fe  Fe34      1.0  0.97716  0.37948  0.47648  1.0000
  S   S67       1.0  0.91672  0.40660  0.47503  1.0000
  S   S68       1.0  0.90469  0.41703  0.37551  1.0000
  H   H264      1.0  0.64489  0.31365  0.40961  1.0000
  C   C172      1.0  0.65951  0.29597  0.42716  1.0000
  H   H265      1.0  0.67167  0.30039  0.46176  1.0000
  Fe  Fe35      1.0  0.96499  0.38858  0.38223  1.0000
  H   H266      1.0  0.71217  0.27416  0.35523  1.0000
  H   H267      1.0  0.66305  0.29617  0.34918  1.0000
  H   H268      1.0  0.68877  0.37566  0.36319  1.0000
  H   H269      1.0  0.77092  0.29710  0.41171  1.0000
  C   C173      1.0  0.70466  0.36150  0.34791  1.0000
  C   C174      1.0  0.74023  0.30400  0.42251  1.0000
  C   C175      1.0  0.75591  0.36020  0.35770  1.0000
  H   H270      1.0  0.81541  0.33997  0.34647  1.0000
  N   N18       1.0  0.69997  0.28538  0.41378  1.0000
  S   S69       1.0  0.50927  0.28973  0.20897  1.0000
  H   H271      1.0  0.62828  0.28254  0.42078  1.0000
  H   H272      1.0  0.65495  0.26400  0.36033  1.0000
  S   S70       1.0  0.98077  0.37143  0.32463  1.0000
  H   H273      1.0  0.73229  0.26550  0.47252  1.0000
  C   C176      1.0  0.71808  0.26194  0.43764  1.0000
  H   H274      1.0  0.99889  0.35278  0.24984  1.0000
  H   H275      1.0  0.91193  0.29858  0.56050  1.0000
  C   C177      1.0  0.94569  0.30884  0.57481  1.0000
  C   C178      1.0  0.97488  0.30305  0.61651  1.0000
  Fe  Fe36      1.0  0.99480  0.26422  0.71065  1.0000
  C   C179      1.0  0.95998  0.32767  0.55128  1.0000
  S   S71       1.0  0.95699  0.27776  0.64310  1.0000
  H   H276      1.0  0.94980  0.37178  0.88549  1.0000
  C   C180      1.0  0.98453  0.41922  0.89869  1.0000
  H   H277      1.0  0.94918  0.43276  0.56028  1.0000
  H   H278      1.0  0.96512  0.46361  0.54707  1.0000
  C   C181      1.0  0.97383  0.44913  0.57272  1.0000
  H   H279      1.0  0.94441  0.41829  0.89368  1.0000
  H   H280      1.0  0.96406  0.45723  0.59998  1.0000
  H   H281      1.0  0.98693  0.29996  0.96362  1.0000
  C   C182      1.0  0.98993  0.37396  0.89159  1.0000
  H   H282      1.0  0.93729  0.33188  0.51914  1.0000
  H   H283      1.0  0.99813  0.28714  0.89479  1.0000
  H   H284      1.0  0.96192  0.38986  0.95685  1.0000
  S   S72       1.0  0.96065  0.26767  0.76301  1.0000
  H   H285      1.0  0.99652  0.37545  0.86035  1.0000
  H   H286      1.0  0.98982  0.42239  0.86726  1.0000
  H   H287      1.0  0.99895  0.43614  0.91887  1.0000
  S   S73       1.0  0.97340  0.72599  0.16373  1.0000
  H   H288      1.0  0.94698  0.67045  0.04008  1.0000
  H   H289      1.0  0.89911  0.75095  0.18728  1.0000
  H   H290      1.0  0.97849  0.60451  0.45758  1.0000
  C   C183      1.0  0.99011  0.51642  0.50501  1.0000
  C   C184      1.0  0.97649  0.58463  0.44624  1.0000
  C   C185      1.0  0.83940  0.74815  0.10720  1.0000
  H   H291      1.0  0.95208  0.52051  0.50131  1.0000
  S   S74       1.0  0.98399  0.75255  0.26989  1.0000
  H   H292      1.0  0.87225  0.73574  0.11326  1.0000
  H   H293      1.0  0.82708  0.75305  0.07282  1.0000
  H   H294      1.0  0.81001  0.73679  0.11363  1.0000
  H   H295      1.0  0.93326  0.68555  0.10629  1.0000
  H   H296      1.0  0.93836  0.58119  0.42520  1.0000
  C   C186      1.0  0.98595  0.71577  0.11722  1.0000
  C   C187      1.0  0.96711  0.68657  0.05679  1.0000
  C   C188      1.0  0.95942  0.69518  0.09441  1.0000
  H   H297      1.0  0.94702  0.75389  0.37321  1.0000
  H   H298      1.0  0.98122  0.67612  0.38838  1.0000
  H   H299      1.0  0.83711  0.75347  0.18787  1.0000
  H   H300      1.0  0.98298  0.57241  0.47466  1.0000
  H   H301      1.0  0.97150  0.54840  0.38864  1.0000
  H   H302      1.0  0.96550  0.59330  0.36375  1.0000
  S   S75       1.0  0.98554  0.56457  0.01375  1.0000
  H   H303      1.0  0.98943  0.74769  0.44924  1.0000
  Fe  Fe37      1.0  0.59604  0.73466  0.76425  1.0000
  H   H304      1.0  0.87204  0.67792  0.92877  1.0000
  S   S76       1.0  0.66553  0.71679  0.75720  1.0000
  H   H305      1.0  0.84985  0.70293  0.86350  1.0000
  S   S77       1.0  0.92024  0.59265  0.89423  1.0000
  H   H306      1.0  0.79364  0.71271  0.87157  1.0000
  Fe  Fe38      1.0  0.97704  0.65323  0.95763  1.0000
  S   S78       1.0  0.92060  0.62979  0.97329  1.0000
  Fe  Fe39      1.0  0.96306  0.59574  0.96368  1.0000
  C   C189      1.0  0.83328  0.71734  0.87935  1.0000
  Fe  Fe40      1.0  0.88287  0.62907  0.90241  1.0000
  S   S79       1.0  0.80073  0.63699  0.88564  1.0000
  S   S80       1.0  0.52309  0.73386  0.71163  1.0000
  S   S81       1.0  0.93815  0.65407  0.88679  1.0000
  H   H307      1.0  0.59490  0.66602  0.82408  1.0000
  S   S82       1.0  0.56398  0.72214  0.81406  1.0000
  H   H308      1.0  0.64102  0.64576  0.78097  1.0000
  C   C190      1.0  0.56286  0.65393  0.80767  1.0000
  C   C191      1.0  0.91008  0.72472  0.93465  1.0000
  C   C192      1.0  0.55890  0.67037  0.73881  1.0000
  C   C193      1.0  0.70412  0.69555  0.79428  1.0000
  C   C194      1.0  0.69359  0.68792  0.83082  1.0000
  C   C195      1.0  0.72357  0.66999  0.85838  1.0000
  C   C196      1.0  0.76530  0.66007  0.85053  1.0000
  C   C197      1.0  0.77659  0.66815  0.81457  1.0000
  C   C198      1.0  0.74591  0.68567  0.78646  1.0000
  H   H309      1.0  0.66228  0.69578  0.83777  1.0000
  H   H310      1.0  0.71458  0.66389  0.88616  1.0000
  H   H311      1.0  0.80829  0.66048  0.80787  1.0000
  H   H312      1.0  0.75438  0.69144  0.75826  1.0000
  H   H313      1.0  0.87426  0.69191  0.97851  1.0000
  H   H314      1.0  0.92972  0.71067  0.92085  1.0000
  H   H315      1.0  0.61264  0.61629  0.78594  1.0000
  N   N19       1.0  0.85802  0.71777  0.92582  1.0000
  H   H316      1.0  0.81619  0.68661  0.93785  1.0000
  C   C199      1.0  0.60818  0.63370  0.76641  1.0000
  H   H317      1.0  0.91411  0.74347  0.92119  1.0000
  H   H318      1.0  0.83568  0.73590  0.86458  1.0000
  H   H319      1.0  0.98260  0.53194  0.94144  1.0000
  H   H320      1.0  0.58959  0.68350  0.75398  1.0000
  C   C200      1.0  0.85492  0.69253  0.94363  1.0000
  H   H321      1.0  0.79441  0.73170  0.93954  1.0000
  N   N20       1.0  0.56240  0.64720  0.76420  1.0000
  C   C201      1.0  0.83382  0.73645  0.94570  1.0000
  H   H322      1.0  0.56012  0.66624  0.70623  1.0000
  Fe  Fe41      1.0  0.97883  0.61790  0.88400  1.0000
  H   H323      1.0  0.92984  0.72547  0.96947  1.0000
  H   H324      1.0  0.83539  0.75572  0.93290  1.0000
  H   H325      1.0  0.56474  0.63689  0.82760  1.0000
  H   H326      1.0  0.60897  0.62821  0.73419  1.0000
  H   H327      1.0  0.52411  0.68063  0.73540  1.0000
  H   H328      1.0  0.85173  0.73720  0.98079  1.0000
  H   H329      1.0  0.52927  0.66463  0.80711  1.0000
  H   H330      1.0  0.52086  0.61322  0.76196  1.0000
  H   H331      1.0  0.51752  0.62589  0.71075  1.0000
  H   H332      1.0  0.99431  0.65104  0.79974  1.0000
  C   C202      1.0  0.51952  0.63099  0.74387  1.0000
  Fe  Fe42      1.0  0.60739  0.93180  0.09703  1.0000
  S   S83       1.0  0.53981  0.90857  0.08792  1.0000
  S   S84       1.0  0.60922  0.97284  0.07638  1.0000
  Fe  Fe43      1.0  0.67569  0.88533  0.12162  1.0000
  S   S85       1.0  0.61247  0.85868  0.11269  1.0000
  S   S86       1.0  0.75408  0.87331  0.12842  1.0000
  Fe  Fe44      1.0  0.57383  0.88081  0.05424  1.0000
  Fe  Fe45      1.0  0.58277  0.88811  0.14751  1.0000
  N   N21       1.0  0.99599  0.78086  0.41399  1.0000
  S   S87       1.0  0.63884  0.90515  0.05970  1.0000
  S   S88       1.0  0.64896  0.91375  0.16024  1.0000
  H   H333      1.0  0.61412  0.84893  0.48476  1.0000
  C   C203      1.0  0.55884  0.99294  0.05180  1.0000
  S   S89       1.0  0.91134  0.81172  0.27434  1.0000
  H   H334      1.0  0.92635  0.78222  0.42511  1.0000
  C   C204      1.0  0.53310  0.88455  0.23429  1.0000
  C   C205      1.0  0.55618  0.90722  0.25084  1.0000
  H   H335      1.0  0.90048  0.80244  0.14520  1.0000
  H   H336      1.0  0.57915  0.91664  0.23524  1.0000
  C   C206      1.0  0.79738  0.85697  0.17044  1.0000
  C   C207      1.0  0.84509  0.85343  0.16839  1.0000
  C   C208      1.0  0.88038  0.83979  0.20011  1.0000
  C   C209      1.0  0.86830  0.82953  0.23431  1.0000
  C   C210      1.0  0.82073  0.83323  0.23662  1.0000
  C   C211      1.0  0.78534  0.84683  0.20479  1.0000
  H   H337      1.0  0.85486  0.86140  0.14214  1.0000
  H   H338      1.0  0.91713  0.83757  0.19842  1.0000
  H   H339      1.0  0.81111  0.82547  0.26307  1.0000
  H   H340      1.0  0.74880  0.84945  0.20678  1.0000
  H   H341      1.0  0.87708  0.78031  0.20073  1.0000
  H   H342      1.0  0.53488  0.82285  0.05771  1.0000
  H   H343      1.0  0.59202  0.88039  0.48436  1.0000
  H   H344      1.0  0.66326  0.90525  0.44344  1.0000
  H   H345      1.0  0.65716  0.85781  0.39052  1.0000
  S   S90       1.0  0.54081  0.87042  0.18825  1.0000
  H   H346      1.0  0.92456  0.77352  0.13177  1.0000
  H   H347      1.0  0.79453  0.79391  0.09156  1.0000
  H   H348      1.0  0.88011  0.79119  0.09136  1.0000
  H   H349      1.0  0.96984  0.80558  0.45364  1.0000
  C   C212      1.0  0.54957  0.91774  0.28772  1.0000
  H   H350      1.0  0.56240  0.84348  0.41054  1.0000
  Fe  Fe46      1.0  0.98018  0.79475  0.26503  1.0000
  H   H351      1.0  0.54089  0.87534  0.40834  1.0000
  H   H352      1.0  0.50456  0.97105  0.06832  1.0000
  C   C213      1.0  0.95613  0.79506  0.42305  1.0000
  H   H353      1.0  0.65674  0.87479  0.49959  1.0000
  H   H354      1.0  0.50252  0.79338  0.05080  1.0000
  H   H355      1.0  0.81367  0.80410  0.14590  1.0000
  C   C214      1.0  0.80664  0.78712  0.12504  1.0000
  H   H356      1.0  0.62319  0.90139  0.38954  1.0000
  H   H357      1.0  0.59858  0.91075  0.43045  1.0000
  C   C215      1.0  0.62659  0.89838  0.42365  1.0000
  C   C216      1.0  0.65766  0.85600  0.42416  1.0000
  H   H358      1.0  0.56809  0.86468  0.36990  1.0000
  S   S91       1.0  0.51402  0.91981  0.35522  1.0000
  C   C217      1.0  0.57055  0.86328  0.40404  1.0000
  H   H359      1.0  0.69473  0.86172  0.44501  1.0000
  C   C218      1.0  0.51961  0.90586  0.30828  1.0000
  H   H360      1.0  0.65265  0.83568  0.43015  1.0000
  H   H361      1.0  0.53943  0.82336  0.13396  1.0000
  N   N22       1.0  0.61894  0.87161  0.43230  1.0000
  C   C219      1.0  0.62075  0.86880  0.47717  1.0000
  S   S92       1.0  0.51213  0.91810  0.46649  1.0000
  H   H362      1.0  0.93939  0.80903  0.39744  1.0000
  C   C220      1.0  0.89067  0.78516  0.12517  1.0000
  H   H363      1.0  0.77543  0.77689  0.13053  1.0000
  H   H364      1.0  0.56757  0.93531  0.30024  1.0000
  N   N23       1.0  0.85079  0.77102  0.13418  1.0000
  H   H365      1.0  0.95995  0.78114  0.34639  1.0000
  C   C221      1.0  0.51139  0.98780  0.05247  1.0000
  H   H366      1.0  0.50450  0.85944  0.08852  1.0000
  C   C222      1.0  0.97604  0.76765  0.37280  1.0000
  C   C223      1.0  0.86660  0.76360  0.17946  1.0000
  H   H367      1.0  0.50617  0.79414  0.12727  1.0000
  C   C224      1.0  0.50199  0.81496  0.12443  1.0000
  C   C225      1.0  0.50338  0.87254  0.25502  1.0000
  H   H368      1.0  0.60751  0.83273  0.01542  1.0000
  H   H369      1.0  0.57229  0.81094  0.58307  1.0000
  C   C226      1.0  0.51264  0.83500  0.92283  1.0000
  C   C227      1.0  0.53335  0.98724  0.53910  1.0000
  H   H370      1.0  0.55251  0.79225  0.64453  1.0000
  C   C228      1.0  0.53200  0.80831  0.62798  1.0000
  S   S93       1.0  0.53081  0.85224  0.52680  1.0000
  H   H371      1.0  0.53285  0.90038  0.92297  1.0000
  S   S94       1.0  0.52285  0.86622  0.99147  1.0000
  C   C229      1.0  0.54306  0.81893  0.59308  1.0000
  H   H372      1.0  0.50351  0.81003  0.86895  1.0000
  C   C230      1.0  0.51653  0.83973  0.57112  1.0000
  H   H373      1.0  0.58826  0.90456  0.96610  1.0000
  H   H374      1.0  0.60957  0.95851  0.94303  1.0000
  S   S95       1.0  0.58648  0.77492  0.89528  1.0000
  C   C231      1.0  0.56373  0.91373  0.93692  1.0000
  N   N24       1.0  0.54591  0.93847  0.94672  1.0000
  C   C232      1.0  0.56878  0.80109  0.92037  1.0000
  C   C233      1.0  0.59781  0.80764  0.96184  1.0000
  C   C234      1.0  0.58466  0.82787  0.98360  1.0000
  C   C235      1.0  0.54182  0.84151  0.96425  1.0000
  H   H375      1.0  0.60749  0.99654  0.57693  1.0000
  H   H376      1.0  0.61360  0.94771  0.99532  1.0000
  H   H377      1.0  0.63076  0.79699  0.97715  1.0000
  C   C236      1.0  0.58808  0.95547  0.96522  1.0000
  C   C237      1.0  0.52622  0.81497  0.90080  1.0000
  Fe  Fe47      1.0  0.55479  0.76340  0.82556  1.0000
  S   S96       1.0  0.59103  0.77604  0.77797  1.0000
  H   H378      1.0  0.54168  0.96771  0.53472  1.0000
  H   H379      1.0  0.58467  0.91553  0.91402  1.0000
  Fe  Fe48      1.0  0.51530  0.77425  0.72992  1.0000
  H   H380      1.0  0.53183  0.95242  0.88315  1.0000
  H   H381      1.0  0.57593  0.97424  0.97325  1.0000
  C   C238      1.0  0.51891  0.93503  0.97755  1.0000
  C   C239      1.0  0.57056  0.00364  0.56303  1.0000
  C   C240      1.0  0.51278  0.94967  0.90728  1.0000
  H   H382      1.0  0.50847  0.00229  0.67708  1.0000
  H   H383      1.0  0.54342  0.92766  0.00821  1.0000
  H   H384      1.0  0.50347  0.95315  0.98462  1.0000
