data_image0
_chemical_formula_structural       CHCH2CFeH4CHC2SHC2NCSH3C4SCSHCSC5H4CH6CH2CH2FeSFeS2FeS2H2CHC4SCHSNH2NFeSCH2CH3CH4CH2C2FeCHCH2C4H6FeSFeSFeCFeS3C5H6SH4CH2SC2SH4C5H3NH2CNH7CH3CH4CNHFeH2C2S2H4SCSC7H2C2H2FeSH2CH2C2H2C2HSHCHNC2H8CH2CHSFeSC6H5NSC2S2FeHFeCS2HFeHCH2FeSFeSFe2SHCH7S2CH2C2HCH3CH2CHNH4CHSFeHSFeSC7HFeH3SHFeH2SNH4CSHCH3SH2CH4C2HNH3C2HFeSFeHFeSH3SCFeSHNSCH3CH3CHSCFeSHSFeSFeSC6H5CH3C2H9NH2CSHC2HCH3CHCHC2SH4NH2SHC3HCHS3FeHSCHSCFeH2FeH5NHSFeSHFeSFeSC7H4CHNH4CH2CHCHCHSCHC8H4SHCH3CSHC2HSH2CSCH2NH3C2SCH2C2HCSHCH6CHCHS2CHCHCHFeC2HC2HCH3CH2CHFeHNCH5CHSC2HFeNC2HFe2SNH3SC2H2NH3CH2SH2CH2CH4CH2CHS2CHCH2SH2CSFe2H2C4HSH2SCNH3CFeSHSCH2CFeH2CH4NC2H4CSCH4CH2C2SC3HCHCHC2H2C3H2CFeHSH3NCSH2FeHC2HCH5C4H2CH4SH2S2HCH
_chemical_formula_sum              "C240 H384 Fe48 S96 N24"
_cell_length_a       29.1875
_cell_length_b       41.4598
_cell_length_c       25.9685
_cell_angle_alpha    90.1451
_cell_angle_beta     102.654
_cell_angle_gamma    89.9547

_space_group_name_H-M_alt    "P 1"
_space_group_IT_number       1

loop_
  _space_group_symop_operation_xyz
  'x, y, z'

loop_
  _atom_site_type_symbol
  _atom_site_label
  _atom_site_symmetry_multiplicity
  _atom_site_fract_x
  _atom_site_fract_y
  _atom_site_fract_z
  _atom_site_occupancy
  C   C1        1.0  0.28478  0.20973  0.18613  1.0000
  H   H1        1.0  0.46765  0.17261  0.08869  1.0000
  C   C2        1.0  0.43265  0.04381  0.49807  1.0000
  H   H2        1.0  0.04742  0.21549  0.19422  1.0000
  H   H3        1.0  0.34532  0.12629  0.08227  1.0000
  C   C3        1.0  0.05669  0.22548  0.07362  1.0000
  Fe  Fe1       1.0  0.47696  0.10947  0.24350  1.0000
  H   H4        1.0  0.31950  0.22143  0.18848  1.0000
  H   H5        1.0  0.31959  0.17439  0.02749  1.0000
  H   H6        1.0  0.07452  0.20976  0.36314  1.0000
  H   H7        1.0  0.07956  0.22614  0.11248  1.0000
  C   C4        1.0  0.20051  0.21659  0.16765  1.0000
  H   H8        1.0  0.11082  0.25645  0.20144  1.0000
  C   C5        1.0  0.05627  0.20989  0.27809  1.0000
  C   C6        1.0  0.00834  0.22206  0.06863  1.0000
  S   S1        1.0  0.47926  0.06932  0.30247  1.0000
  H   H9        1.0  0.28483  0.19912  0.22548  1.0000
  C   C7        1.0  0.11704  0.24399  0.33196  1.0000
  C   C8        1.0  0.06701  0.22307  0.23261  1.0000
  N   N1        1.0  0.24588  0.23300  0.17001  1.0000
  C   C9        1.0  0.08192  0.22020  0.32770  1.0000
  S   S2        1.0  0.34421  0.24229  0.04257  1.0000
  H   H10       1.0  0.44455  0.06067  0.42320  1.0000
  H   H11       1.0  0.19787  0.20696  0.20689  1.0000
  H   H12       1.0  0.13647  0.25166  0.37044  1.0000
  C   C10       1.0  0.25103  0.25967  0.20876  1.0000
  C   C11       1.0  0.10293  0.24633  0.23684  1.0000
  C   C12       1.0  0.45556  0.06231  0.46568  1.0000
  C   C13       1.0  0.12790  0.25710  0.28651  1.0000
  S   S3        1.0  0.00875  0.18264  0.27514  1.0000
  C   C14       1.0  0.34423  0.17710  0.06481  1.0000
  S   S4        1.0  0.13684  0.22468  0.03803  1.0000
  H   H13       1.0  0.40431  0.02784  0.48006  1.0000
  C   C15       1.0  0.24708  0.24608  0.11742  1.0000
  S   S5        1.0  0.41104  0.11682  0.17948  1.0000
  C   C16       1.0  0.39272  0.15239  0.14342  1.0000
  C   C17       1.0  0.35925  0.14975  0.09577  1.0000
  C   C18       1.0  0.36218  0.20754  0.08134  1.0000
  C   C19       1.0  0.39548  0.21032  0.12935  1.0000
  C   C20       1.0  0.41050  0.18285  0.16053  1.0000
  H   H14       1.0  0.05075  0.08620  0.04277  1.0000
  H   H15       1.0  0.40942  0.23382  0.14259  1.0000
  H   H16       1.0  0.43552  0.18518  0.19781  1.0000
  H   H17       1.0  0.28219  0.18950  0.15729  1.0000
  C   C21       1.0  0.07213  0.10515  0.02885  1.0000
  H   H18       1.0  0.17050  0.23346  0.15469  1.0000
  H   H19       1.0  0.21791  0.26349  0.10363  1.0000
  H   H20       1.0  0.25009  0.25070  0.24894  1.0000
  H   H21       1.0  0.24330  0.22658  0.08721  1.0000
  H   H22       1.0  0.08262  0.12277  0.06181  1.0000
  H   H23       1.0  0.19532  0.19624  0.13892  1.0000
  C   C22       1.0  0.07570  0.22669  0.02876  1.0000
  H   H24       1.0  0.02664  0.25846  0.38293  1.0000
  H   H25       1.0  0.28076  0.25871  0.11754  1.0000
  C   C23       1.0  0.49209  0.08321  0.48835  1.0000
  H   H26       1.0  0.99398  0.22065  0.10356  1.0000
  H   H27       1.0  0.01385  0.15610  0.02268  1.0000
  Fe  Fe2       1.0  0.17358  0.23244  0.97189  1.0000
  S   S6        1.0  0.47586  0.04543  0.74516  1.0000
  Fe  Fe3       1.0  0.21630  0.20508  0.88428  1.0000
  S   S7        1.0  0.26700  0.24615  0.88967  1.0000
  S   S8        1.0  0.21417  0.16585  0.82347  1.0000
  Fe  Fe4       1.0  0.27738  0.24021  0.97787  1.0000
  S   S9        1.0  0.23111  0.19679  0.97152  1.0000
  S   S10       1.0  0.15270  0.23603  0.88345  1.0000
  H   H28       1.0  0.24324  0.11860  0.75571  1.0000
  H   H29       1.0  0.06061  0.22729  0.94371  1.0000
  C   C24       1.0  0.35118  0.13981  0.86660  1.0000
  H   H30       1.0  0.10676  0.13420  0.95169  1.0000
  C   C25       1.0  0.27333  0.12451  0.78676  1.0000
  C   C26       1.0  0.26899  0.14765  0.82495  1.0000
  C   C27       1.0  0.35544  0.11631  0.82897  1.0000
  C   C28       1.0  0.31650  0.10891  0.78867  1.0000
  S   S11       1.0  0.41559  0.02182  0.59217  1.0000
  C   C29       1.0  0.99415  0.01657  0.01806  1.0000
  H   H31       1.0  0.05608  0.15919  0.92827  1.0000
  S   S12       1.0  0.40911  0.09549  0.83571  1.0000
  N   N2        1.0  0.28670  0.03422  0.88324  1.0000
  H   H32       1.0  0.08925  0.16323  0.99477  1.0000
  H   H33       1.0  0.11337  0.25672  0.70972  1.0000
  N   N3        1.0  0.04555  0.12104  0.98057  1.0000
  Fe  Fe5       1.0  0.42297  0.02020  0.68185  1.0000
  S   S13       1.0  0.36140  0.02965  0.72023  1.0000
  C   C30       1.0  0.04597  0.22615  0.97850  1.0000
  H   H34       1.0  0.25669  0.07020  0.92597  1.0000
  H   H35       1.0  0.30513  0.17320  0.89432  1.0000
  C   C31       1.0  0.30811  0.15540  0.86469  1.0000
  H   H36       1.0  0.35438  0.03973  0.93538  1.0000
  H   H37       1.0  0.33822  0.04786  0.83969  1.0000
  H   H38       1.0  0.06138  0.08421  0.92855  1.0000
  C   C32       1.0  0.07570  0.14542  0.96293  1.0000
  H   H39       1.0  0.01002  0.10787  0.90177  1.0000
  H   H40       1.0  0.20911  0.22550  0.74899  1.0000
  H   H41       1.0  0.30907  0.02522  0.96651  1.0000
  H   H42       1.0  0.28086  0.04010  0.79973  1.0000
  C   C33       1.0  0.99728  0.22220  0.97351  1.0000
  H   H43       1.0  0.31964  0.09119  0.75902  1.0000
  H   H44       1.0  0.24590  0.07656  0.85592  1.0000
  C   C34       1.0  0.44551  0.04613  0.55349  1.0000
  C   C35       1.0  0.19879  0.23368  0.70713  1.0000
  Fe  Fe6       1.0  0.41576  0.05153  0.78605  1.0000
  C   C36       1.0  0.03070  0.09671  0.93853  1.0000
  H   H45       1.0  0.38118  0.14570  0.89780  1.0000
  C   C37       1.0  0.48186  0.06717  0.57617  1.0000
  H   H46       1.0  0.16996  0.21756  0.68678  1.0000
  H   H47       1.0  0.30283  0.08455  0.89642  1.0000
  C   C38       1.0  0.00366  0.13699  0.99223  1.0000
  C   C39       1.0  0.30666  0.03229  0.83575  1.0000
  C   C40       1.0  0.27234  0.06780  0.89077  1.0000
  C   C41       1.0  0.32267  0.02401  0.92972  1.0000
  H   H48       1.0  0.00826  0.07784  0.95084  1.0000
  H   H49       1.0  0.22948  0.22968  0.68892  1.0000
  H   H50       1.0  0.14028  0.26324  0.62560  1.0000
  H   H51       1.0  0.49214  0.06932  0.61867  1.0000
  H   H52       1.0  0.21768  0.01973  0.84167  1.0000
  H   H53       1.0  0.10455  0.09340  0.02203  1.0000
  Fe  Fe7       1.0  0.19605  0.31919  0.36139  1.0000
  S   S14       1.0  0.14309  0.35408  0.38058  1.0000
  Fe  Fe8       1.0  0.27605  0.34733  0.44862  1.0000
  S   S15       1.0  0.22775  0.38313  0.47342  1.0000
  Fe  Fe9       1.0  0.17674  0.34204  0.46475  1.0000
  C   C42       1.0  0.39374  0.47679  0.10406  1.0000
  Fe  Fe10      1.0  0.19996  0.39144  0.38704  1.0000
  S   S16       1.0  0.19168  0.44375  0.36097  1.0000
  S   S17       1.0  0.22687  0.30510  0.44560  1.0000
  S   S18       1.0  0.25105  0.35764  0.36204  1.0000
  C   C43       1.0  0.00976  0.36067  0.46244  1.0000
  C   C44       1.0  0.28266  0.49211  0.29099  1.0000
  C   C45       1.0  0.24347  0.43026  0.28710  1.0000
  C   C46       1.0  0.22961  0.45381  0.31912  1.0000
  C   C47       1.0  0.24862  0.48498  0.32025  1.0000
  H   H54       1.0  0.38552  0.44974  0.33322  1.0000
  H   H55       1.0  0.22789  0.40653  0.28447  1.0000
  H   H56       1.0  0.30654  0.50120  0.07442  1.0000
  H   H57       1.0  0.36715  0.48219  0.36966  1.0000
  H   H58       1.0  0.28927  0.41848  0.23509  1.0000
  H   H59       1.0  0.38736  0.43773  0.49693  1.0000
  S   S19       1.0  0.35401  0.35067  0.48627  1.0000
  H   H60       1.0  0.07179  0.34635  0.43622  1.0000
  H   H61       1.0  0.13996  0.50728  0.32654  1.0000
  H   H62       1.0  0.40376  0.43699  0.02575  1.0000
  H   H63       1.0  0.32705  0.41405  0.36202  1.0000
  C   C48       1.0  0.05594  0.34920  0.46970  1.0000
  H   H64       1.0  0.40991  0.39774  0.37602  1.0000
  H   H65       1.0  0.12188  0.44186  0.44433  1.0000
  S   S20       1.0  0.17356  0.28587  0.29019  1.0000
  C   C49       1.0  0.11869  0.46191  0.47206  1.0000
  C   C50       1.0  0.27786  0.43721  0.25857  1.0000
  S   S21       1.0  0.34513  0.47413  0.22971  1.0000
  H   H66       1.0  0.00417  0.31555  0.36583  1.0000
  H   H67       1.0  0.28466  0.27285  0.21155  1.0000
  H   H68       1.0  0.31015  0.44671  0.39962  1.0000
  H   H69       1.0  0.23842  0.50323  0.34530  1.0000
  C   C51       1.0  0.39167  0.46136  0.37284  1.0000
  C   C52       1.0  0.32369  0.49359  0.04204  1.0000
  C   C53       1.0  0.39405  0.45429  0.46570  1.0000
  C   C54       1.0  0.33092  0.43889  0.07446  1.0000
  C   C55       1.0  0.29806  0.46794  0.26097  1.0000
  H   H70       1.0  0.32877  0.40914  0.43090  1.0000
  H   H71       1.0  0.35470  0.41800  0.08702  1.0000
  H   H72       1.0  0.02184  0.28032  0.29399  1.0000
  N   N4        1.0  0.38453  0.43822  0.41357  1.0000
  H   H73       1.0  0.41353  0.49785  0.09402  1.0000
  H   H74       1.0  0.42807  0.47112  0.38145  1.0000
  C   C56       1.0  0.33551  0.42656  0.40090  1.0000
  N   N5        1.0  0.35664  0.46656  0.05867  1.0000
  H   H75       1.0  0.37861  0.48418  0.13796  1.0000
  H   H76       1.0  0.37097  0.47569  0.46558  1.0000
  H   H77       1.0  0.31490  0.44532  0.10840  1.0000
  H   H78       1.0  0.41233  0.39259  0.44483  1.0000
  H   H79       1.0  0.45412  0.41841  0.42391  1.0000
  H   H80       1.0  0.04279  0.42380  0.45130  1.0000
  H   H81       1.0  0.41942  0.45714  0.11786  1.0000
  C   C57       1.0  0.41676  0.41059  0.41467  1.0000
  H   H82       1.0  0.10360  0.48303  0.44781  1.0000
  H   H83       1.0  0.43115  0.46252  0.47752  1.0000
  H   H84       1.0  0.15495  0.46834  0.49328  1.0000
  C   C58       1.0  0.04165  0.44397  0.47932  1.0000
  H   H85       1.0  0.02409  0.46480  0.45608  1.0000
  H   H86       1.0  0.11548  0.40391  0.51436  1.0000
  H   H87       1.0  0.22188  0.27748  0.19790  1.0000
  H   H88       1.0  0.30217  0.43068  0.04143  1.0000
  C   C59       1.0  0.08165  0.34201  0.52045  1.0000
  N   N6        1.0  0.08926  0.45252  0.50926  1.0000
  H   H89       1.0  0.01865  0.43613  0.50603  1.0000
  Fe  Fe11      1.0  0.47899  0.45396  0.73608  1.0000
  H   H90       1.0  0.30201  0.36851  0.56533  1.0000
  H   H91       1.0  0.07843  0.39340  0.72662  1.0000
  C   C60       1.0  0.48842  0.35149  0.70871  1.0000
  C   C61       1.0  0.42778  0.40399  0.60869  1.0000
  S   S22       1.0  0.22025  0.27589  0.98195  1.0000
  S   S23       1.0  0.19083  0.32116  0.83981  1.0000
  H   H92       1.0  0.46127  0.35052  0.67122  1.0000
  H   H93       1.0  0.48492  0.37541  0.72712  1.0000
  H   H94       1.0  0.08030  0.33976  0.60303  1.0000
  H   H95       1.0  0.15617  0.36718  0.75797  1.0000
  S   S24       1.0  0.00062  0.42820  0.62182  1.0000
  C   C62       1.0  0.39509  0.40909  0.64005  1.0000
  S   S25       1.0  0.14106  0.33130  0.53144  1.0000
  C   C63       1.0  0.14364  0.27200  0.72892  1.0000
  C   C64       1.0  0.04621  0.36915  0.78275  1.0000
  C   C65       1.0  0.05329  0.34662  0.82416  1.0000
  C   C66       1.0  0.09703  0.33121  0.84128  1.0000
  C   C67       1.0  0.13451  0.33877  0.81791  1.0000
  C   C68       1.0  0.12737  0.36112  0.77623  1.0000
  C   C69       1.0  0.08331  0.37601  0.75832  1.0000
  H   H96       1.0  0.02488  0.34115  0.84336  1.0000
  H   H97       1.0  0.10203  0.31408  0.87339  1.0000
  C   C70       1.0  0.17025  0.27779  0.64772  1.0000
  C   C71       1.0  0.06062  0.34534  0.56368  1.0000
  H   H98       1.0  0.06322  0.47375  0.57302  1.0000
  H   H99       1.0  0.19974  0.27505  0.62717  1.0000
  Fe  Fe12      1.0  0.20406  0.27710  0.89327  1.0000
  S   S26       1.0  0.47866  0.49930  0.78390  1.0000
  H   H100      1.0  0.15309  0.26540  0.77149  1.0000
  H   H101      1.0  0.46254  0.41421  0.62058  1.0000
  C   C72       1.0  0.01466  0.35711  0.55648  1.0000
  H   H102      1.0  0.39775  0.47759  0.00168  1.0000
  H   H103      1.0  0.32433  0.40003  0.64808  1.0000
  C   C73       1.0  0.41541  0.38527  0.56231  1.0000
  C   C74       1.0  0.34973  0.39631  0.62387  1.0000
  H   H104      1.0  0.29547  0.48693  0.00742  1.0000
  H   H105      1.0  0.14588  0.43022  0.56512  1.0000
  C   C75       1.0  0.08606  0.47976  0.54518  1.0000
  C   C76       1.0  0.22350  0.28823  0.73122  1.0000
  H   H106      1.0  0.21307  0.31410  0.73131  1.0000
  S   S27       1.0  0.40950  0.43009  0.70066  1.0000
  H   H107      1.0  0.47925  0.33274  0.73533  1.0000
  C   C77       1.0  0.33694  0.37853  0.57681  1.0000
  H   H108      1.0  0.44112  0.38075  0.53886  1.0000
  N   N7        1.0  0.18404  0.26790  0.70369  1.0000
  C   C78       1.0  0.36964  0.37288  0.54579  1.0000
  C   C79       1.0  0.11063  0.42439  0.54041  1.0000
  H   H109      1.0  0.12112  0.48653  0.56932  1.0000
  H   H110      1.0  0.13138  0.29749  0.72680  1.0000
  H   H111      1.0  0.23557  0.28094  0.77328  1.0000
  H   H112      1.0  0.15926  0.30359  0.64392  1.0000
  H   H113      1.0  0.35132  0.44910  0.97946  1.0000
  H   H114      1.0  0.08836  0.41561  0.56725  1.0000
  H   H115      1.0  0.99875  0.35999  0.59013  1.0000
  H   H116      1.0  0.25416  0.28653  0.71238  1.0000
  C   C80       1.0  0.37826  0.45708  0.01444  1.0000
  H   H117      1.0  0.07083  0.50160  0.52299  1.0000
  H   H118      1.0  0.46621  0.63105  0.51261  1.0000
  C   C81       1.0  0.13466  0.52624  0.29546  1.0000
  H   H119      1.0  0.06169  0.55916  0.31945  1.0000
  S   S28       1.0  0.06143  0.65392  0.42313  1.0000
  Fe  Fe13      1.0  0.09431  0.66886  0.35647  1.0000
  S   S29       1.0  0.17203  0.65742  0.37454  1.0000
  C   C82       1.0  0.25411  0.63618  0.24677  1.0000
  C   C83       1.0  0.21023  0.65157  0.23337  1.0000
  C   C84       1.0  0.18465  0.65832  0.27214  1.0000
  C   C85       1.0  0.20319  0.65003  0.32472  1.0000
  C   C86       1.0  0.24706  0.63466  0.33815  1.0000
  C   C87       1.0  0.27227  0.62744  0.29923  1.0000
  H   H120      1.0  0.19615  0.65847  0.19283  1.0000
  H   H121      1.0  0.15093  0.67024  0.26148  1.0000
  H   H122      1.0  0.26166  0.62837  0.37885  1.0000
  H   H123      1.0  0.30624  0.61588  0.30994  1.0000
  H   H124      1.0  0.12831  0.60793  0.29180  1.0000
  N   N8        1.0  0.13537  0.55895  0.31843  1.0000
  S   S30       1.0  0.28547  0.62897  0.19710  1.0000
  C   C88       1.0  0.12940  0.58315  0.27578  1.0000
  C   C89       1.0  0.00344  0.58376  0.48176  1.0000
  S   S31       1.0  0.33776  0.55377  0.15381  1.0000
  S   S32       1.0  0.05666  0.71676  0.34512  1.0000
  Fe  Fe14      1.0  0.01828  0.69881  0.40549  1.0000
  H   H125      1.0  0.21062  0.56359  0.33545  1.0000
  Fe  Fe15      1.0  0.00060  0.68995  0.28763  1.0000
  C   C90       1.0  0.09669  0.56227  0.34660  1.0000
  S   S33       1.0  0.41494  0.56294  0.05438  1.0000
  S   S34       1.0  0.04118  0.64311  0.29449  1.0000
  H   H126      1.0  0.09672  0.58660  0.36504  1.0000
  Fe  Fe16      1.0  0.00612  0.63083  0.36103  1.0000
  H   H127      1.0  0.18178  0.58841  0.37521  1.0000
  C   C91       1.0  0.18078  0.56434  0.35584  1.0000
  H   H128      1.0  0.15895  0.58245  0.25492  1.0000
  H   H129      1.0  0.09945  0.54418  0.37865  1.0000
  Fe  Fe17      1.0  0.40995  0.56398  0.14112  1.0000
  S   S35       1.0  0.44437  0.53160  0.20736  1.0000
  Fe  Fe18      1.0  0.37251  0.52462  0.22351  1.0000
  S   S36       1.0  0.37845  0.56544  0.28152  1.0000
  Fe  Fe19      1.0  0.44801  0.57549  0.25995  1.0000
  Fe  Fe20      1.0  0.34833  0.59556  0.20993  1.0000
  S   S37       1.0  0.41829  0.60868  0.19207  1.0000
  H   H130      1.0  0.18730  0.54588  0.38760  1.0000
  C   C92       1.0  0.48787  0.52040  0.05003  1.0000
  H   H131      1.0  0.01542  0.60797  0.47719  1.0000
  H   H132      1.0  0.29807  0.51594  0.29296  1.0000
  H   H133      1.0  0.09606  0.57946  0.24601  1.0000
  H   H134      1.0  0.47557  0.64130  0.34317  1.0000
  H   H135      1.0  0.10062  0.52120  0.26762  1.0000
  H   H136      1.0  0.16301  0.52322  0.27324  1.0000
  H   H137      1.0  0.34208  0.51513  0.03079  1.0000
  S   S38       1.0  0.99557  0.72891  0.46776  1.0000
  S   S39       1.0  0.99769  0.52451  0.60441  1.0000
  C   C93       1.0  0.43857  0.53663  0.96679  1.0000
  H   H138      1.0  0.40897  0.55022  0.94496  1.0000
  H   H139      1.0  0.02151  0.58580  0.56681  1.0000
  C   C94       1.0  0.46513  0.51742  0.93930  1.0000
  C   C95       1.0  0.44977  0.53827  0.02222  1.0000
  H   H140      1.0  0.02115  0.72412  0.70251  1.0000
  C   C96       1.0  0.00673  0.57115  0.53268  1.0000
  H   H141      1.0  0.45568  0.51619  0.89668  1.0000
  H   H142      1.0  0.48115  0.58332  0.57423  1.0000
  H   H143      1.0  0.03511  0.85291  0.14230  1.0000
  C   C97       1.0  0.00976  0.83695  0.11566  1.0000
  H   H144      1.0  0.05827  0.76482  0.16024  1.0000
  H   H145      1.0  0.02256  0.00651  0.04757  1.0000
  C   C98       1.0  0.05726  0.78984  0.14431  1.0000
  H   H146      1.0  0.01980  0.82137  0.21722  1.0000
  N   N9        1.0  0.00978  0.80399  0.13732  1.0000
  H   H147      1.0  0.08375  0.80430  0.17235  1.0000
  H   H148      1.0  0.01967  0.83685  0.07654  1.0000
  H   H149      1.0  0.49041  0.00781  0.41402  1.0000
  H   H150      1.0  0.06874  0.78862  0.10617  1.0000
  C   C99       1.0  0.99618  0.80527  0.18891  1.0000
  H   H151      1.0  0.99800  0.78094  0.20735  1.0000
  S   S40       1.0  0.04225  0.88222  0.80487  1.0000
  Fe  Fe21      1.0  0.48653  0.99735  0.78638  1.0000
  H   H152      1.0  0.05755  0.88193  0.66380  1.0000
  S   S41       1.0  0.04511  0.94336  0.88781  1.0000
  Fe  Fe22      1.0  0.06246  0.93490  0.80850  1.0000
  S   S42       1.0  0.11672  0.96237  0.77454  1.0000
  C   C100      1.0  0.46190  0.90859  0.81420  1.0000
  C   C101      1.0  0.27392  0.94789  0.78047  1.0000
  C   C102      1.0  0.24896  0.97331  0.75204  1.0000
  C   C103      1.0  0.20075  0.97703  0.75033  1.0000
  C   C104      1.0  0.17697  0.95548  0.77702  1.0000
  C   C105      1.0  0.20170  0.92980  0.80495  1.0000
  C   C106      1.0  0.25001  0.92599  0.80650  1.0000
  H   H153      1.0  0.42506  0.91183  0.79164  1.0000
  Fe  Fe23      1.0  0.01748  0.89235  0.87975  1.0000
  H   H154      1.0  0.18376  0.91301  0.82559  1.0000
  H   H155      1.0  0.26903  0.90617  0.82844  1.0000
  H   H156      1.0  0.05923  0.89427  0.57054  1.0000
  S   S43       1.0  0.43787  0.97146  0.72017  1.0000
  H   H157      1.0  0.42336  0.85453  0.76761  1.0000
  Fe  Fe24      1.0  0.38085  0.98294  0.76329  1.0000
  H   H158      1.0  0.10648  0.92230  0.59258  1.0000
  H   H159      1.0  0.45211  0.89527  0.71150  1.0000
  S   S44       1.0  0.01494  0.85869  0.94709  1.0000
  N   N10       1.0  0.04702  0.92888  0.62780  1.0000
  H   H160      1.0  0.26678  0.99004  0.73118  1.0000
  H   H161      1.0  0.10519  0.91002  0.68571  1.0000
  H   H162      1.0  0.99765  0.92436  0.96844  1.0000
  H   H163      1.0  0.18184  0.99691  0.72842  1.0000
  C   C107      1.0  0.06752  0.91978  0.58260  1.0000
  S   S45       1.0  0.33502  0.94315  0.78533  1.0000
  H   H164      1.0  0.04369  0.97053  0.67644  1.0000
  C   C108      1.0  0.06630  0.90772  0.67308  1.0000
  H   H165      1.0  0.05378  0.93528  0.54767  1.0000
  H   H166      1.0  0.47998  0.93216  0.81385  1.0000
  H   H167      1.0  0.09762  0.96633  0.65517  1.0000
  S   S46       1.0  0.43091  0.00546  0.83200  1.0000
  H   H168      1.0  0.04546  0.97955  0.60929  1.0000
  H   H169      1.0  0.05173  0.91416  0.70778  1.0000
  C   C109      1.0  0.05891  0.96282  0.64258  1.0000
  H   H170      1.0  0.33434  0.99878  0.92510  1.0000
  H   H171      1.0  0.46052  0.90323  0.85580  1.0000
  H   H172      1.0  0.00405  0.98330  0.95751  1.0000
  H   H173      1.0  0.47713  0.83224  0.77327  1.0000
  C   C110      1.0  0.48799  0.89164  0.73645  1.0000
  C   C111      1.0  0.46014  0.85225  0.79087  1.0000
  H   H174      1.0  0.45837  0.84495  0.83165  1.0000
  N   N11       1.0  0.48616  0.88284  0.79112  1.0000
  H   H175      1.0  0.25499  0.98721  0.87066  1.0000
  H   H176      1.0  0.31787  0.00730  0.82888  1.0000
  H   H177      1.0  0.22935  0.01346  0.91173  1.0000
  C   C112      1.0  0.24539  0.01274  0.87663  1.0000
  C   C113      1.0  0.99540  0.92519  0.61313  1.0000
  H   H178      1.0  0.99559  0.77208  0.64430  1.0000
  Fe  Fe25      1.0  0.58069  0.12440  0.28050  1.0000
  S   S47       1.0  0.54097  0.09211  0.21681  1.0000
  Fe  Fe26      1.0  0.52376  0.10245  0.36145  1.0000
  H   H179      1.0  0.57855  0.03715  0.10329  1.0000
  Fe  Fe27      1.0  0.54707  0.05544  0.28111  1.0000
  S   S48       1.0  0.59213  0.08616  0.34299  1.0000
  H   H180      1.0  0.54810  0.19787  0.04546  1.0000
  H   H181      1.0  0.97417  0.25100  0.40635  1.0000
  H   H182      1.0  0.51237  0.22120  0.07991  1.0000
  S   S49       1.0  0.52398  0.10592  0.44962  1.0000
  C   C114      1.0  0.53712  0.19007  0.17243  1.0000
  Fe  Fe28      1.0  0.96432  0.16188  0.19882  1.0000
  S   S50       1.0  0.63618  0.15864  0.26367  1.0000
  H   H183      1.0  0.84989  0.01753  0.23444  1.0000
  N   N12       1.0  0.54182  0.17818  0.12011  1.0000
  S   S51       1.0  0.98363  0.05885  0.09590  1.0000
  C   C115      1.0  0.58509  0.15867  0.12623  1.0000
  H   H184      1.0  0.56855  0.20416  0.19237  1.0000
  H   H185      1.0  0.93617  0.03994  0.19253  1.0000
  H   H186      1.0  0.57523  0.22159  0.10205  1.0000
  C   C116      1.0  0.54454  0.20595  0.08532  1.0000
  H   H187      1.0  0.58444  0.13774  0.15277  1.0000
  H   H188      1.0  0.53360  0.16976  0.19925  1.0000
  H   H189      1.0  0.59007  0.14923  0.08771  1.0000
  C   C117      1.0  0.86086  0.04015  0.11189  1.0000
  H   H190      1.0  0.87578  0.06452  0.12226  1.0000
  S   S52       1.0  0.51614  0.14422  0.30401  1.0000
  C   C118      1.0  0.84570  0.03319  0.19897  1.0000
  Fe  Fe29      1.0  0.95294  0.10573  0.11834  1.0000
  S   S53       1.0  0.88591  0.12562  0.07113  1.0000
  H   H191      1.0  0.80725  0.03630  0.18324  1.0000
  S   S54       1.0  0.89595  0.18489  0.15750  1.0000
  Fe  Fe30      1.0  0.86635  0.13426  0.14915  1.0000
  S   S55       1.0  0.79833  0.10894  0.15451  1.0000
  Fe  Fe31      1.0  0.92198  0.17347  0.08401  1.0000
  S   S56       1.0  0.93266  0.11211  0.19635  1.0000
  C   C119      1.0  0.50058  0.15815  0.09655  1.0000
  C   C120      1.0  0.68204  0.11260  0.21615  1.0000
  C   C121      1.0  0.71800  0.10224  0.19166  1.0000
  C   C122      1.0  0.75470  0.12315  0.18672  1.0000
  C   C123      1.0  0.75503  0.15464  0.20621  1.0000
  C   C124      1.0  0.71873  0.16512  0.23020  1.0000
  H   H192      1.0  0.65415  0.09624  0.21994  1.0000
  H   H193      1.0  0.71756  0.07784  0.17672  1.0000
  H   H194      1.0  0.78299  0.17095  0.20241  1.0000
  H   H195      1.0  0.71901  0.18958  0.24490  1.0000
  H   H196      1.0  0.82274  0.04348  0.09470  1.0000
  C   C125      1.0  0.68224  0.14414  0.23545  1.0000
  H   H197      1.0  0.71848  0.03178  0.24400  1.0000
  H   H198      1.0  0.97925  0.25092  0.26374  1.0000
  H   H199      1.0  0.61685  0.17306  0.14421  1.0000
  C   C126      1.0  0.96822  0.04263  0.03124  1.0000
  C   C127      1.0  0.65074  0.01938  0.25874  1.0000
  H   H200      1.0  0.65745  0.04012  0.08187  1.0000
  H   H201      1.0  0.64267  0.04381  0.26849  1.0000
  H   H202      1.0  0.86018  0.05742  0.21200  1.0000
  H   H203      1.0  0.90948  0.24044  0.29859  1.0000
  H   H204      1.0  0.61159  0.04022  0.43209  1.0000
  H   H205      1.0  0.49560  0.13804  0.12319  1.0000
  H   H206      1.0  0.50580  0.20583  0.16931  1.0000
  H   H207      1.0  0.52510  0.04229  0.40564  1.0000
  H   H208      1.0  0.50397  0.14742  0.05825  1.0000
  N   N13       1.0  0.86880  0.01910  0.15882  1.0000
  H   H209      1.0  0.87775  0.03022  0.08071  1.0000
  H   H210      1.0  0.56645  0.03876  0.50030  1.0000
  C   C128      1.0  0.98888  0.25181  0.37030  1.0000
  S   S57       1.0  0.99144  0.15283  0.12578  1.0000
  H   H211      1.0  0.98718  0.22688  0.35380  1.0000
  C   C129      1.0  0.91980  0.01605  0.18079  1.0000
  C   C130      1.0  0.52413  0.01550  0.40451  1.0000
  H   H212      1.0  0.91103  0.07530  0.00219  1.0000
  C   C131      1.0  0.92079  0.04186  0.94153  1.0000
  H   H213      1.0  0.98196  0.14886  0.95672  1.0000
  H   H214      1.0  0.53298  0.10174  0.56181  1.0000
  H   H215      1.0  0.97436  0.21997  0.93483  1.0000
  C   C132      1.0  0.93140  0.05527  0.99271  1.0000
  H   H216      1.0  0.89227  0.05177  0.91199  1.0000
  C   C133      1.0  0.50492  0.08557  0.54376  1.0000
  H   H217      1.0  0.98076  0.11955  0.00734  1.0000
  C   C134      1.0  0.97880  0.21904  0.01879  1.0000
  C   C135      1.0  0.94693  0.01583  0.92834  1.0000
  S   S58       1.0  0.92112  0.20569  0.01416  1.0000
  H   H218      1.0  0.58689  0.02881  0.01047  1.0000
  H   H219      1.0  0.96015  0.49684  0.49995  1.0000
  H   H220      1.0  0.89270  0.28186  0.28594  1.0000
  H   H221      1.0  0.96631  0.29297  0.25428  1.0000
  N   N14       1.0  0.96310  0.27488  0.33112  1.0000
  H   H222      1.0  0.95243  0.30840  0.39090  1.0000
  H   H223      1.0  0.54484  0.48828  0.04428  1.0000
  S   S59       1.0  0.93449  0.38380  0.49751  1.0000
  H   H224      1.0  0.94734  0.32565  0.32648  1.0000
  C   C136      1.0  0.96686  0.30756  0.35456  1.0000
  C   C137      1.0  0.98951  0.36530  0.50598  1.0000
  C   C138      1.0  0.98352  0.27485  0.28378  1.0000
  H   H225      1.0  0.99041  0.36729  0.42345  1.0000
  C   C139      1.0  0.91320  0.26521  0.31592  1.0000
  H   H226      1.0  0.89651  0.26514  0.35060  1.0000
  S   S60       1.0  0.59454  0.49448  0.81109  1.0000
  S   S61       1.0  0.53090  0.42915  0.80032  1.0000
  S   S62       1.0  0.54127  0.47813  0.93412  1.0000
  Fe  Fe32      1.0  0.58555  0.44984  0.76058  1.0000
  H   H227      1.0  0.57042  0.36948  0.77198  1.0000
  S   S63       1.0  0.53297  0.47168  0.69320  1.0000
  C   C140      1.0  0.84631  0.45246  0.79614  1.0000
  H   H228      1.0  0.80857  0.44562  0.78437  1.0000
  S   S64       1.0  0.64319  0.41619  0.74661  1.0000
  C   C141      1.0  0.57070  0.34630  0.75042  1.0000
  Fe  Fe33      1.0  0.53485  0.47597  0.84501  1.0000
  H   H229      1.0  0.56340  0.32665  0.77659  1.0000
  H   H230      1.0  0.72512  0.50175  0.67147  1.0000
  Fe  Fe34      1.0  0.96542  0.41689  0.68850  1.0000
  H   H231      1.0  0.57353  0.31100  0.66421  1.0000
  H   H232      1.0  0.85648  0.46227  0.76031  1.0000
  H   H233      1.0  0.93894  0.44493  0.80146  1.0000
  H   H234      1.0  0.52349  0.37326  0.62674  1.0000
  H   H235      1.0  0.82237  0.40316  0.85191  1.0000
  N   N15       1.0  0.53617  0.34656  0.69940  1.0000
  H   H236      1.0  0.72290  0.38601  0.71743  1.0000
  S   S65       1.0  0.89852  0.39776  0.63689  1.0000
  Fe  Fe35      1.0  0.96523  0.47657  0.61768  1.0000
  S   S66       1.0  0.89926  0.46138  0.56213  1.0000
  H   H237      1.0  0.88391  0.40883  0.74172  1.0000
  Fe  Fe36      1.0  0.87271  0.44896  0.63459  1.0000
  S   S67       1.0  0.80544  0.47297  0.64467  1.0000
  Fe  Fe37      1.0  0.93205  0.41227  0.57044  1.0000
  S   S68       1.0  0.93720  0.46734  0.69029  1.0000
  C   C142      1.0  0.68802  0.43187  0.71766  1.0000
  C   C143      1.0  0.68881  0.46447  0.70441  1.0000
  C   C144      1.0  0.72483  0.47647  0.68163  1.0000
  C   C145      1.0  0.76043  0.45608  0.67190  1.0000
  C   C146      1.0  0.75953  0.42336  0.68465  1.0000
  C   C147      1.0  0.72351  0.41133  0.70770  1.0000
  C   C148      1.0  0.85958  0.41133  0.86356  1.0000
  H   H238      1.0  0.66163  0.48047  0.71166  1.0000
  H   H239      1.0  0.78627  0.40734  0.67631  1.0000
  H   H240      1.0  0.92953  0.45411  0.86603  1.0000
  H   H241      1.0  0.88117  0.39019  0.88070  1.0000
  C   C149      1.0  0.92534  0.43510  0.83508  1.0000
  H   H242      1.0  0.86176  0.42967  0.89539  1.0000
  N   N16       1.0  0.87592  0.42461  0.81795  1.0000
  H   H243      1.0  0.94876  0.41456  0.85125  1.0000
  H   H244      1.0  0.84917  0.47243  0.82534  1.0000
  H   H245      1.0  0.83591  0.39042  0.76362  1.0000
  H   H246      1.0  0.89552  0.37839  0.79139  1.0000
  C   C150      1.0  0.87250  0.39942  0.77693  1.0000
  H   H247      1.0  0.58423  0.37088  0.66041  1.0000
  H   H248      1.0  0.54521  0.39695  0.68510  1.0000
  C   C151      1.0  0.54766  0.37302  0.66631  1.0000
  H   H249      1.0  0.60719  0.34310  0.74476  1.0000
  C   C152      1.0  0.50392  0.50013  0.96699  1.0000
  H   H250      1.0  0.51231  0.31477  0.63339  1.0000
  C   C153      1.0  0.53803  0.31542  0.67206  1.0000
  H   H251      1.0  0.52963  0.29489  0.69598  1.0000
  S   S69       1.0  0.99130  0.38925  0.76491  1.0000
  C   C154      1.0  0.51486  0.50151  0.02247  1.0000
  H   H252      1.0  0.75513  0.67940  0.33441  1.0000
  C   C155      1.0  0.94687  0.67388  0.47374  1.0000
  C   C156      1.0  0.94921  0.70707  0.48316  1.0000
  C   C157      1.0  0.54009  0.61427  0.35806  1.0000
  C   C158      1.0  0.82651  0.69393  0.28727  1.0000
  C   C159      1.0  0.53014  0.66556  0.40018  1.0000
  C   C160      1.0  0.57674  0.66443  0.42962  1.0000
  C   C161      1.0  0.60536  0.63870  0.42149  1.0000
  C   C162      1.0  0.58710  0.61376  0.38606  1.0000
  H   H253      1.0  0.84262  0.71753  0.51437  1.0000
  H   H254      1.0  0.81040  0.66829  0.37625  1.0000
  H   H255      1.0  0.74859  0.72971  0.28172  1.0000
  H   H256      1.0  0.60933  0.59362  0.38099  1.0000
  S   S70       1.0  0.59662  0.69385  0.47941  1.0000
  H   H257      1.0  0.95478  0.51898  0.40993  1.0000
  C   C163      1.0  0.90672  0.65660  0.47731  1.0000
  H   H258      1.0  0.85071  0.67360  0.30226  1.0000
  H   H259      1.0  0.64141  0.63767  0.44294  1.0000
  H   H260      1.0  0.90458  0.63111  0.46786  1.0000
  C   C164      1.0  0.96932  0.53362  0.44417  1.0000
  S   S71       1.0  0.96414  0.71225  0.20936  1.0000
  H   H261      1.0  0.55459  0.56687  0.50995  1.0000
  C   C165      1.0  0.78090  0.73847  0.30936  1.0000
  C   C166      1.0  0.85466  0.72428  0.36733  1.0000
  H   H262      1.0  0.84537  0.73815  0.40032  1.0000
  S   S72       1.0  0.95992  0.67477  0.34724  1.0000
  H   H263      1.0  0.54186  0.60073  0.46648  1.0000
  H   H264      1.0  0.51537  0.65256  0.49863  1.0000
  C   C167      1.0  0.91218  0.72278  0.49929  1.0000
  S   S73       1.0  0.81765  0.65078  0.48983  1.0000
  C   C168      1.0  0.53106  0.58811  0.49957  1.0000
  H   H265      1.0  0.84508  0.71006  0.26431  1.0000
  H   H266      1.0  0.84524  0.58116  0.50138  1.0000
  N   N17       1.0  0.81241  0.71149  0.33097  1.0000
  H   H267      1.0  0.77772  0.70136  0.39435  1.0000
  H   H268      1.0  0.97555  0.66155  0.46204  1.0000
  H   H269      1.0  0.87870  0.70448  0.38502  1.0000
  C   C169      1.0  0.91581  0.75641  0.25714  1.0000
  C   C170      1.0  0.97221  0.52107  0.49517  1.0000
  S   S74       1.0  0.51783  0.58016  0.31939  1.0000
  C   C171      1.0  0.92083  0.74202  0.20996  1.0000
  H   H270      1.0  0.89510  0.74087  0.12557  1.0000
  H   H271      1.0  0.79552  0.68373  0.25921  1.0000
  C   C172      1.0  0.87203  0.70530  0.50380  1.0000
  C   C173      1.0  0.78776  0.68920  0.36012  1.0000
  H   H272      1.0  0.87497  0.74059  0.34683  1.0000
  C   C174      1.0  0.51179  0.64055  0.36465  1.0000
  S   S75       1.0  0.98221  0.57968  0.37248  1.0000
  H   H273      1.0  0.76971  0.75234  0.34126  1.0000
  C   C175      1.0  0.86910  0.67236  0.49154  1.0000
  H   H274      1.0  0.49709  0.52160  0.09269  1.0000
  H   H275      1.0  0.49472  0.57917  0.48409  1.0000
  H   H276      1.0  0.79837  0.75576  0.28702  1.0000
  H   H277      1.0  0.91349  0.74861  0.50548  1.0000
  H   H278      1.0  0.93860  0.74922  0.29405  1.0000
  H   H279      1.0  0.50776  0.68550  0.40575  1.0000
  C   C176      1.0  0.89179  0.75214  0.16220  1.0000
  H   H280      1.0  0.97535  0.75861  0.11546  1.0000
  C   C177      1.0  0.98504  0.56502  0.43718  1.0000
  H   H281      1.0  0.88369  0.54738  0.52148  1.0000
  S   S76       1.0  0.73183  0.72109  0.52185  1.0000
  S   S77       1.0  0.53859  0.56664  0.72142  1.0000
  C   C178      1.0  0.64416  0.62241  0.69428  1.0000
  H   H282      1.0  0.61496  0.62242  0.91678  1.0000
  C   C179      1.0  0.82451  0.59229  0.59549  1.0000
  H   H283      1.0  0.89886  0.58649  0.54973  1.0000
  C   C180      1.0  0.99126  0.53977  0.53966  1.0000
  H   H284      1.0  0.80676  0.58777  0.62867  1.0000
  Fe  Fe38      1.0  0.53766  0.51481  0.74686  1.0000
  C   C181      1.0  0.59411  0.57962  0.71462  1.0000
  C   C182      1.0  0.63093  0.55766  0.71786  1.0000
  H   H285      1.0  0.52566  0.59774  0.95172  1.0000
  C   C183      1.0  0.55833  0.58302  0.95758  1.0000
  C   C184      1.0  0.60104  0.61213  0.70391  1.0000
  H   H286      1.0  0.62579  0.53255  0.72601  1.0000
  C   C185      1.0  0.90419  0.72192  0.64787  1.0000
  H   H287      1.0  0.90609  0.70614  0.61367  1.0000
  H   H288      1.0  0.57290  0.62934  0.70238  1.0000
  H   H289      1.0  0.97766  0.69698  0.71707  1.0000
  C   C186      1.0  0.94565  0.75785  0.71547  1.0000
  H   H290      1.0  0.85228  0.61071  0.60875  1.0000
  H   H291      1.0  0.64928  0.64745  0.68545  1.0000
  C   C187      1.0  0.86902  0.56961  0.53583  1.0000
  H   H292      1.0  0.60806  0.53326  0.93091  1.0000
  Fe  Fe39      1.0  0.77050  0.67397  0.53588  1.0000
  H   H293      1.0  0.55046  0.55941  0.97404  1.0000
  N   N18       1.0  0.57427  0.57872  0.90771  1.0000
  C   C188      1.0  0.53643  0.56365  0.86783  1.0000
  H   H294      1.0  0.58545  0.63903  0.59643  1.0000
  H   H295      1.0  0.60642  0.60027  0.58048  1.0000
  H   H296      1.0  0.59761  0.60784  0.85000  1.0000
  H   H297      1.0  0.89285  0.70669  0.67806  1.0000
  H   H298      1.0  0.54695  0.56069  0.82953  1.0000
  C   C189      1.0  0.98629  0.71297  0.68614  1.0000
  H   H299      1.0  0.89314  0.52530  0.61153  1.0000
  S   S78       1.0  0.79419  0.68047  0.62296  1.0000
  C   C190      1.0  0.58608  0.61039  0.88805  1.0000
  C   C191      1.0  0.61615  0.55763  0.91704  1.0000
  H   H300      1.0  0.54062  0.57140  0.60206  1.0000
  Fe  Fe40      1.0  0.66991  0.69108  0.53245  1.0000
  N   N19       1.0  0.53367  0.60986  0.54529  1.0000
  C   C192      1.0  0.87718  0.54769  0.62344  1.0000
  C   C193      1.0  0.67436  0.56807  0.70928  1.0000
  H   H301      1.0  0.93532  0.74321  0.74697  1.0000
  Fe  Fe41      1.0  0.72796  0.65458  0.62694  1.0000
  Fe  Fe42      1.0  0.75020  0.72543  0.61091  1.0000
  S   S79       1.0  0.68432  0.69949  0.62054  1.0000
  N   N20       1.0  0.84405  0.56227  0.57822  1.0000
  H   H302      1.0  0.70275  0.55101  0.71143  1.0000
  H   H303      1.0  0.64533  0.56794  0.94750  1.0000
  H   H304      1.0  0.62929  0.55409  0.88024  1.0000
  S   S80       1.0  0.73402  0.61229  0.68193  1.0000
  C   C194      1.0  0.68067  0.60029  0.69635  1.0000
  C   C195      1.0  0.51764  0.59245  0.58771  1.0000
  H   H305      1.0  0.90661  0.56437  0.63997  1.0000
  H   H306      1.0  0.51800  0.60834  0.62237  1.0000
  N   N21       1.0  0.94970  0.73781  0.66951  1.0000
  H   H307      1.0  0.85922  0.54106  0.65560  1.0000
  H   H308      1.0  0.52784  0.53925  0.88037  1.0000
  H   H309      1.0  0.87573  0.73987  0.63421  1.0000
  C   C196      1.0  0.58271  0.62068  0.56461  1.0000
  H   H310      1.0  0.58552  0.59510  0.98827  1.0000
  H   H311      1.0  0.96859  0.74386  0.59449  1.0000
  S   S81       1.0  0.70814  0.64406  0.54065  1.0000
  H   H312      1.0  0.55518  0.62685  0.88076  1.0000
  H   H313      1.0  0.99013  0.69739  0.65228  1.0000
  C   C197      1.0  0.80533  0.53943  0.55819  1.0000
  H   H314      1.0  0.78487  0.53422  0.58876  1.0000
  H   H315      1.0  0.50364  0.57825  0.86053  1.0000
  C   C198      1.0  0.96268  0.75843  0.62855  1.0000
  H   H316      1.0  0.79792  0.60315  0.56284  1.0000
  H   H317      1.0  0.59685  0.63205  0.53258  1.0000
  H   H318      1.0  0.50358  0.65481  0.56308  1.0000
  H   H319      1.0  0.81877  0.51593  0.54677  1.0000
  C   C199      1.0  0.50323  0.63824  0.52922  1.0000
  H   H320      1.0  0.78039  0.54926  0.52307  1.0000
  H   H321      1.0  0.60414  0.94386  0.24736  1.0000
  C   C200      1.0  0.88097  0.77996  0.25664  1.0000
  H   H322      1.0  0.87669  0.79061  0.29339  1.0000
  S   S82       1.0  0.76493  0.85705  0.06366  1.0000
  S   S83       1.0  0.85517  0.92755  0.03447  1.0000
  C   C201      1.0  0.62913  0.96307  0.24686  1.0000
  H   H323      1.0  0.93821  0.00569  0.15118  1.0000
  C   C202      1.0  0.61826  0.99466  0.25927  1.0000
  H   H324      1.0  0.93957  0.79350  0.09449  1.0000
  H   H325      1.0  0.67975  0.93189  0.22275  1.0000
  S   S84       1.0  0.74189  0.93452  0.07398  1.0000
  H   H326      1.0  0.83424  0.78301  0.12482  1.0000
  H   H327      1.0  0.81061  0.98837  0.12563  1.0000
  C   C203      1.0  0.56304  0.96620  0.43796  1.0000
  S   S85       1.0  0.56290  0.00286  0.27233  1.0000
  Fe  Fe43      1.0  0.75672  0.92793  0.16132  1.0000
  Fe  Fe44      1.0  0.70233  0.88823  0.06868  1.0000
  H   H328      1.0  0.52331  0.00792  0.36319  1.0000
  H   H329      1.0  0.63777  0.95744  0.12765  1.0000
  C   C204      1.0  0.85744  0.77611  0.16163  1.0000
  C   C205      1.0  0.84885  0.98690  0.14342  1.0000
  C   C206      1.0  0.67185  0.95628  0.23270  1.0000
  C   C207      1.0  0.62093  0.96249  0.08582  1.0000
  H   H330      1.0  0.92714  0.00023  0.21617  1.0000
  S   S86       1.0  0.80354  0.81547  0.21129  1.0000
  H   H331      1.0  0.86623  0.97525  0.11412  1.0000
  H   H332      1.0  0.85310  0.97063  0.17816  1.0000
  S   S87       1.0  0.71292  0.88331  0.15688  1.0000
  C   C208      1.0  0.70388  0.98107  0.23092  1.0000
  N   N22       1.0  0.56495  0.00176  0.44180  1.0000
  H   H333      1.0  0.87670  0.85872  0.02722  1.0000
  H   H334      1.0  0.98490  0.78239  0.06088  1.0000
  H   H335      1.0  0.67859  0.01000  0.13068  1.0000
  C   C209      1.0  0.85139  0.78974  0.20903  1.0000
  Fe  Fe45      1.0  0.77930  0.85620  0.15292  1.0000
  S   S88       1.0  0.82373  0.90096  0.16439  1.0000
  H   H336      1.0  0.54918  0.99884  0.10146  1.0000
  S   S89       1.0  0.75533  0.97378  0.20796  1.0000
  C   C210      1.0  0.69363  0.01253  0.24488  1.0000
  H   H337      1.0  0.97443  0.84834  0.11006  1.0000
  H   H338      1.0  0.64377  0.95173  0.06135  1.0000
  C   C211      1.0  0.60868  0.01349  0.42830  1.0000
  Fe  Fe46      1.0  0.80520  0.90371  0.07641  1.0000
  H   H339      1.0  0.56382  0.95796  0.39722  1.0000
  H   H340      1.0  0.58697  0.94921  0.07647  1.0000
  C   C212      1.0  0.97591  0.78373  0.10036  1.0000
  H   H341      1.0  0.53025  0.00487  0.50690  1.0000
  H   H342      1.0  0.60993  0.00721  0.38683  1.0000
  H   H343      1.0  0.59336  0.95489  0.46549  1.0000
  H   H344      1.0  0.53027  0.95666  0.44760  1.0000
  N   N23       1.0  0.61451  0.99744  0.07588  1.0000
  C   C213      1.0  0.56374  0.01202  0.49609  1.0000
  C   C214      1.0  0.58419  0.01078  0.10948  1.0000
  H   H345      1.0  0.95954  0.81422  0.18487  1.0000
  H   H346      1.0  0.60010  0.00712  0.15205  1.0000
  H   H347      1.0  0.68469  0.00395  0.06429  1.0000
  H   H348      1.0  0.64032  0.00296  0.45467  1.0000
  C   C215      1.0  0.66077  0.01364  0.08861  1.0000
  S   S90       1.0  0.93243  0.99939  0.86371  1.0000
  C   C216      1.0  0.90364  0.87294  0.01524  1.0000
  H   H349      1.0  0.88908  0.83457  0.59961  1.0000
  H   H350      1.0  0.53791  0.91592  0.97449  1.0000
  H   H351      1.0  0.94011  0.83173  0.99196  1.0000
  H   H352      1.0  0.86514  0.94937  0.82730  1.0000
  C   C217      1.0  0.64225  0.92820  0.93993  1.0000
  H   H353      1.0  0.81829  0.97734  0.80692  1.0000
  H   H354      1.0  0.55741  0.99062  0.00869  1.0000
  C   C218      1.0  0.57904  0.95708  0.88045  1.0000
  C   C219      1.0  0.62659  0.94840  0.89613  1.0000
  S   S91       1.0  0.56043  0.97890  0.82106  1.0000
  C   C220      1.0  0.61016  0.91580  0.96757  1.0000
  C   C221      1.0  0.56281  0.92516  0.95284  1.0000
  C   C222      1.0  0.54744  0.94626  0.91010  1.0000
  H   H355      1.0  0.53478  0.87384  0.86504  1.0000
  C   C223      1.0  0.82404  0.91391  0.89089  1.0000
  H   H356      1.0  0.65123  0.95679  0.87350  1.0000
  C   C224      1.0  0.97315  0.87635  0.97782  1.0000
  H   H357      1.0  0.88416  0.84870  0.76220  1.0000
  C   C225      1.0  0.53452  0.87901  0.82288  1.0000
  C   C226      1.0  0.59228  0.00269  0.01966  1.0000
  H   H358      1.0  0.74096  0.93458  0.83372  1.0000
  H   H359      1.0  0.55553  0.90133  0.82204  1.0000
  C   C227      1.0  0.93949  0.85772  0.99548  1.0000
  C   C228      1.0  0.93619  0.92497  0.00093  1.0000
  C   C229      1.0  0.83976  0.80435  0.62829  1.0000
  H   H360      1.0  0.51102  0.95352  0.89945  1.0000
  H   H361      1.0  0.80750  0.89560  0.86125  1.0000
  C   C230      1.0  0.83587  0.97049  0.91210  1.0000
  Fe  Fe47      1.0  0.97277  0.95596  0.84305  1.0000
  H   H362      1.0  0.82714  0.79234  0.59083  1.0000
  S   S92       1.0  0.93598  0.87399  0.68670  1.0000
  H   H363      1.0  0.80936  0.93513  0.79089  1.0000
  H   H364      1.0  0.91849  0.77685  0.70412  1.0000
  H   H365      1.0  0.81251  0.90887  0.92819  1.0000
  N   N24       1.0  0.81167  0.94712  0.87219  1.0000
  C   C231      1.0  0.76034  0.95171  0.86381  1.0000
  S   S93       1.0  0.94402  0.90548  0.83857  1.0000
  H   H366      1.0  0.86274  0.90995  0.89917  1.0000
  H   H367      1.0  0.82157  0.80718  0.75302  1.0000
  Fe  Fe48      1.0  0.97003  0.89868  0.76425  1.0000
  H   H368      1.0  0.97947  0.94064  0.57891  1.0000
  C   C232      1.0  0.87478  0.82836  0.63337  1.0000
  C   C233      1.0  0.97158  0.90989  0.98127  1.0000
  H   H369      1.0  0.93468  0.77636  0.61301  1.0000
  C   C234      1.0  0.82655  0.95241  0.82200  1.0000
  H   H370      1.0  0.67878  0.92114  0.95102  1.0000
  H   H371      1.0  0.87435  0.96586  0.92271  1.0000
  H   H372      1.0  0.55336  0.85900  0.80771  1.0000
  H   H373      1.0  0.74804  0.94768  0.90099  1.0000
  H   H374      1.0  0.61423  0.99267  0.99329  1.0000
  C   C235      1.0  0.82036  0.79657  0.67143  1.0000
  C   C236      1.0  0.83650  0.81293  0.71951  1.0000
  C   C237      1.0  0.87194  0.83654  0.72481  1.0000
  C   C238      1.0  0.89116  0.84448  0.68168  1.0000
  H   H375      1.0  0.50572  0.87268  0.71747  1.0000
  H   H376      1.0  0.82293  0.96902  0.94920  1.0000
  C   C239      1.0  0.98373  0.00334  0.96688  1.0000
  H   H377      1.0  0.98503  0.89975  0.60265  1.0000
  H   H378      1.0  0.83103  0.99575  0.89754  1.0000
  H   H379      1.0  0.74993  0.97663  0.85010  1.0000
  H   H380      1.0  0.97885  0.93195  0.64644  1.0000
  S   S94       1.0  0.77567  0.76709  0.66777  1.0000
  H   H381      1.0  0.50773  0.91460  0.73550  1.0000
  H   H382      1.0  0.97925  0.77029  0.73302  1.0000
  S   S95       1.0  0.62766  0.88772  0.01924  1.0000
  S   S96       1.0  0.99104  0.95080  0.76391  1.0000
  H   H383      1.0  0.93511  0.95102  0.00283  1.0000
  C   C240      1.0  0.90178  0.90668  0.01711  1.0000
  H   H384      1.0  0.59325  0.00143  0.52567  1.0000
