data_image0
_chemical_formula_structural       CFeSHSH2SC2SC3FeCH3C3H2CHCSHSHSC2H2CNCH3NC4HCH2NH2Fe2SFe2S3C2HC2H4CH4CH3C2H5C2HC2FeS2HCH2FeSH2CHSHFeC7H7C2HC4HSH2SH5FeHSHCH3CNH2SHSH2CH2CHCSHS2H3C6H4CH2FeCHNH2CN2C4SH2CH3FeSC2FeCHSC2FeH3FeHSCSHC2HNC3HSH3C4H2CH4SHSHCH3CH4CHCH5C2H5SH4SH4SH4C2HCH2C3H2SH2CHCNSC2H4CHSCSH2SFeHSCSHFeS2FeH3FeNS2H2C2HCH2C6H5C3H2CHC2H3FeCHCH2CHCH2S2CH2SH2C2HSHCH2CH5NHCH2CH2FeH2CSH2CHCHCNCHCHC2HFeH4CH2SHFeSFeHSH2C4HCHSH3NCH3CH3C2SCFeS2C2H2FeHSH2CFeH2FeCFeSHSH3CHCHC3H2C2H2CSHSHC2SH3CS2CH5NSCH3NC4H4SC2FeHFeHC2HSH2FeSHS2H6CH2C3HCH2NH2SHC2FeSHFeSCSHC4HCH3CSFeHSHSHCFe2H2C2HCHNH2FeHCFeCHCH8CSFeSCFe2SH3CHC2H11C3HNC4H7FeHSFeCFeH3C2H2CH2C2SHSCH3SCS2C7H2CH2C4H7NCSH3CFeHCFeSC2HSCH2SCH4C2H2FeSC2HFeSCSCSHNH6C2HSH5CFeH2CSC5H2CH4C3FeCH3CH5CSHCS2FeH2C3NSCSCHCHCHNCSH3NHSHCHC2HCH10C2HCHNFeH2FeS2FeS3C3H2C6HNH3CHCH3SH3CHSCHSFeCSC2H3FeHNCS2NCS2H2CH2C3H4C2H2FeH4SNH3NHSC2FeSCFeS2FeSFeS3HC2H3CH4C6H4CH2C4H4C2HC2HCH7CH10CH3CHCHCHSH3CH4C2NC2H4S2H3SC2HC4H4SC2H4CFeHSCH2SFeHNH6C2H5CH2C2HFeCHFeNHNH6SFeC2SC2H2CFeCSHFeSFeSH4C3FeCNH3CH3CH2CHCHCSHCSHCH3FeC3SCHCHSC2HSC2HSC2H3C3SHSH2FeH4NHC2HSH2NHFeNCH6CSHCSH4SCHSH3FeSH3CHC2SCFeH3CH2CNC2SHCFeCHCHNHCSCFeS2H2FeS2H2C2H2CH2C2H2FeH2CH3CNCS
_chemical_formula_sum              "C400 Fe80 S160 H640 N40"
_cell_length_a       44.5009
_cell_length_b       37.2497
_cell_length_c       35.5495
_cell_angle_alpha    89.7794
_cell_angle_beta     103.543
_cell_angle_gamma    89.8749

_space_group_name_H-M_alt    "P 1"
_space_group_IT_number       1

loop_
  _space_group_symop_operation_xyz
  'x, y, z'

loop_
  _atom_site_type_symbol
  _atom_site_label
  _atom_site_symmetry_multiplicity
  _atom_site_fract_x
  _atom_site_fract_y
  _atom_site_fract_z
  _atom_site_occupancy
  C   C1        1.0  0.12704  0.35612  0.38657  1.0000
  Fe  Fe1       1.0  0.08715  0.23294  0.47206  1.0000
  S   S1        1.0  0.12180  0.26718  0.45070  1.0000
  H   H1        1.0  0.14516  0.37340  0.38129  1.0000
  S   S2        1.0  0.08817  0.17263  0.47103  1.0000
  H   H2        1.0  0.10441  0.31404  0.53812  1.0000
  H   H3        1.0  0.11995  0.50910  0.12649  1.0000
  S   S3        1.0  0.13384  0.44288  0.18312  1.0000
  C   C2        1.0  0.05874  0.05575  0.36477  1.0000
  C   C3        1.0  0.08449  0.36775  0.11311  1.0000
  S   S4        1.0  0.15977  0.40880  0.29622  1.0000
  C   C4        1.0  0.10924  0.33801  0.17302  1.0000
  C   C5        1.0  0.08971  0.33665  0.13586  1.0000
  C   C6        1.0  0.23647  0.50114  0.45708  1.0000
  Fe  Fe2       1.0  0.08619  0.17478  0.53339  1.0000
  C   C7        1.0  0.07283  0.34156  0.37693  1.0000
  H   H4        1.0  0.11371  0.31390  0.19054  1.0000
  H   H5        1.0  0.06241  0.29310  0.40491  1.0000
  H   H6        1.0  0.20845  0.46368  0.41807  1.0000
  C   C8        1.0  0.11133  0.30325  0.41792  1.0000
  C   C9        1.0  0.13458  0.32583  0.41069  1.0000
  C   C10       1.0  0.28509  0.51772  0.44255  1.0000
  H   H7        1.0  0.12460  0.32183  0.07552  1.0000
  H   H8        1.0  0.13785  0.37144  0.21654  1.0000
  C   C11       1.0  0.08044  0.31081  0.40031  1.0000
  H   H9        1.0  0.15857  0.32000  0.42402  1.0000
  C   C12       1.0  0.07091  0.09018  0.37330  1.0000
  S   S5        1.0  0.08568  0.40263  0.34062  1.0000
  H   H10       1.0  0.06823  0.31381  0.22265  1.0000
  S   S6        1.0  0.09001  0.23471  0.53591  1.0000
  H   H11       1.0  0.06266  0.09489  0.52426  1.0000
  S   S7        1.0  0.07164  0.29593  0.11901  1.0000
  C   C13       1.0  0.26383  0.52114  0.46574  1.0000
  C   C14       1.0  0.13041  0.25254  0.05800  1.0000
  H   H12       1.0  0.09265  0.09728  0.36656  1.0000
  H   H13       1.0  0.06262  0.40718  0.25648  1.0000
  C   C15       1.0  0.09611  0.36425  0.36994  1.0000
  N   N1        1.0  0.07114  0.35190  0.50692  1.0000
  C   C16       1.0  0.22967  0.47888  0.42453  1.0000
  H   H14       1.0  0.22009  0.50340  0.47517  1.0000
  H   H15       1.0  0.11109  0.34971  0.48270  1.0000
  H   H16       1.0  0.06104  0.39977  0.53531  1.0000
  N   N2        1.0  0.15501  0.27993  0.06536  1.0000
  C   C17       1.0  0.12290  0.37053  0.18779  1.0000
  C   C18       1.0  0.09863  0.40013  0.12760  1.0000
  C   C19       1.0  0.18453  0.26305  0.08541  1.0000
  C   C20       1.0  0.11750  0.40169  0.16514  1.0000
  H   H17       1.0  0.09443  0.42418  0.10998  1.0000
  C   C21       1.0  0.13065  0.53264  0.11524  1.0000
  H   H18       1.0  0.06923  0.36703  0.08457  1.0000
  H   H19       1.0  0.19129  0.24125  0.06762  1.0000
  N   N3        1.0  0.08052  0.04758  0.50253  1.0000
  H   H20       1.0  0.08282  0.38245  0.46077  1.0000
  H   H21       1.0  0.12667  0.24076  0.08537  1.0000
  Fe  Fe3       1.0  0.12316  0.43414  0.32178  1.0000
  Fe  Fe4       1.0  0.14114  0.51054  0.30344  1.0000
  S   S8        1.0  0.17852  0.49086  0.27639  1.0000
  Fe  Fe5       1.0  0.14464  0.44910  0.24815  1.0000
  Fe  Fe6       1.0  0.19000  0.45338  0.32732  1.0000
  S   S9        1.0  0.24058  0.45070  0.35778  1.0000
  S   S10       1.0  0.10614  0.47160  0.27158  1.0000
  S   S11       1.0  0.15433  0.47575  0.35637  1.0000
  C   C22       1.0  0.25035  0.47609  0.40057  1.0000
  C   C23       1.0  0.27844  0.49491  0.41013  1.0000
  H   H22       1.0  0.16482  0.32983  0.09626  1.0000
  C   C24       1.0  0.08725  0.33412  0.54335  1.0000
  C   C25       1.0  0.14681  0.30861  0.08986  1.0000
  H   H23       1.0  0.18283  0.25099  0.11355  1.0000
  H   H24       1.0  0.11177  0.09165  0.50296  1.0000
  H   H25       1.0  0.28470  0.47840  0.54193  1.0000
  H   H26       1.0  0.14379  0.29776  0.11799  1.0000
  C   C26       1.0  0.17089  0.53567  0.17396  1.0000
  H   H27       1.0  0.08873  0.37165  0.25239  1.0000
  H   H28       1.0  0.16112  0.51268  0.18720  1.0000
  H   H29       1.0  0.09079  0.07824  0.45578  1.0000
  H   H30       1.0  0.10727  0.39050  0.50800  1.0000
  C   C27       1.0  0.09406  0.36953  0.48889  1.0000
  H   H31       1.0  0.20365  0.28299  0.09150  1.0000
  H   H32       1.0  0.06385  0.14261  0.39521  1.0000
  H   H33       1.0  0.14717  0.52204  0.09882  1.0000
  C   C28       1.0  0.10230  0.06798  0.48503  1.0000
  C   C29       1.0  0.06595  0.38385  0.23837  1.0000
  H   H34       1.0  0.18816  0.52461  0.15894  1.0000
  H   H35       1.0  0.06761  0.39446  0.20961  1.0000
  H   H36       1.0  0.29460  0.49265  0.39175  1.0000
  H   H37       1.0  0.12219  0.05107  0.48186  1.0000
  H   H38       1.0  0.06990  0.30314  0.47506  1.0000
  C   C30       1.0  0.05408  0.32476  0.48015  1.0000
  C   C31       1.0  0.05446  0.07117  0.50573  1.0000
  H   H39       1.0  0.06225  0.33216  0.28887  1.0000
  C   C32       1.0  0.05479  0.11574  0.38989  1.0000
  C   C33       1.0  0.04907  0.37878  0.51512  1.0000
  Fe  Fe7       1.0  0.12202  0.07006  0.87109  1.0000
  S   S12       1.0  0.15297  0.10414  0.84479  1.0000
  S   S13       1.0  0.09850  0.08841  0.91739  1.0000
  H   H40       1.0  0.18868  0.11864  0.69335  1.0000
  C   C34       1.0  0.07750  0.14930  0.94543  1.0000
  H   H41       1.0  0.13570  0.08234  0.63403  1.0000
  H   H42       1.0  0.22880  0.11373  0.69313  1.0000
  Fe  Fe8       1.0  0.12350  0.08678  0.78776  1.0000
  S   S14       1.0  0.10520  0.13265  0.74736  1.0000
  H   H43       1.0  0.05940  0.13239  0.95138  1.0000
  H   H44       1.0  0.21558  0.15307  0.71375  1.0000
  C   C35       1.0  0.19622  0.11884  0.77039  1.0000
  H   H45       1.0  0.19068  0.05951  0.72603  1.0000
  S   S15       1.0  0.10064  0.25473  0.95468  1.0000
  H   H46       1.0  0.25405  0.14190  0.77612  1.0000
  Fe  Fe9       1.0  0.06114  0.27355  0.97946  1.0000
  C   C36       1.0  0.25022  0.11265  0.77085  1.0000
  C   C37       1.0  0.10732  0.13152  0.69860  1.0000
  C   C38       1.0  0.09457  0.16007  0.67418  1.0000
  C   C39       1.0  0.09642  0.16056  0.63531  1.0000
  C   C40       1.0  0.11146  0.13270  0.62085  1.0000
  C   C41       1.0  0.12422  0.10407  0.64524  1.0000
  C   C42       1.0  0.12192  0.10329  0.68400  1.0000
  H   H47       1.0  0.28797  0.45634  0.58771  1.0000
  H   H48       1.0  0.08653  0.18270  0.61665  1.0000
  H   H49       1.0  0.10582  0.05765  0.56086  1.0000
  H   H50       1.0  0.13133  0.08089  0.70248  1.0000
  H   H51       1.0  0.23103  0.05490  0.72708  1.0000
  H   H52       1.0  0.07115  0.41057  0.88724  1.0000
  H   H53       1.0  0.08260  0.17996  0.85533  1.0000
  C   C43       1.0  0.21438  0.06613  0.74295  1.0000
  C   C44       1.0  0.10047  0.13433  0.92924  1.0000
  H   H54       1.0  0.09987  0.35381  0.56471  1.0000
  C   C45       1.0  0.07721  0.18626  0.95285  1.0000
  C   C46       1.0  0.10050  0.20834  0.94529  1.0000
  C   C47       1.0  0.12395  0.19326  0.92999  1.0000
  C   C48       1.0  0.12388  0.15634  0.92181  1.0000
  H   H55       1.0  0.16355  0.27433  0.00851  1.0000
  S   S16       1.0  0.11498  0.13333  0.57263  1.0000
  H   H56       1.0  0.14211  0.21017  0.92420  1.0000
  H   H57       1.0  0.14205  0.14494  0.91008  1.0000
  S   S17       1.0  0.06482  0.32571  0.01172  1.0000
  H   H58       1.0  0.05880  0.19761  0.96415  1.0000
  H   H59       1.0  0.21820  0.05163  0.77120  1.0000
  H   H60       1.0  0.17662  0.31604  0.03228  1.0000
  H   H61       1.0  0.04909  0.11518  0.77711  1.0000
  H   H62       1.0  0.08323  0.18196  0.68533  1.0000
  Fe  Fe10      1.0  0.17938  0.05331  0.84183  1.0000
  H   H63       1.0  0.13616  0.30841  0.01227  1.0000
  S   S18       1.0  0.23122  0.05383  0.85835  1.0000
  H   H64       1.0  0.06448  0.49703  0.01644  1.0000
  C   C49       1.0  0.04969  0.52150  0.01362  1.0000
  H   H65       1.0  0.17191  0.11324  0.75499  1.0000
  H   H66       1.0  0.25507  0.09904  0.79971  1.0000
  H   H67       1.0  0.20029  0.10610  0.79952  1.0000
  C   C50       1.0  0.21268  0.12348  0.71056  1.0000
  N   N4        1.0  0.21838  0.10529  0.74863  1.0000
  H   H68       1.0  0.07068  0.31952  0.55703  1.0000
  H   H69       1.0  0.26767  0.10284  0.75541  1.0000
  S   S19       1.0  0.15270  0.03870  0.78215  1.0000
  H   H70       1.0  0.19820  0.14838  0.77476  1.0000
  S   S20       1.0  0.09063  0.05573  0.81427  1.0000
  H   H71       1.0  0.09057  0.14024  0.83095  1.0000
  H   H72       1.0  0.08460  0.18216  0.80546  1.0000
  C   C51       1.0  0.07670  0.16543  0.82731  1.0000
  H   H73       1.0  0.10815  0.26450  0.04232  1.0000
  H   H74       1.0  0.13565  0.23033  0.03958  1.0000
  C   C52       1.0  0.15811  0.29543  0.02809  1.0000
  H   H75       1.0  0.04930  0.37608  0.93454  1.0000
  C   C53       1.0  0.15040  0.84993  0.18931  1.0000
  S   S21       1.0  0.19293  0.66669  0.19940  1.0000
  H   H76       1.0  0.19536  0.66594  0.54406  1.0000
  S   S22       1.0  0.26932  0.55116  0.50481  1.0000
  S   S23       1.0  0.07915  0.02440  0.34363  1.0000
  H   H77       1.0  0.13463  0.58783  0.19193  1.0000
  H   H78       1.0  0.11659  0.84479  0.11586  1.0000
  H   H79       1.0  0.22878  0.57215  0.34484  1.0000
  C   C54       1.0  0.17667  0.64169  0.23155  1.0000
  C   C55       1.0  0.14799  0.65116  0.23842  1.0000
  C   C56       1.0  0.13416  0.62921  0.26179  1.0000
  C   C57       1.0  0.14856  0.59726  0.27746  1.0000
  C   C58       1.0  0.17756  0.58830  0.27125  1.0000
  C   C59       1.0  0.19182  0.61078  0.24891  1.0000
  H   H80       1.0  0.13646  0.67545  0.22579  1.0000
  H   H81       1.0  0.11193  0.63661  0.26692  1.0000
  H   H82       1.0  0.18924  0.56428  0.28391  1.0000
  H   H83       1.0  0.21417  0.60360  0.24399  1.0000
  C   C60       1.0  0.23066  0.84855  0.05841  1.0000
  H   H84       1.0  0.08279  0.92691  0.45857  1.0000
  H   H85       1.0  0.15228  0.82103  0.12127  1.0000
  Fe  Fe11      1.0  0.15621  0.69126  0.15184  1.0000
  C   C61       1.0  0.06292  0.81839  0.14213  1.0000
  H   H86       1.0  0.19942  0.61879  0.44002  1.0000
  N   N5        1.0  0.21638  0.60127  0.39120  1.0000
  H   H87       1.0  0.18353  0.55276  0.19805  1.0000
  H   H88       1.0  0.08779  0.99814  0.47472  1.0000
  C   C62       1.0  0.19082  0.80610  0.06588  1.0000
  N   N6        1.0  0.15552  0.86916  0.15488  1.0000
  N   N7        1.0  0.14640  0.55619  0.14712  1.0000
  C   C63       1.0  0.14193  0.84830  0.11978  1.0000
  C   C64       1.0  0.20039  0.59428  0.42254  1.0000
  C   C65       1.0  0.14066  0.90491  0.15214  1.0000
  C   C66       1.0  0.07323  0.90080  0.44954  1.0000
  S   S24       1.0  0.15799  0.68841  0.08936  1.0000
  H   H89       1.0  0.19400  0.88610  0.13195  1.0000
  H   H90       1.0  0.14413  0.92017  0.12653  1.0000
  C   C67       1.0  0.24846  0.61282  0.40814  1.0000
  H   H91       1.0  0.10465  0.58475  0.14871  1.0000
  H   H92       1.0  0.24907  0.63765  0.42561  1.0000
  H   H93       1.0  0.16069  0.86527  0.51896  1.0000
  Fe  Fe12      1.0  0.10838  0.67143  0.07876  1.0000
  S   S25       1.0  0.10817  0.66979  0.14171  1.0000
  C   C68       1.0  0.18910  0.87332  0.15827  1.0000
  C   C69       1.0  0.06870  0.01640  0.47789  1.0000
  Fe  Fe13      1.0  0.05078  0.97965  0.31086  1.0000
  C   C70       1.0  0.06345  0.87069  0.18308  1.0000
  H   H94       1.0  0.17627  0.58488  0.41074  1.0000
  S   S26       1.0  0.07184  0.92647  0.30167  1.0000
  C   C71       1.0  0.19977  0.62976  0.36539  1.0000
  C   C72       1.0  0.06414  0.79587  0.17402  1.0000
  Fe  Fe14      1.0  0.13919  0.74461  0.08513  1.0000
  H   H95       1.0  0.19300  0.55835  0.35578  1.0000
  H   H96       1.0  0.12960  0.77933  0.47465  1.0000
  H   H97       1.0  0.19972  0.65553  0.38106  1.0000
  Fe  Fe15      1.0  0.09402  0.72770  0.13439  1.0000
  H   H98       1.0  0.17727  0.77765  0.44908  1.0000
  S   S27       1.0  0.14231  0.74920  0.14896  1.0000
  C   C73       1.0  0.17830  0.84780  0.51026  1.0000
  S   S28       1.0  0.09429  0.88176  0.52528  1.0000
  H   H99       1.0  0.25082  0.66500  0.54235  1.0000
  C   C74       1.0  0.18759  0.79793  0.47123  1.0000
  C   C75       1.0  0.14666  0.84048  0.44563  1.0000
  H   H100      1.0  0.15004  0.92130  0.17835  1.0000
  N   N8        1.0  0.16358  0.82135  0.48079  1.0000
  C   C76       1.0  0.06251  0.85583  0.14666  1.0000
  C   C77       1.0  0.06540  0.84814  0.21508  1.0000
  C   C78       1.0  0.06604  0.81080  0.21055  1.0000
  H   H101      1.0  0.15995  0.86510  0.21634  1.0000
  S   S29       1.0  0.13042  0.56958  0.30567  1.0000
  H   H102      1.0  0.06675  0.85951  0.24339  1.0000
  H   H103      1.0  0.06824  0.79341  0.23537  1.0000
  H   H104      1.0  0.26157  0.59185  0.42777  1.0000
  C   C79       1.0  0.20870  0.79633  0.10229  1.0000
  C   C80       1.0  0.23717  0.81322  0.11708  1.0000
  C   C81       1.0  0.24816  0.83943  0.09528  1.0000
  C   C82       1.0  0.09663  0.03480  0.54148  1.0000
  H   H105      1.0  0.20476  0.81374  0.45986  1.0000
  H   H106      1.0  0.20048  0.77603  0.11925  1.0000
  C   C83       1.0  0.21681  0.56809  0.36870  1.0000
  H   H107      1.0  0.15381  0.78391  0.52231  1.0000
  H   H108      1.0  0.16144  0.82287  0.19234  1.0000
  H   H109      1.0  0.16248  0.85691  0.43259  1.0000
  H   H110      1.0  0.12900  0.85905  0.45234  1.0000
  S   S30       1.0  0.28280  0.86183  0.11583  1.0000
  H   H111      1.0  0.06396  0.81807  0.48590  1.0000
  S   S31       1.0  0.08926  0.72761  0.07001  1.0000
  H   H112      1.0  0.26128  0.61819  0.38532  1.0000
  C   C84       1.0  0.12366  0.56946  0.16818  1.0000
  H   H113      1.0  0.12535  0.84581  0.18744  1.0000
  H   H114      1.0  0.17523  0.62221  0.35315  1.0000
  H   H115      1.0  0.21047  0.63476  0.34049  1.0000
  C   C85       1.0  0.14171  0.79917  0.49622  1.0000
  H   H116      1.0  0.12376  0.81602  0.50475  1.0000
  H   H117      1.0  0.25080  0.80592  0.14547  1.0000
  H   H118      1.0  0.20110  0.84685  0.16190  1.0000
  H   H119      1.0  0.13425  0.82151  0.42322  1.0000
  C   C86       1.0  0.05933  0.89477  0.41040  1.0000
  H   H120      1.0  0.20057  0.78293  0.49725  1.0000
  C   C87       1.0  0.06289  0.83941  0.46495  1.0000
  H   H121      1.0  0.11528  0.90269  0.14944  1.0000
  H   H122      1.0  0.20004  0.89006  0.18361  1.0000
  H   H123      1.0  0.19443  0.86563  0.49934  1.0000
  H   H124      1.0  0.17266  0.60509  0.15443  1.0000
  H   H125      1.0  0.14592  0.86135  0.09316  1.0000
  C   C88       1.0  0.07507  0.87321  0.47693  1.0000
  C   C89       1.0  0.16033  0.58697  0.13111  1.0000
  H   H126      1.0  0.21254  0.57317  0.44278  1.0000
  H   H127      1.0  0.14248  0.60344  0.11122  1.0000
  H   H128      1.0  0.22912  0.54612  0.38720  1.0000
  H   H129      1.0  0.06082  0.87324  0.12182  1.0000
  H   H130      1.0  0.11217  0.54752  0.09438  1.0000
  S   S32       1.0  0.06124  0.74917  0.16841  1.0000
  H   H131      1.0  0.05816  0.91624  0.38955  1.0000
  H   H132      1.0  0.11322  0.54701  0.18150  1.0000
  H   H133      1.0  0.05220  0.00030  0.49018  1.0000
  H   H134      1.0  0.11649  0.01702  0.54020  1.0000
  S   S33       1.0  0.06311  0.91739  0.18868  1.0000
  H   H135      1.0  0.06133  0.80692  0.11380  1.0000
  H   H136      1.0  0.19181  0.83428  0.53692  1.0000
  H   H137      1.0  0.17735  0.57807  0.11460  1.0000
  H   H138      1.0  0.05645  0.02506  0.44830  1.0000
  S   S34       1.0  0.08824  0.78013  0.56424  1.0000
  H   H139      1.0  0.21167  0.87284  0.94935  1.0000
  H   H140      1.0  0.06445  0.67383  0.56865  1.0000
  H   H141      1.0  0.12951  0.60786  0.59187  1.0000
  H   H142      1.0  0.14488  0.68119  0.62937  1.0000
  C   C90       1.0  0.26793  0.01130  0.91389  1.0000
  C   C91       1.0  0.07173  0.62979  0.99583  1.0000
  H   H143      1.0  0.07277  0.63970  0.64669  1.0000
  C   C92       1.0  0.07643  0.71201  0.69378  1.0000
  H   H144      1.0  0.10471  0.67210  0.72966  1.0000
  H   H145      1.0  0.09655  0.62260  0.55524  1.0000
  C   C93       1.0  0.07443  0.60740  0.96519  1.0000
  C   C94       1.0  0.05373  0.61079  0.92887  1.0000
  C   C95       1.0  0.08350  0.62585  0.62548  1.0000
  H   H146      1.0  0.09243  0.58717  0.96967  1.0000
  H   H147      1.0  0.08084  0.01934  0.55555  1.0000
  S   S35       1.0  0.15377  0.78787  0.04831  1.0000
  H   H148      1.0  0.23906  0.86877  0.04152  1.0000
  H   H149      1.0  0.12111  0.67757  0.66327  1.0000
  C   C96       1.0  0.25914  0.71921  0.56283  1.0000
  H   H150      1.0  0.08833  0.67891  0.84388  1.0000
  C   C97       1.0  0.08151  0.67953  0.71441  1.0000
  N   N9        1.0  0.10327  0.65057  0.60936  1.0000
  S   S36       1.0  0.09514  0.62171  0.04228  1.0000
  C   C98       1.0  0.24613  0.01239  0.87835  1.0000
  C   C99       1.0  0.27972  0.97826  0.93021  1.0000
  H   H151      1.0  0.09692  0.60270  0.64084  1.0000
  H   H152      1.0  0.09553  0.72977  0.69399  1.0000
  H   H153      1.0  0.09872  0.70079  0.57859  1.0000
  H   H154      1.0  0.21948  0.88890  0.90512  1.0000
  C   C100      1.0  0.12935  0.66272  0.64059  1.0000
  H   H155      1.0  0.06900  0.73028  0.87594  1.0000
  S   S37       1.0  0.28410  0.90450  0.93074  1.0000
  C   C101      1.0  0.11551  0.63175  0.57955  1.0000
  S   S38       1.0  0.04997  0.57610  0.82616  1.0000
  H   H156      1.0  0.13075  0.64965  0.56707  1.0000
  H   H157      1.0  0.24249  0.92292  0.85848  1.0000
  S   S39       1.0  0.15125  0.02041  0.87379  1.0000
  Fe  Fe16      1.0  0.12255  0.00905  0.81430  1.0000
  H   H158      1.0  0.06540  0.66176  0.79922  1.0000
  S   S40       1.0  0.15702  0.72001  0.56590  1.0000
  C   C102      1.0  0.06420  0.67490  0.82690  1.0000
  S   S41       1.0  0.10310  0.95392  0.79924  1.0000
  H   H159      1.0  0.20498  0.77414  0.58662  1.0000
  Fe  Fe17      1.0  0.14123  0.82628  0.65266  1.0000
  S   S42       1.0  0.09209  0.84339  0.62898  1.0000
  S   S43       1.0  0.17288  0.85594  0.70143  1.0000
  Fe  Fe18      1.0  0.13776  0.76742  0.59216  1.0000
  H   H160      1.0  0.18245  0.92967  0.86189  1.0000
  H   H161      1.0  0.06458  0.54513  0.01156  1.0000
  H   H162      1.0  0.17462  0.96260  0.93773  1.0000
  Fe  Fe19      1.0  0.08241  0.78404  0.62529  1.0000
  N   N10       1.0  0.17723  0.90885  0.91664  1.0000
  S   S44       1.0  0.15304  0.82475  0.59469  1.0000
  S   S45       1.0  0.13105  0.76718  0.65274  1.0000
  H   H163      1.0  0.20240  0.93398  0.96903  1.0000
  H   H164      1.0  0.16101  0.88789  0.96475  1.0000
  C   C103      1.0  0.19174  0.94066  0.93823  1.0000
  C   C104      1.0  0.24598  0.75009  0.57490  1.0000
  H   H165      1.0  0.19038  0.85551  0.90365  1.0000
  C   C105      1.0  0.21473  0.75049  0.57650  1.0000
  H   H166      1.0  0.07581  0.69740  0.61355  1.0000
  H   H167      1.0  0.21038  0.95179  0.92558  1.0000
  C   C106      1.0  0.12279  0.92720  0.77201  1.0000
  C   C107      1.0  0.10774  0.89757  0.75190  1.0000
  C   C108      1.0  0.12293  0.87578  0.72998  1.0000
  C   C109      1.0  0.15347  0.88311  0.72866  1.0000
  C   C110      1.0  0.16883  0.91222  0.74964  1.0000
  C   C111      1.0  0.15342  0.93449  0.77096  1.0000
  H   H168      1.0  0.08412  0.89171  0.75281  1.0000
  H   H169      1.0  0.11109  0.85306  0.71445  1.0000
  H   H170      1.0  0.19254  0.91782  0.74890  1.0000
  H   H171      1.0  0.16531  0.95703  0.78676  1.0000
  H   H172      1.0  0.26019  0.77352  0.58371  1.0000
  C   C112      1.0  0.27050  0.94630  0.91038  1.0000
  C   C113      1.0  0.24939  0.94749  0.87426  1.0000
  C   C114      1.0  0.23669  0.98038  0.85868  1.0000
  H   H173      1.0  0.14364  0.63976  0.65489  1.0000
  H   H174      1.0  0.22011  0.98107  0.83103  1.0000
  C   C115      1.0  0.08474  0.68194  0.59173  1.0000
  H   H175      1.0  0.15366  0.89543  0.85817  1.0000
  C   C116      1.0  0.20065  0.88023  0.91882  1.0000
  C   C117      1.0  0.15211  0.89570  0.93386  1.0000
  H   H176      1.0  0.14609  0.93974  0.87292  1.0000
  H   H177      1.0  0.13399  0.91665  0.93263  1.0000
  H   H178      1.0  0.14059  0.87176  0.91820  1.0000
  Fe  Fe20      1.0  0.10296  0.83771  0.57064  1.0000
  C   C118      1.0  0.19642  0.72017  0.56533  1.0000
  H   H179      1.0  0.18815  0.83958  0.01568  1.0000
  C   C119      1.0  0.16436  0.91880  0.87571  1.0000
  H   H180      1.0  0.08688  0.73944  0.81480  1.0000
  H   H181      1.0  0.06425  0.61509  0.60252  1.0000
  C   C120      1.0  0.20190  0.83210  0.04389  1.0000
  H   H182      1.0  0.06364  0.72311  0.76994  1.0000
  C   C121      1.0  0.06269  0.73416  0.79867  1.0000
  H   H183      1.0  0.05576  0.59311  0.90564  1.0000
  H   H184      1.0  0.29608  0.97761  0.95804  1.0000
  S   S46       1.0  0.29366  0.93702  0.03892  1.0000
  S   S47       1.0  0.06515  0.61320  0.73454  1.0000
  C   C122      1.0  0.05690  0.65619  0.71442  1.0000
  H   H185      1.0  0.05303  0.65563  0.84334  1.0000
  H   H186      1.0  0.05042  0.76044  0.79329  1.0000
  S   S48       1.0  0.29832  0.71949  0.56118  1.0000
  H   H187      1.0  0.05168  0.53654  0.94142  1.0000
  H   H188      1.0  0.27533  0.03600  0.92918  1.0000
  C   C123      1.0  0.20944  0.68946  0.55274  1.0000
  C   C124      1.0  0.24081  0.68886  0.55175  1.0000
  H   H189      1.0  0.34881  0.45854  0.53181  1.0000
  S   S49       1.0  0.51168  0.08561  0.23865  1.0000
  H   H190      1.0  0.43752  0.08360  0.07430  1.0000
  C   C125      1.0  0.42657  0.10731  0.08474  1.0000
  H   H191      1.0  0.47673  0.08443  0.13687  1.0000
  H   H192      1.0  0.33117  0.50215  0.52395  1.0000
  C   C126      1.0  0.47321  0.14186  0.08969  1.0000
  H   H193      1.0  0.44847  0.09988  0.16197  1.0000
  H   H194      1.0  0.46243  0.15660  0.06261  1.0000
  H   H195      1.0  0.42300  0.17833  0.09761  1.0000
  H   H196      1.0  0.41673  0.15339  0.13854  1.0000
  H   H197      1.0  0.40901  0.09697  0.09986  1.0000
  N   N11       1.0  0.44986  0.12989  0.11052  1.0000
  H   H198      1.0  0.49039  0.16018  0.10781  1.0000
  C   C127      1.0  0.43458  0.16155  0.12284  1.0000
  H   H199      1.0  0.41398  0.12250  0.05879  1.0000
  H   H200      1.0  0.45157  0.17890  0.14267  1.0000
  C   C128      1.0  0.46521  0.10882  0.14500  1.0000
  H   H201      1.0  0.48336  0.12483  0.16465  1.0000
  H   H202      1.0  0.48638  0.11867  0.08184  1.0000
  Fe  Fe21      1.0  0.53946  0.05646  0.20327  1.0000
  H   H203      1.0  0.30633  0.53298  0.44912  1.0000
  H   H204      1.0  0.54191  0.13541  0.19751  1.0000
  C   C129      1.0  0.34543  0.48415  0.54633  1.0000
  S   S50       1.0  0.54389  0.07667  0.14483  1.0000
  H   H205      1.0  0.54893  0.06741  0.37479  1.0000
  H   H206      1.0  0.54585  0.20113  0.18971  1.0000
  C   C130      1.0  0.54624  0.14619  0.17104  1.0000
  H   H207      1.0  0.54794  0.53250  0.12129  1.0000
  C   C131      1.0  0.54855  0.18344  0.16662  1.0000
  H   H208      1.0  0.30238  0.43483  0.55014  1.0000
  C   C132      1.0  0.41359  0.52639  0.69408  1.0000
  N   N12       1.0  0.33049  0.47811  0.57882  1.0000
  C   C133      1.0  0.52637  0.32408  0.91572  1.0000
  H   H209      1.0  0.33966  0.44909  0.63282  1.0000
  C   C134      1.0  0.41539  0.52949  0.62666  1.0000
  H   H210      1.0  0.51356  0.25336  0.72682  1.0000
  C   C135      1.0  0.53620  0.51696  0.87379  1.0000
  C   C136      1.0  0.32616  0.51285  0.59684  1.0000
  H   H211      1.0  0.37326  0.46688  0.62001  1.0000
  Fe  Fe22      1.0  0.54487  0.47095  0.78905  1.0000
  H   H212      1.0  0.50467  0.32841  0.92382  1.0000
  H   H213      1.0  0.53109  0.48965  0.86420  1.0000
  H   H214      1.0  0.53998  0.21038  0.77792  1.0000
  H   H215      1.0  0.50553  0.25911  0.79277  1.0000
  C   C137      1.0  0.53207  0.34147  0.88308  1.0000
  H   H216      1.0  0.51537  0.51207  0.92272  1.0000
  H   H217      1.0  0.43697  0.48113  0.72641  1.0000
  S   S51       1.0  0.50407  0.37074  0.85627  1.0000
  H   H218      1.0  0.52641  0.29912  0.72824  1.0000
  Fe  Fe23      1.0  0.49798  0.43224  0.72721  1.0000
  S   S52       1.0  0.46127  0.43938  0.67190  1.0000
  Fe  Fe24      1.0  0.51827  0.40083  0.80829  1.0000
  H   H219      1.0  0.31078  0.53111  0.57601  1.0000
  S   S53       1.0  0.49618  0.45342  0.78568  1.0000
  H   H220      1.0  0.31574  0.50938  0.62216  1.0000
  H   H221      1.0  0.34848  0.52702  0.60720  1.0000
  C   C138      1.0  0.44085  0.48021  0.66724  1.0000
  C   C139      1.0  0.43264  0.49746  0.63112  1.0000
  C   C140      1.0  0.52739  0.52960  0.90689  1.0000
  C   C141      1.0  0.35028  0.45446  0.60797  1.0000
  H   H222      1.0  0.35456  0.42819  0.59533  1.0000
  C   C142      1.0  0.43133  0.49478  0.69873  1.0000
  H   H223      1.0  0.44001  0.48624  0.60670  1.0000
  S   S54       1.0  0.51525  0.37751  0.74948  1.0000
  H   H224      1.0  0.53670  0.27253  0.83198  1.0000
  H   H225      1.0  0.51879  0.30473  0.79601  1.0000
  H   H226      1.0  0.54532  0.35712  0.68339  1.0000
  N   N13       1.0  0.54898  0.26704  0.77720  1.0000
  C   C143      1.0  0.52651  0.27621  0.80046  1.0000
  H   H227      1.0  0.36859  0.49674  0.55642  1.0000
  H   H228      1.0  0.53060  0.30904  0.63440  1.0000
  H   H229      1.0  0.53195  0.40092  0.93494  1.0000
  C   C144      1.0  0.30005  0.46108  0.56407  1.0000
  H   H230      1.0  0.53397  0.41743  0.98279  1.0000
  H   H231      1.0  0.53188  0.44827  0.94309  1.0000
  H   H232      1.0  0.54422  0.28784  0.96327  1.0000
  C   C145      1.0  0.53414  0.27098  0.73561  1.0000
  C   C146      1.0  0.54200  0.42236  0.95583  1.0000
  S   S55       1.0  0.54525  0.45394  0.72865  1.0000
  C   C147      1.0  0.54875  0.30122  0.93811  1.0000
  Fe  Fe25      1.0  0.36635  0.63139  0.51497  1.0000
  S   S56       1.0  0.39985  0.64064  0.47684  1.0000
  S   S57       1.0  0.31531  0.64223  0.49412  1.0000
  C   C148      1.0  0.45453  0.67524  0.47822  1.0000
  C   C149      1.0  0.42771  0.67427  0.49258  1.0000
  H   H233      1.0  0.45849  0.65447  0.45872  1.0000
  H   H234      1.0  0.45416  0.95345  0.14204  1.0000
  Fe  Fe26      1.0  0.30813  0.88715  0.07452  1.0000
  H   H235      1.0  0.43573  0.91660  0.11305  1.0000
  S   S58       1.0  0.53075  0.76075  0.43007  1.0000
  H   H236      1.0  0.43283  0.69994  0.40120  1.0000
  H   H237      1.0  0.46777  0.72574  0.41075  1.0000
  C   C150      1.0  0.47629  0.70288  0.48916  1.0000
  Fe  Fe27      1.0  0.30936  0.58961  0.52261  1.0000
  H   H238      1.0  0.46160  0.90662  0.23639  1.0000
  H   H239      1.0  0.49764  0.91403  0.17357  1.0000
  Fe  Fe28      1.0  0.52759  0.78181  0.48810  1.0000
  C   C151      1.0  0.42289  0.70101  0.51802  1.0000
  Fe  Fe29      1.0  0.52967  0.81868  0.41206  1.0000
  S   S59       1.0  0.49967  0.84059  0.35682  1.0000
  H   H240      1.0  0.47955  0.87716  0.14425  1.0000
  S   S60       1.0  0.52146  0.83890  0.46789  1.0000
  H   H241      1.0  0.35060  0.98801  0.14953  1.0000
  H   H242      1.0  0.38258  0.72949  0.37513  1.0000
  H   H243      1.0  0.45812  0.03341  0.17329  1.0000
  C   C152      1.0  0.42834  0.87495  0.17186  1.0000
  H   H244      1.0  0.46556  0.79130  0.39608  1.0000
  C   C153      1.0  0.52599  0.92147  0.29561  1.0000
  H   H245      1.0  0.42921  0.81252  0.37601  1.0000
  C   C154      1.0  0.52116  0.86707  0.33171  1.0000
  C   C155      1.0  0.50814  0.89850  0.31294  1.0000
  C   C156      1.0  0.43835  0.93025  0.14148  1.0000
  H   H246      1.0  0.48455  0.90568  0.31287  1.0000
  H   H247      1.0  0.51595  0.94599  0.28175  1.0000
  C   C157      1.0  0.44476  0.72830  0.52935  1.0000
  C   C158      1.0  0.38591  0.00943  0.12357  1.0000
  H   H248      1.0  0.42581  0.02982  0.10624  1.0000
  H   H249      1.0  0.38282  0.99198  0.21672  1.0000
  C   C159      1.0  0.47134  0.72951  0.51470  1.0000
  S   S61       1.0  0.49684  0.76580  0.52739  1.0000
  H   H250      1.0  0.43642  0.85548  0.19592  1.0000
  S   S62       1.0  0.53149  0.02130  0.30363  1.0000
  H   H251      1.0  0.39679  0.74591  0.33493  1.0000
  C   C160      1.0  0.45252  0.92446  0.21109  1.0000
  C   C161      1.0  0.37403  0.99797  0.15468  1.0000
  S   S63       1.0  0.51875  0.00251  0.20989  1.0000
  H   H252      1.0  0.40488  0.88438  0.17335  1.0000
  H   H253      1.0  0.41239  0.74153  0.44284  1.0000
  H   H254      1.0  0.49698  0.70340  0.47813  1.0000
  C   C162      1.0  0.48076  0.89171  0.17193  1.0000
  S   S64       1.0  0.36306  0.00846  0.07616  1.0000
  S   S65       1.0  0.35633  0.90667  0.09960  1.0000
  C   C163      1.0  0.43462  0.02393  0.16822  1.0000
  H   H255      1.0  0.44769  0.71698  0.36178  1.0000
  H   H256      1.0  0.41530  0.94124  0.14243  1.0000
  H   H257      1.0  0.52259  0.96536  0.41834  1.0000
  H   H258      1.0  0.38089  0.77668  0.36400  1.0000
  H   H259      1.0  0.46827  0.94794  0.21356  1.0000
  N   N14       1.0  0.45000  0.90534  0.17411  1.0000
  S   S66       1.0  0.35996  0.57612  0.53800  1.0000
  C   C164      1.0  0.39223  0.00030  0.19263  1.0000
  H   H260      1.0  0.44565  0.78195  0.34728  1.0000
  H   H261      1.0  0.42968  0.93491  0.21386  1.0000
  H   H262      1.0  0.40194  0.70125  0.52830  1.0000
  N   N15       1.0  0.42622  0.75669  0.39087  1.0000
  C   C165      1.0  0.42308  0.76444  0.43052  1.0000
  C   C166      1.0  0.44440  0.72339  0.39111  1.0000
  C   C167      1.0  0.44224  0.78688  0.37688  1.0000
  C   C168      1.0  0.39523  0.75201  0.36506  1.0000
  H   H263      1.0  0.40854  0.78862  0.43130  1.0000
  H   H264      1.0  0.44599  0.76962  0.45035  1.0000
  H   H265      1.0  0.49031  0.87284  0.19616  1.0000
  H   H266      1.0  0.42571  0.86007  0.14415  1.0000
  S   S67       1.0  0.44522  0.01562  0.24691  1.0000
  C   C169      1.0  0.42249  0.01346  0.19944  1.0000
  C   C170      1.0  0.41628  0.02216  0.13037  1.0000
  Fe  Fe30      1.0  0.49445  0.03092  0.24959  1.0000
  H   H267      1.0  0.51943  0.56253  0.09327  1.0000
  Fe  Fe31      1.0  0.34342  0.95358  0.05973  1.0000
  H   H268      1.0  0.53559  0.00481  0.39752  1.0000
  C   C171      1.0  0.53754  0.97501  0.39932  1.0000
  C   C172      1.0  0.54424  0.55996  0.10847  1.0000
  H   H269      1.0  0.52771  0.96430  0.36977  1.0000
  S   S68       1.0  0.41599  0.85398  0.06074  1.0000
  H   H270      1.0  0.44064  0.74900  0.54883  1.0000
  H   H271      1.0  0.54870  0.57938  0.13292  1.0000
  Fe  Fe32      1.0  0.52205  0.64173  0.96046  1.0000
  S   S69       1.0  0.52179  0.58122  0.95980  1.0000
  H   H272      1.0  0.36966  0.80176  0.86929  1.0000
  S   S70       1.0  0.32154  0.85568  0.02718  1.0000
  S   S71       1.0  0.50394  0.67343  0.00399  1.0000
  H   H273      1.0  0.50643  0.80830  0.64740  1.0000
  H   H274      1.0  0.34966  0.88840  0.93809  1.0000
  H   H275      1.0  0.53336  0.54240  0.03353  1.0000
  H   H276      1.0  0.51664  0.58490  0.72998  1.0000
  H   H277      1.0  0.51521  0.62832  0.75168  1.0000
  H   H278      1.0  0.49570  0.59942  0.82388  1.0000
  C   C173      1.0  0.47788  0.60851  0.79803  1.0000
  H   H279      1.0  0.45485  0.60274  0.80384  1.0000
  H   H280      1.0  0.52808  0.82590  0.57353  1.0000
  C   C174      1.0  0.45752  0.60288  0.72899  1.0000
  C   C175      1.0  0.54823  0.58812  0.89784  1.0000
  C   C176      1.0  0.36785  0.87112  0.93071  1.0000
  H   H281      1.0  0.40562  0.53707  0.71829  1.0000
  C   C177      1.0  0.37910  0.82275  0.89104  1.0000
  H   H282      1.0  0.53132  0.59055  0.78094  1.0000
  H   H283      1.0  0.39306  0.80868  0.91700  1.0000
  N   N16       1.0  0.48175  0.59041  0.76249  1.0000
  H   H284      1.0  0.48007  0.63818  0.79587  1.0000
  H   H285      1.0  0.52648  0.76607  0.65703  1.0000
  S   S72       1.0  0.52499  0.74605  0.96269  1.0000
  H   H286      1.0  0.52497  0.84561  0.86504  1.0000
  C   C178      1.0  0.52115  0.78884  0.63613  1.0000
  C   C179      1.0  0.33273  0.82115  0.91537  1.0000
  Fe  Fe33      1.0  0.48356  0.71005  0.95430  1.0000
  S   S73       1.0  0.43475  0.73057  0.94665  1.0000
  H   H287      1.0  0.52538  0.78142  0.88444  1.0000
  Fe  Fe34      1.0  0.31059  0.90706  0.99312  1.0000
  S   S74       1.0  0.35904  0.92781  0.01078  1.0000
  C   C180      1.0  0.53326  0.56527  0.91881  1.0000
  S   S75       1.0  0.30984  0.61440  0.58024  1.0000
  H   H288      1.0  0.38449  0.88908  0.92094  1.0000
  C   C181      1.0  0.42995  0.76249  0.98115  1.0000
  C   C182      1.0  0.40008  0.77151  0.98449  1.0000
  C   C183      1.0  0.39555  0.79923  0.00932  1.0000
  C   C184      1.0  0.42095  0.81781  0.03111  1.0000
  H   H289      1.0  0.40988  0.54315  0.59901  1.0000
  C   C185      1.0  0.45537  0.78025  0.00400  1.0000
  H   H290      1.0  0.45948  0.58928  0.70179  1.0000
  H   H291      1.0  0.37250  0.80609  0.01182  1.0000
  H   H292      1.0  0.47849  0.77318  0.00203  1.0000
  C   C186      1.0  0.51253  0.59900  0.75590  1.0000
  S   S76       1.0  0.49783  0.67519  0.90976  1.0000
  Fe  Fe35      1.0  0.31969  0.66592  0.55309  1.0000
  H   H293      1.0  0.38047  0.75706  0.96764  1.0000
  S   S77       1.0  0.37116  0.65865  0.57221  1.0000
  H   H294      1.0  0.38053  0.85776  0.95791  1.0000
  S   S78       1.0  0.38369  0.58364  0.65372  1.0000
  H   H295      1.0  0.50697  0.77793  0.60851  1.0000
  C   C187      1.0  0.40573  0.54392  0.65814  1.0000
  Fe  Fe36      1.0  0.36098  0.60448  0.59385  1.0000
  Fe  Fe37      1.0  0.54657  0.70669  0.00921  1.0000
  H   H296      1.0  0.39538  0.83955  0.87916  1.0000
  H   H297      1.0  0.34473  0.80657  0.94197  1.0000
  C   C188      1.0  0.54238  0.82763  0.85903  1.0000
  C   C189      1.0  0.47914  0.55116  0.76706  1.0000
  H   H298      1.0  0.45894  0.63231  0.72428  1.0000
  C   C190      1.0  0.45087  0.80783  0.02895  1.0000
  H   H299      1.0  0.43390  0.59720  0.73299  1.0000
  N   N17       1.0  0.35421  0.84467  0.90070  1.0000
  H   H300      1.0  0.52722  0.85645  0.61228  1.0000
  H   H301      1.0  0.47062  0.82185  0.04609  1.0000
  Fe  Fe38      1.0  0.36867  0.87941  0.04929  1.0000
  H   H302      1.0  0.45601  0.54354  0.77126  1.0000
  C   C191      1.0  0.54264  0.79136  0.87012  1.0000
  Fe  Fe39      1.0  0.54117  0.70808  0.92263  1.0000
  C   C192      1.0  0.54148  0.83572  0.60212  1.0000
  H   H303      1.0  0.35238  0.88208  0.85397  1.0000
  C   C193      1.0  0.33701  0.86381  0.86570  1.0000
  H   H304      1.0  0.31367  0.83689  0.92292  1.0000
  H   H305      1.0  0.48293  0.53651  0.74129  1.0000
  H   H306      1.0  0.49660  0.54097  0.79256  1.0000
  H   H307      1.0  0.31800  0.88053  0.87212  1.0000
  H   H308      1.0  0.32636  0.84470  0.84241  1.0000
  H   H309      1.0  0.32205  0.80073  0.89358  1.0000
  H   H310      1.0  0.53492  0.60717  0.04903  1.0000
  H   H311      1.0  0.76281  0.20165  0.13929  1.0000
  C   C194      1.0  0.57780  0.11404  0.37816  1.0000
  S   S79       1.0  0.67595  0.25954  0.52689  1.0000
  Fe  Fe40      1.0  0.59117  0.26556  0.09433  1.0000
  S   S80       1.0  0.63238  0.29540  0.12854  1.0000
  C   C195      1.0  0.59740  0.13821  0.44288  1.0000
  Fe  Fe41      1.0  0.62300  0.33444  0.07891  1.0000
  Fe  Fe42      1.0  0.65884  0.26322  0.09385  1.0000
  S   S81       1.0  0.70575  0.24056  0.12259  1.0000
  H   H312      1.0  0.78433  0.21016  0.06908  1.0000
  H   H313      1.0  0.56247  0.51264  0.06072  1.0000
  H   H314      1.0  0.62844  0.36935  0.53273  1.0000
  C   C196      1.0  0.71458  0.19648  0.11109  1.0000
  H   H315      1.0  0.55770  0.11984  0.08402  1.0000
  C   C197      1.0  0.75338  0.15033  0.11136  1.0000
  C   C198      1.0  0.74520  0.18440  0.12245  1.0000
  H   H316      1.0  0.66832  0.18271  0.08065  1.0000
  H   H317      1.0  0.79032  0.23322  0.52223  1.0000
  H   H318      1.0  0.69333  0.20771  0.20175  1.0000
  H   H319      1.0  0.64370  0.24022  0.19530  1.0000
  H   H320      1.0  0.60891  0.21588  0.19432  1.0000
  H   H321      1.0  0.68815  0.18756  0.24596  1.0000
  H   H322      1.0  0.76582  0.53074  0.47456  1.0000
  H   H323      1.0  0.69469  0.15985  0.20726  1.0000
  H   H324      1.0  0.72501  0.38265  0.30066  1.0000
  H   H325      1.0  0.79719  0.28056  0.52688  1.0000
  H   H326      1.0  0.65241  0.43192  0.30412  1.0000
  C   C199      1.0  0.56275  0.08680  0.39374  1.0000
  C   C200      1.0  0.56498  0.08536  0.43383  1.0000
  C   C201      1.0  0.73973  0.52761  0.36986  1.0000
  H   H327      1.0  0.59246  0.32117  0.54432  1.0000
  N   N18       1.0  0.64912  0.18277  0.19745  1.0000
  C   C202      1.0  0.64337  0.17920  0.15502  1.0000
  C   C203      1.0  0.63604  0.15143  0.21366  1.0000
  C   C204      1.0  0.63429  0.21602  0.20695  1.0000
  C   C205      1.0  0.68281  0.18454  0.21395  1.0000
  H   H328      1.0  0.65262  0.20266  0.14196  1.0000
  H   H329      1.0  0.61827  0.17763  0.14150  1.0000
  H   H330      1.0  0.65443  0.15459  0.14668  1.0000
  H   H331      1.0  0.63974  0.15325  0.24568  1.0000
  H   H332      1.0  0.61066  0.14933  0.20155  1.0000
  H   H333      1.0  0.64657  0.12582  0.20693  1.0000
  H   H334      1.0  0.63774  0.21942  0.23876  1.0000
  Fe  Fe43      1.0  0.60990  0.15398  0.54461  1.0000
  H   H335      1.0  0.77760  0.49478  0.50844  1.0000
  S   S82       1.0  0.58530  0.10813  0.50860  1.0000
  Fe  Fe44      1.0  0.63302  0.52552  0.24727  1.0000
  C   C206      1.0  0.55490  0.19784  0.13286  1.0000
  Fe  Fe45      1.0  0.55169  0.07311  0.28871  1.0000
  H   H336      1.0  0.68112  0.44829  0.34456  1.0000
  H   H337      1.0  0.74525  0.44453  0.29224  1.0000
  H   H338      1.0  0.70579  0.41769  0.23987  1.0000
  C   C207      1.0  0.58238  0.11100  0.45845  1.0000
  C   C208      1.0  0.71438  0.51239  0.38073  1.0000
  H   H339      1.0  0.68594  0.37758  0.30576  1.0000
  H   H340      1.0  0.77720  0.14145  0.11959  1.0000
  C   C209      1.0  0.69193  0.17374  0.08980  1.0000
  H   H341      1.0  0.76512  0.24648  0.08737  1.0000
  H   H342      1.0  0.70756  0.31946  0.50494  1.0000
  C   C210      1.0  0.70653  0.39543  0.31242  1.0000
  C   C211      1.0  0.76955  0.51433  0.38601  1.0000
  S   S83       1.0  0.55848  0.24456  0.12893  1.0000
  H   H343      1.0  0.60445  0.36890  0.14618  1.0000
  S   S84       1.0  0.60179  0.21316  0.53588  1.0000
  C   C212      1.0  0.59506  0.13972  0.40281  1.0000
  H   H344      1.0  0.66876  0.47548  0.30194  1.0000
  H   H345      1.0  0.61078  0.15814  0.46167  1.0000
  H   H346      1.0  0.66684  0.41247  0.24515  1.0000
  S   S85       1.0  0.62674  0.39505  0.08068  1.0000
  C   C213      1.0  0.55836  0.17485  0.10313  1.0000
  S   S86       1.0  0.61346  0.46978  0.23591  1.0000
  S   S87       1.0  0.75198  0.43173  0.45248  1.0000
  C   C214      1.0  0.73066  0.12746  0.09059  1.0000
  C   C215      1.0  0.61640  0.44976  0.19212  1.0000
  C   C216      1.0  0.62807  0.46881  0.16469  1.0000
  C   C217      1.0  0.63095  0.45189  0.13041  1.0000
  C   C218      1.0  0.62270  0.41571  0.12373  1.0000
  C   C219      1.0  0.61116  0.39667  0.15125  1.0000
  C   C220      1.0  0.60786  0.41374  0.18524  1.0000
  H   H347      1.0  0.63499  0.49650  0.16998  1.0000
  H   H348      1.0  0.64007  0.46668  0.10932  1.0000
  C   C221      1.0  0.67429  0.44751  0.31245  1.0000
  H   H349      1.0  0.59876  0.39891  0.20633  1.0000
  H   H350      1.0  0.60663  0.16093  0.39086  1.0000
  C   C222      1.0  0.72671  0.45461  0.30571  1.0000
  C   C223      1.0  0.71868  0.48353  0.40691  1.0000
  C   C224      1.0  0.74827  0.46946  0.42204  1.0000
  C   C225      1.0  0.77382  0.48505  0.41185  1.0000
  H   H351      1.0  0.78922  0.52602  0.37753  1.0000
  H   H352      1.0  0.71489  0.39637  0.34455  1.0000
  H   H353      1.0  0.69891  0.47180  0.41516  1.0000
  H   H354      1.0  0.75670  0.34925  0.53535  1.0000
  H   H355      1.0  0.73643  0.45545  0.33748  1.0000
  H   H356      1.0  0.68172  0.45636  0.24031  1.0000
  H   H357      1.0  0.72143  0.48283  0.29569  1.0000
  N   N19       1.0  0.69888  0.43174  0.29600  1.0000
  C   C226      1.0  0.68793  0.42939  0.25349  1.0000
  S   S88       1.0  0.57542  0.11697  0.32809  1.0000
  H   H358      1.0  0.69142  0.52286  0.36903  1.0000
  H   H359      1.0  0.55275  0.06483  0.44573  1.0000
  H   H360      1.0  0.79668  0.47406  0.42316  1.0000
  C   C227      1.0  0.54931  0.12316  0.14121  1.0000
  Fe  Fe46      1.0  0.78472  0.08845  0.05612  1.0000
  H   H361      1.0  0.65945  0.33734  0.53956  1.0000
  C   C228      1.0  0.72140  0.30929  0.53209  1.0000
  Fe  Fe47      1.0  0.79819  0.41364  0.48846  1.0000
  S   S89       1.0  0.74072  0.08490  0.07643  1.0000
  C   C229      1.0  0.69983  0.13899  0.08033  1.0000
  C   C230      1.0  0.77713  0.23883  0.06438  1.0000
  H   H362      1.0  0.68214  0.12132  0.06439  1.0000
  S   S90       1.0  0.58061  0.04715  0.25239  1.0000
  C   C231      1.0  0.55542  0.13756  0.10726  1.0000
  H   H363      1.0  0.56293  0.18582  0.07681  1.0000
  H   H364      1.0  0.59051  0.03621  0.53817  1.0000
  S   S91       1.0  0.61832  0.23062  0.06300  1.0000
  C   C232      1.0  0.77655  0.52458  0.50549  1.0000
  H   H365      1.0  0.79875  0.25486  0.06872  1.0000
  H   H366      1.0  0.76052  0.53460  0.52288  1.0000
  H   H367      1.0  0.60252  0.53529  0.11476  1.0000
  H   H368      1.0  0.62396  0.29010  0.54921  1.0000
  C   C233      1.0  0.74943  0.32603  0.54913  1.0000
  C   C234      1.0  0.71122  0.27956  0.54984  1.0000
  H   H369      1.0  0.69573  0.09608  0.00422  1.0000
  H   H370      1.0  0.58218  0.44667  0.01961  1.0000
  Fe  Fe48      1.0  0.60072  0.21514  0.59862  1.0000
  S   S92       1.0  0.65162  0.22449  0.62023  1.0000
  C   C235      1.0  0.57669  0.29527  0.92753  1.0000
  C   C236      1.0  0.63513  0.05844  0.59777  1.0000
  H   H371      1.0  0.57609  0.40822  0.90499  1.0000
  Fe  Fe49      1.0  0.65514  0.16429  0.62204  1.0000
  S   S93       1.0  0.68557  0.13211  0.66994  1.0000
  C   C237      1.0  0.65997  0.32034  0.61316  1.0000
  S   S94       1.0  0.60401  0.15537  0.60547  1.0000
  C   C238      1.0  0.57474  0.28216  0.65000  1.0000
  S   S95       1.0  0.60492  0.26685  0.95514  1.0000
  H   H372      1.0  0.62492  0.14159  0.68484  1.0000
  N   N20       1.0  0.57612  0.42263  0.96348  1.0000
  H   H373      1.0  0.65444  0.04133  0.59316  1.0000
  H   H374      1.0  0.66476  0.07174  0.90067  1.0000
  H   H375      1.0  0.76754  0.30085  0.02457  1.0000
  H   H376      1.0  0.63379  0.38420  0.61942  1.0000
  H   H377      1.0  0.63560  0.30991  0.72096  1.0000
  H   H378      1.0  0.57945  0.47820  0.98018  1.0000
  C   C239      1.0  0.60438  0.28259  0.67433  1.0000
  C   C240      1.0  0.61274  0.30990  0.70188  1.0000
  H   H379      1.0  0.72128  0.24396  0.59914  1.0000
  S   S96       1.0  0.56686  0.42023  0.81627  1.0000
  H   H380      1.0  0.62065  0.26147  0.67255  1.0000
  H   H381      1.0  0.67229  0.30007  0.59937  1.0000
  H   H382      1.0  0.73592  0.19270  0.02568  1.0000
  H   H383      1.0  0.73424  0.29034  0.04301  1.0000
  H   H384      1.0  0.74087  0.05470  0.96868  1.0000
  C   C241      1.0  0.76788  0.31271  0.58372  1.0000
  Fe  Fe50      1.0  0.56246  0.40096  0.75541  1.0000
  H   H385      1.0  0.71169  0.11090  0.96503  1.0000
  H   H386      1.0  0.58078  0.38120  0.00681  1.0000
  C   C242      1.0  0.62772  0.05994  0.72887  1.0000
  S   S97       1.0  0.66157  0.15886  0.56149  1.0000
  C   C243      1.0  0.67678  0.07412  0.71361  1.0000
  C   C244      1.0  0.66434  0.10627  0.69598  1.0000
  C   C245      1.0  0.63419  0.11612  0.69680  1.0000
  C   C246      1.0  0.61588  0.09294  0.71306  1.0000
  C   C247      1.0  0.59137  0.33658  0.70559  1.0000
  H   H387      1.0  0.70026  0.06664  0.71345  1.0000
  H   H388      1.0  0.61114  0.42887  0.93126  1.0000
  C   C248      1.0  0.58845  0.45134  0.99141  1.0000
  H   H389      1.0  0.77155  0.27301  0.62890  1.0000
  H   H390      1.0  0.58058  0.36546  0.95915  1.0000
  H   H391      1.0  0.78192  0.20692  0.99837  1.0000
  H   H392      1.0  0.59223  0.10024  0.71255  1.0000
  C   C249      1.0  0.61261  0.30939  0.56533  1.0000
  C   C250      1.0  0.55960  0.22957  0.78534  1.0000
  C   C251      1.0  0.58296  0.06088  0.60641  1.0000
  Fe  Fe51      1.0  0.65328  0.21849  0.55802  1.0000
  C   C252      1.0  0.77434  0.23548  0.99588  1.0000
  H   H393      1.0  0.71439  0.22393  0.99066  1.0000
  H   H394      1.0  0.65136  0.30633  0.63623  1.0000
  H   H395      1.0  0.56468  0.34903  0.84761  1.0000
  C   C253      1.0  0.69229  0.09556  0.97219  1.0000
  H   H396      1.0  0.57699  0.45561  0.91385  1.0000
  H   H397      1.0  0.58794  0.28880  0.81832  1.0000
  H   H398      1.0  0.72503  0.03901  0.00763  1.0000
  H   H399      1.0  0.73401  0.05605  0.84686  1.0000
  H   H400      1.0  0.61417  0.38720  0.98755  1.0000
  C   C254      1.0  0.58843  0.38760  0.97989  1.0000
  S   S98       1.0  0.78098  0.12796  0.00785  1.0000
  H   H401      1.0  0.59298  0.28579  0.76986  1.0000
  C   C255      1.0  0.56182  0.33636  0.68103  1.0000
  S   S99       1.0  0.56334  0.24788  0.61586  1.0000
  S   S100      1.0  0.60175  0.36885  0.74218  1.0000
  Fe  Fe52      1.0  0.61073  0.27519  0.01900  1.0000
  H   H402      1.0  0.60410  0.30820  0.88688  1.0000
  H   H403      1.0  0.57101  0.22567  0.81651  1.0000
  C   C256      1.0  0.58555  0.42916  0.92684  1.0000
  C   C257      1.0  0.75745  0.28336  0.60202  1.0000
  C   C258      1.0  0.72907  0.26684  0.58517  1.0000
  N   N21       1.0  0.63440  0.33730  0.58442  1.0000
  S   S101      1.0  0.65359  0.30503  0.04736  1.0000
  C   C259      1.0  0.65850  0.05098  0.73014  1.0000
  S   S102      1.0  0.56190  0.52549  0.81085  1.0000
  C   C260      1.0  0.57580  0.29142  0.78735  1.0000
  H   H404      1.0  0.59073  0.07649  0.63358  1.0000
  C   C261      1.0  0.56013  0.33574  0.87272  1.0000
  H   H405      1.0  0.64386  0.07387  0.62483  1.0000
  C   C262      1.0  0.58230  0.31243  0.89474  1.0000
  H   H406      1.0  0.56864  0.32000  0.78204  1.0000
  N   N22       1.0  0.75704  0.24460  0.02537  1.0000
  C   C263      1.0  0.55355  0.30920  0.65327  1.0000
  S   S103      1.0  0.57943  0.30739  0.04720  1.0000
  H   H407      1.0  0.62967  0.07837  0.57369  1.0000
  H   H408      1.0  0.73187  0.28794  0.99195  1.0000
  H   H409      1.0  0.67044  0.11019  0.95939  1.0000
  N   N23       1.0  0.69148  0.05833  0.95776  1.0000
  H   H410      1.0  0.60783  0.34928  0.62617  1.0000
  S   S104      1.0  0.77857  0.07732  0.91512  1.0000
  H   H411      1.0  0.76013  0.23981  0.96600  1.0000
  C   C264      1.0  0.72942  0.22149  0.02035  1.0000
  H   H412      1.0  0.71507  0.22903  0.04091  1.0000
  C   C265      1.0  0.74727  0.28265  0.02098  1.0000
  C   C266      1.0  0.68706  0.05889  0.91523  1.0000
  H   H413      1.0  0.61416  0.45226  0.99773  1.0000
  C   C267      1.0  0.64708  0.35628  0.55498  1.0000
  H   H414      1.0  0.79572  0.25188  0.99936  1.0000
  H   H415      1.0  0.70588  0.07412  0.90650  1.0000
  H   H416      1.0  0.57581  0.08060  0.58230  1.0000
  H   H417      1.0  0.67734  0.34046  0.62742  1.0000
  H   H418      1.0  0.56206  0.04559  0.60884  1.0000
  H   H419      1.0  0.57662  0.22189  0.76821  1.0000
  H   H420      1.0  0.66388  0.37736  0.56827  1.0000
  H   H421      1.0  0.64308  0.05163  0.95534  1.0000
  H   H422      1.0  0.59863  0.37652  0.58335  1.0000
  H   H423      1.0  0.60347  0.29359  0.58672  1.0000
  C   C268      1.0  0.61798  0.36302  0.60416  1.0000
  C   C269      1.0  0.72097  0.04021  0.97552  1.0000
  H   H424      1.0  0.66856  0.03770  0.00015  1.0000
  C   C270      1.0  0.66575  0.03868  0.96817  1.0000
  H   H425      1.0  0.55039  0.26378  0.71727  1.0000
  N   N24       1.0  0.60771  0.03684  0.59987  1.0000
  Fe  Fe53      1.0  0.68737  0.56746  0.29442  1.0000
  H   H426      1.0  0.60644  0.96903  0.46522  1.0000
  H   H427      1.0  0.58825  0.00653  0.38557  1.0000
  Fe  Fe54      1.0  0.65790  0.58935  0.21141  1.0000
  S   S105      1.0  0.61032  0.57440  0.21633  1.0000
  S   S106      1.0  0.66628  0.60696  0.15422  1.0000
  Fe  Fe55      1.0  0.62352  0.60121  0.27448  1.0000
  S   S107      1.0  0.58771  0.63839  0.28892  1.0000
  S   S108      1.0  0.66959  0.62036  0.26686  1.0000
  S   S109      1.0  0.73461  0.56217  0.33512  1.0000
  C   C271      1.0  0.59590  0.66162  0.33326  1.0000
  C   C272      1.0  0.62472  0.65888  0.35933  1.0000
  C   C273      1.0  0.57373  0.68550  0.34100  1.0000
  H   H428      1.0  0.64197  0.64052  0.35359  1.0000
  H   H429      1.0  0.64405  0.73019  0.21956  1.0000
  C   C274      1.0  0.59899  0.69230  0.09178  1.0000
  C   C275      1.0  0.61788  0.67365  0.07213  1.0000
  C   C276      1.0  0.63899  0.64800  0.09175  1.0000
  C   C277      1.0  0.64083  0.64044  0.13084  1.0000
  C   C278      1.0  0.62154  0.65859  0.15036  1.0000
  C   C279      1.0  0.60093  0.68490  0.13095  1.0000
  H   H430      1.0  0.65381  0.63382  0.07658  1.0000
  N   N25       1.0  0.62136  0.74267  0.26522  1.0000
  H   H431      1.0  0.61338  0.96818  0.39751  1.0000
  H   H432      1.0  0.61185  0.70195  0.22151  1.0000
  H   H433      1.0  0.55137  0.68768  0.32097  1.0000
  C   C280      1.0  0.58050  0.70720  0.37410  1.0000
  H   H434      1.0  0.55721  0.91276  0.43512  1.0000
  C   C281      1.0  0.63139  0.68039  0.39271  1.0000
  H   H435      1.0  0.62260  0.65231  0.18036  1.0000
  H   H436      1.0  0.59542  0.91384  0.42688  1.0000
  H   H437      1.0  0.60261  0.58136  0.12860  1.0000
  S   S110      1.0  0.57876  0.78695  0.51147  1.0000
  H   H438      1.0  0.78959  0.59260  0.52831  1.0000
  H   H439      1.0  0.66663  0.72119  0.29043  1.0000
  H   H440      1.0  0.56834  0.96849  0.47365  1.0000
  C   C282      1.0  0.56948  0.88079  0.31425  1.0000
  H   H441      1.0  0.65373  0.67830  0.41279  1.0000
  S   S111      1.0  0.58031  0.94289  0.27844  1.0000
  C   C283      1.0  0.60934  0.70471  0.40013  1.0000
  H   H442      1.0  0.58038  0.71326  0.26774  1.0000
  S   S112      1.0  0.58082  0.82741  0.42958  1.0000
  Fe  Fe56      1.0  0.58180  0.77056  0.45140  1.0000
  C   C284      1.0  0.55684  0.91290  0.29678  1.0000
  S   S113      1.0  0.57300  0.72500  0.06780  1.0000
  C   C285      1.0  0.58218  0.97794  0.45318  1.0000
  C   C286      1.0  0.62061  0.73002  0.22564  1.0000
  H   H443      1.0  0.58193  0.00783  0.45299  1.0000
  H   H444      1.0  0.58964  0.74908  0.30208  1.0000
  H   H445      1.0  0.59328  0.87402  0.31504  1.0000
  Fe  Fe57      1.0  0.57285  0.84296  0.48742  1.0000
  H   H446      1.0  0.58597  0.69897  0.14596  1.0000
  N   N26       1.0  0.56997  0.96337  0.41397  1.0000
  C   C287      1.0  0.58986  0.74098  0.27201  1.0000
  S   S114      1.0  0.64200  0.55061  0.30635  1.0000
  S   S115      1.0  0.58932  0.89432  0.51938  1.0000
  N   N27       1.0  0.56467  0.56682  0.08187  1.0000
  C   C288      1.0  0.58880  0.97666  0.38764  1.0000
  S   S116      1.0  0.67980  0.53822  0.23797  1.0000
  S   S117      1.0  0.61861  0.73226  0.44148  1.0000
  H   H447      1.0  0.65619  0.78246  0.26466  1.0000
  H   H448      1.0  0.79556  0.58674  0.48045  1.0000
  C   C289      1.0  0.55920  0.60361  0.06590  1.0000
  H   H449      1.0  0.56376  0.62413  0.08921  1.0000
  H   H450      1.0  0.64220  0.72669  0.32387  1.0000
  C   C290      1.0  0.59723  0.56302  0.10334  1.0000
  C   C291      1.0  0.64238  0.71944  0.29353  1.0000
  C   C292      1.0  0.57134  0.92374  0.41571  1.0000
  H   H451      1.0  0.61355  0.56958  0.08487  1.0000
  H   H452      1.0  0.63336  0.79020  0.29944  1.0000
  H   H453      1.0  0.63553  0.69075  0.28955  1.0000
  H   H454      1.0  0.56345  0.72596  0.37932  1.0000
  C   C293      1.0  0.63251  0.78012  0.26973  1.0000
  C   C294      1.0  0.55167  0.85791  0.33172  1.0000
  H   H455      1.0  0.58017  0.96614  0.35778  1.0000
  H   H456      1.0  0.61709  0.79847  0.24895  1.0000
  Fe  Fe58      1.0  0.55693  0.99624  0.26296  1.0000
  H   H457      1.0  0.56162  0.83328  0.34541  1.0000
  H   H458      1.0  0.60518  0.74700  0.20333  1.0000
  H   H459      1.0  0.56246  0.91184  0.38667  1.0000
  H   H460      1.0  0.57353  0.75885  0.25179  1.0000
  S   S118      1.0  0.56663  0.67182  0.97018  1.0000
  N   N28       1.0  0.61492  0.79365  0.97974  1.0000
  H   H461      1.0  0.57234  0.54591  0.02864  1.0000
  H   H462      1.0  0.62045  0.77206  0.03732  1.0000
  H   H463      1.0  0.55286  0.61566  0.90678  1.0000
  N   N29       1.0  0.74902  0.89285  0.77162  1.0000
  H   H464      1.0  0.70617  0.88729  0.78848  1.0000
  S   S119      1.0  0.56712  0.72305  0.87758  1.0000
  C   C295      1.0  0.77059  0.00466  0.92324  1.0000
  C   C296      1.0  0.72815  0.87250  0.79055  1.0000
  Fe  Fe59      1.0  0.62087  0.97459  0.76367  1.0000
  S   S120      1.0  0.66649  0.95164  0.75899  1.0000
  C   C297      1.0  0.73401  0.89790  0.73017  1.0000
  Fe  Fe60      1.0  0.60214  0.90788  0.80159  1.0000
  S   S121      1.0  0.64603  0.87908  0.80034  1.0000
  S   S122      1.0  0.56414  0.88652  0.82776  1.0000
  Fe  Fe61      1.0  0.66949  0.93133  0.81918  1.0000
  S   S123      1.0  0.71387  0.92844  0.86508  1.0000
  Fe  Fe62      1.0  0.63960  0.90147  0.74030  1.0000
  S   S124      1.0  0.65254  0.86545  0.69585  1.0000
  S   S125      1.0  0.62617  0.95863  0.82580  1.0000
  S   S126      1.0  0.59335  0.92587  0.73951  1.0000
  H   H465      1.0  0.61669  0.67947  0.04201  1.0000
  C   C298      1.0  0.73264  0.96956  0.87777  1.0000
  C   C299      1.0  0.72489  0.99990  0.85419  1.0000
  H   H466      1.0  0.60660  0.81768  0.03140  1.0000
  H   H467      1.0  0.61468  0.99861  0.55751  1.0000
  H   H468      1.0  0.66459  0.01048  0.95758  1.0000
  C   C300      1.0  0.75582  0.97185  0.91196  1.0000
  H   H469      1.0  0.62473  0.02478  0.66016  1.0000
  H   H470      1.0  0.59972  0.82018  0.92460  1.0000
  H   H471      1.0  0.64848  0.83494  0.99961  1.0000
  H   H472      1.0  0.57540  0.75644  0.63595  1.0000
  C   C301      1.0  0.62423  0.85529  0.57978  1.0000
  C   C302      1.0  0.63840  0.84937  0.61892  1.0000
  C   C303      1.0  0.63556  0.87470  0.64692  1.0000
  C   C304      1.0  0.61865  0.90623  0.63561  1.0000
  C   C305      1.0  0.60497  0.91250  0.59626  1.0000
  C   C306      1.0  0.59667  0.01728  0.56314  1.0000
  H   H473      1.0  0.65147  0.82494  0.62753  1.0000
  H   H474      1.0  0.61615  0.92571  0.65718  1.0000
  H   H475      1.0  0.59176  0.93672  0.58754  1.0000
  H   H476      1.0  0.74904  0.91305  0.71476  1.0000
  C   C307      1.0  0.56514  0.76810  0.86244  1.0000
  H   H477      1.0  0.78824  0.00627  0.94983  1.0000
  H   H478      1.0  0.58137  0.78127  0.01266  1.0000
  C   C308      1.0  0.56457  0.84074  0.84024  1.0000
  C   C309      1.0  0.58682  0.81730  0.83219  1.0000
  C   C310      1.0  0.58705  0.78105  0.84320  1.0000
  C   C311      1.0  0.64675  0.80772  0.98649  1.0000
  H   H479      1.0  0.56247  0.84920  0.59710  1.0000
  H   H480      1.0  0.60374  0.82700  0.81734  1.0000
  H   H481      1.0  0.60437  0.76305  0.83699  1.0000
  H   H482      1.0  0.79455  0.88723  0.76146  1.0000
  C   C312      1.0  0.61605  0.01084  0.63218  1.0000
  C   C313      1.0  0.59360  0.81803  0.95319  1.0000
  H   H483      1.0  0.66802  0.02596  0.74296  1.0000
  C   C314      1.0  0.61378  0.75761  0.96225  1.0000
  C   C315      1.0  0.60758  0.88690  0.56831  1.0000
  H   H484      1.0  0.76209  0.94832  0.93008  1.0000
  C   C316      1.0  0.75569  0.92824  0.79046  1.0000
  H   H485      1.0  0.62937  0.73827  0.98144  1.0000
  H   H486      1.0  0.77395  0.84576  0.76159  1.0000
  H   H487      1.0  0.72816  0.87170  0.71524  1.0000
  H   H488      1.0  0.73851  0.86824  0.82195  1.0000
  H   H489      1.0  0.70711  0.99833  0.82765  1.0000
  H   H490      1.0  0.55447  0.84084  0.67957  1.0000
  H   H491      1.0  0.66343  0.78988  0.00635  1.0000
  C   C317      1.0  0.60553  0.79115  0.01690  1.0000
  H   H492      1.0  0.68715  0.03123  0.90341  1.0000
  H   H493      1.0  0.78999  0.86832  0.80638  1.0000
  H   H494      1.0  0.73418  0.94418  0.78841  1.0000
  H   H495      1.0  0.63451  0.99204  0.62817  1.0000
  H   H496      1.0  0.76660  0.92537  0.82192  1.0000
  H   H497      1.0  0.59394  0.84561  0.96517  1.0000
  H   H498      1.0  0.56933  0.80827  0.94763  1.0000
  H   H499      1.0  0.59008  0.74631  0.95661  1.0000
  H   H500      1.0  0.71186  0.91296  0.72626  1.0000
  H   H501      1.0  0.65441  0.80987  0.95888  1.0000
  C   C318      1.0  0.55758  0.57532  0.86533  1.0000
  H   H502      1.0  0.56942  0.59311  0.84948  1.0000
  H   H503      1.0  0.55534  0.76762  0.58739  1.0000
  H   H504      1.0  0.72209  0.84585  0.77683  1.0000
  C   C319      1.0  0.77819  0.87263  0.77540  1.0000
  H   H505      1.0  0.59578  0.99460  0.63521  1.0000
  C   C320      1.0  0.56844  0.77915  0.61532  1.0000
  H   H506      1.0  0.57571  0.00119  0.56353  1.0000
  C   C321      1.0  0.74017  0.03253  0.86506  1.0000
  H   H507      1.0  0.62041  0.75836  0.93390  1.0000
  S   S127      1.0  0.60259  0.02940  0.74338  1.0000
  H   H508      1.0  0.62669  0.83563  0.55838  1.0000
  H   H509      1.0  0.77142  0.94448  0.77709  1.0000
  H   H510      1.0  0.57441  0.60986  0.04592  1.0000
  C   C322      1.0  0.56767  0.82008  0.66765  1.0000
  H   H511      1.0  0.72154  0.01222  0.96483  1.0000
  H   H512      1.0  0.58990  0.79133  0.60996  1.0000
  H   H513      1.0  0.58956  0.83271  0.66447  1.0000
  H   H514      1.0  0.57404  0.79842  0.68977  1.0000
  C   C323      1.0  0.55143  0.53986  0.85307  1.0000
  C   C324      1.0  0.76254  0.03518  0.90003  1.0000
  N   N30       1.0  0.54969  0.80595  0.63032  1.0000
  C   C325      1.0  0.55797  0.54066  0.04986  1.0000
  C   C326      1.0  0.96304  0.31662  0.54213  1.0000
  H   H515      1.0  0.02155  0.32334  0.27237  1.0000
  H   H516      1.0  0.02728  0.30666  0.20776  1.0000
  H   H517      1.0  0.82077  0.23115  0.47118  1.0000
  H   H518      1.0  0.88294  0.27348  0.54616  1.0000
  S   S128      1.0  0.00579  0.13843  0.41846  1.0000
  S   S129      1.0  0.87911  0.32530  0.46705  1.0000
  H   H519      1.0  0.82704  0.27864  0.47654  1.0000
  H   H520      1.0  0.01087  0.38591  0.18762  1.0000
  H   H521      1.0  0.98935  0.11904  0.32398  1.0000
  S   S130      1.0  0.83204  0.10643  0.08784  1.0000
  C   C327      1.0  0.85002  0.21282  0.54375  1.0000
  C   C328      1.0  0.97726  0.28895  0.52598  1.0000
  H   H522      1.0  0.92259  0.34992  0.53641  1.0000
  C   C329      1.0  0.04569  0.32730  0.21048  1.0000
  C   C330      1.0  0.91708  0.31203  0.48978  1.0000
  C   C331      1.0  0.93134  0.28440  0.47354  1.0000
  C   C332      1.0  0.96142  0.27292  0.49153  1.0000
  H   H523      1.0  0.91295  0.09907  0.25956  1.0000
  H   H524      1.0  0.91912  0.27183  0.44698  1.0000
  H   H525      1.0  0.97220  0.25149  0.47893  1.0000
  H   H526      1.0  0.83024  0.49596  0.49892  1.0000
  S   S131      1.0  0.03447  0.17496  0.52138  1.0000
  C   C333      1.0  0.01466  0.07218  0.39040  1.0000
  C   C334      1.0  0.02668  0.10672  0.39855  1.0000
  H   H527      1.0  0.03569  0.31188  0.49190  1.0000
  H   H528      1.0  0.81964  0.53118  0.46366  1.0000
  H   H529      1.0  0.92401  0.05667  0.28345  1.0000
  H   H530      1.0  0.99306  0.06498  0.39743  1.0000
  C   C335      1.0  0.83620  0.25187  0.48793  1.0000
  Fe  Fe63      1.0  0.03658  0.17662  0.45890  1.0000
  H   H531      1.0  0.92643  0.06301  0.23445  1.0000
  S   S132      1.0  0.84623  0.42358  0.48139  1.0000
  C   C336      1.0  0.96966  0.11350  0.24666  1.0000
  H   H532      1.0  0.04884  0.34769  0.36418  1.0000
  H   H533      1.0  0.98142  0.04304  0.25501  1.0000
  S   S133      1.0  0.03536  0.23689  0.45434  1.0000
  Fe  Fe64      1.0  0.85581  0.36574  0.49804  1.0000
  H   H534      1.0  0.85942  0.24910  0.48146  1.0000
  N   N31       1.0  0.96205  0.08945  0.27624  1.0000
  H   H535      1.0  0.04578  0.33641  0.18065  1.0000
  H   H536      1.0  0.83463  0.19118  0.52870  1.0000
  H   H537      1.0  0.97453  0.07223  0.09007  1.0000
  H   H538      1.0  0.99381  0.12356  0.25593  1.0000
  H   H539      1.0  0.94971  0.13297  0.30950  1.0000
  H   H540      1.0  0.95392  0.13718  0.24113  1.0000
  C   C337      1.0  0.01087  0.37540  0.21701  1.0000
  C   C338      1.0  0.96530  0.10919  0.31294  1.0000
  H   H541      1.0  0.96754  0.09924  0.21866  1.0000
  H   H542      1.0  0.95959  0.09184  0.33585  1.0000
  H   H543      1.0  0.04193  0.08163  0.47695  1.0000
  H   H544      1.0  0.99115  0.35647  0.21400  1.0000
  H   H545      1.0  0.99423  0.13440  0.08186  1.0000
  C   C339      1.0  0.98336  0.05836  0.28229  1.0000
  H   H546      1.0  0.03633  0.39239  0.48812  1.0000
  H   H547      1.0  0.85103  0.30372  0.54035  1.0000
  C   C340      1.0  0.92991  0.07664  0.26290  1.0000
  C   C341      1.0  0.93309  0.32822  0.52402  1.0000
  H   H548      1.0  0.00791  0.06676  0.29258  1.0000
  Fe  Fe65      1.0  0.04710  0.29423  0.05579  1.0000
  C   C342      1.0  0.03060  0.04680  0.37340  1.0000
  H   H549      1.0  0.00637  0.39853  0.23473  1.0000
  Fe  Fe66      1.0  0.03813  0.23497  0.51826  1.0000
  N   N32       1.0  0.83806  0.24872  0.52989  1.0000
  H   H550      1.0  0.87348  0.20821  0.53862  1.0000
  N   N33       1.0  0.04055  0.35765  0.23490  1.0000
  H   H551      1.0  0.04270  0.33675  0.45166  1.0000
  H   H552      1.0  0.03743  0.05675  0.51866  1.0000
  H   H553      1.0  0.94086  0.12439  0.09102  1.0000
  H   H554      1.0  0.03469  0.36625  0.29247  1.0000
  H   H555      1.0  0.90137  0.24233  0.06938  1.0000
  H   H556      1.0  0.03150  0.36592  0.52864  1.0000
  S   S134      1.0  0.01488  0.27526  0.54941  1.0000
  Fe  Fe67      1.0  0.85745  0.43309  0.54574  1.0000
  C   C343      1.0  0.80695  0.25378  0.53719  1.0000
  C   C344      1.0  0.03964  0.34416  0.27377  1.0000
  S   S135      1.0  0.80639  0.35468  0.49806  1.0000
  C   C345      1.0  0.82825  0.52556  0.49512  1.0000
  C   C346      1.0  0.85913  0.27649  0.55074  1.0000
  H   H557      1.0  0.97808  0.03921  0.30400  1.0000
  H   H558      1.0  0.91251  0.10350  0.05356  1.0000
  C   C347      1.0  0.96732  0.07170  0.05792  1.0000
  Fe  Fe68      1.0  0.84905  0.06476  0.05217  1.0000
  C   C348      1.0  0.93285  0.12167  0.05912  1.0000
  S   S136      1.0  0.01280  0.28405  0.94548  1.0000
  H   H559      1.0  0.92460  0.14850  0.04707  1.0000
  Fe  Fe69      1.0  0.99852  0.25556  0.99425  1.0000
  S   S137      1.0  0.96367  0.21137  0.97675  1.0000
  Fe  Fe70      1.0  0.01468  0.33298  0.98255  1.0000
  S   S138      1.0  0.84976  0.10195  0.00247  1.0000
  H   H560      1.0  0.97526  0.32921  0.56868  1.0000
  H   H561      1.0  0.80755  0.25229  0.56866  1.0000
  H   H562      1.0  0.93974  0.13161  0.98583  1.0000
  H   H563      1.0  0.00954  0.12621  0.83527  1.0000
  C   C349      1.0  0.92974  0.21291  0.99382  1.0000
  C   C350      1.0  0.90441  0.19239  0.97493  1.0000
  C   C351      1.0  0.87835  0.18920  0.99039  1.0000
  Fe  Fe71      1.0  0.82011  0.36844  0.56084  1.0000
  C   C352      1.0  0.03165  0.44561  0.87021  1.0000
  N   N34       1.0  0.95755  0.10762  0.04167  1.0000
  H   H564      1.0  0.90508  0.17847  0.94847  1.0000
  H   H565      1.0  0.85895  0.17325  0.97557  1.0000
  H   H566      1.0  0.01712  0.46230  0.98542  1.0000
  C   C353      1.0  0.93188  0.52686  0.66574  1.0000
  H   H567      1.0  0.96328  0.09274  0.98534  1.0000
  H   H568      1.0  0.94848  0.37452  0.79079  1.0000
  H   H569      1.0  0.99501  0.48985  0.01041  1.0000
  C   C354      1.0  0.03446  0.13335  0.84378  1.0000
  H   H570      1.0  0.04802  0.10787  0.84689  1.0000
  H   H571      1.0  0.90974  0.42294  0.78742  1.0000
  C   C355      1.0  0.88578  0.49833  0.67646  1.0000
  H   H572      1.0  0.87043  0.49255  0.69523  1.0000
  C   C356      1.0  0.02577  0.19184  0.81363  1.0000
  H   H573      1.0  0.98365  0.48582  0.95877  1.0000
  C   C357      1.0  0.91219  0.51937  0.69011  1.0000
  S   S139      1.0  0.80857  0.42701  0.55171  1.0000
  H   H574      1.0  0.01109  0.13467  0.76672  1.0000
  C   C358      1.0  0.90211  0.22862  0.04284  1.0000
  S   S140      1.0  0.99687  0.30523  0.02934  1.0000
  H   H575      1.0  0.97729  0.15996  0.03927  1.0000
  C   C359      1.0  0.03602  0.39754  0.91783  1.0000
  H   H576      1.0  0.04742  0.48890  0.94407  1.0000
  H   H577      1.0  0.00040  0.18719  0.80476  1.0000
  H   H578      1.0  0.98550  0.46347  0.78645  1.0000
  Fe  Fe72      1.0  0.80104  0.08395  0.97851  1.0000
  C   C360      1.0  0.92840  0.23161  0.02746  1.0000
  C   C361      1.0  0.98419  0.13237  0.05021  1.0000
  C   C362      1.0  0.04836  0.41710  0.89113  1.0000
  S   S141      1.0  0.88889  0.48030  0.56490  1.0000
  C   C363      1.0  0.00396  0.48800  0.98377  1.0000
  H   H579      1.0  0.04281  0.15838  0.75467  1.0000
  C   C364      1.0  0.87740  0.20668  0.02477  1.0000
  H   H580      1.0  0.91480  0.46525  0.76546  1.0000
  S   S142      1.0  0.01069  0.53181  0.75118  1.0000
  C   C365      1.0  0.00692  0.40649  0.92357  1.0000
  C   C366      1.0  0.92464  0.51431  0.62748  1.0000
  H   H581      1.0  0.97819  0.40429  0.81555  1.0000
  S   S143      1.0  0.84627  0.19924  0.04636  1.0000
  C   C367      1.0  0.97279  0.45256  0.75810  1.0000
  C   C368      1.0  0.93288  0.41278  0.72444  1.0000
  H   H582      1.0  0.96175  0.47563  0.74004  1.0000
  S   S144      1.0  0.04683  0.24143  0.02558  1.0000
  C   C369      1.0  0.00209  0.45362  0.87504  1.0000
  C   C370      1.0  0.98977  0.43413  0.90166  1.0000
  H   H583      1.0  0.98878  0.47496  0.85858  1.0000
  H   H584      1.0  0.96701  0.44068  0.90562  1.0000
  H   H585      1.0  0.98235  0.38219  0.77242  1.0000
  C   C371      1.0  0.94575  0.10477  0.99931  1.0000
  C   C372      1.0  0.89824  0.49333  0.61377  1.0000
  C   C373      1.0  0.87902  0.48488  0.63851  1.0000
  S   S145      1.0  0.87040  0.37585  0.56184  1.0000
  H   H586      1.0  0.93950  0.52104  0.60836  1.0000
  S   S146      1.0  0.04846  0.47115  0.83891  1.0000
  H   H587      1.0  0.92456  0.08787  0.99186  1.0000
  H   H588      1.0  0.85855  0.46882  0.62811  1.0000
  Fe  Fe73      1.0  0.82969  0.14221  0.03636  1.0000
  H   H589      1.0  0.94812  0.05197  0.05008  1.0000
  H   H590      1.0  0.85176  0.20973  0.57537  1.0000
  H   H591      1.0  0.94891  0.40001  0.70864  1.0000
  H   H592      1.0  0.94791  0.24750  0.04216  1.0000
  N   N35       1.0  0.94957  0.42574  0.76293  1.0000
  H   H593      1.0  0.92103  0.43529  0.70599  1.0000
  C   C374      1.0  0.96528  0.39530  0.78640  1.0000
  C   C375      1.0  0.92738  0.44250  0.78271  1.0000
  H   H594      1.0  0.93927  0.45345  0.81142  1.0000
  S   S147      1.0  0.99226  0.38551  0.95969  1.0000
  H   H595      1.0  0.99032  0.44088  0.74386  1.0000
  H   H596      1.0  0.91489  0.39273  0.72681  1.0000
  N   N36       1.0  0.04324  0.15784  0.81535  1.0000
  H   H597      1.0  0.82265  0.50395  0.56524  1.0000
  Fe  Fe74      1.0  0.02562  0.52324  0.81532  1.0000
  N   N37       1.0  0.02335  0.51925  0.97951  1.0000
  C   C376      1.0  0.03513  0.51500  0.94417  1.0000
  H   H598      1.0  0.00282  0.12344  0.03620  1.0000
  H   H599      1.0  0.04164  0.52448  0.04082  1.0000
  H   H600      1.0  0.98696  0.06102  0.04685  1.0000
  H   H601      1.0  0.03887  0.14573  0.87296  1.0000
  H   H602      1.0  0.86047  0.27578  0.58241  1.0000
  H   H603      1.0  0.03071  0.20533  0.84237  1.0000
  C   C377      1.0  0.82039  0.53331  0.55948  1.0000
  S   S148      1.0  0.80174  0.04305  0.02512  1.0000
  H   H604      1.0  0.01609  0.51606  0.91760  1.0000
  C   C378      1.0  0.03612  0.14081  0.77679  1.0000
  S   S149      1.0  0.80486  0.33089  0.60264  1.0000
  H   H605      1.0  0.03203  0.21096  0.79256  1.0000
  H   H606      1.0  0.97359  0.74019  0.27848  1.0000
  H   H607      1.0  0.98792  0.73273  0.23584  1.0000
  H   H608      1.0  0.82812  0.59325  0.52063  1.0000
  S   S150      1.0  0.00221  0.90484  0.25028  1.0000
  C   C379      1.0  0.88627  0.02274  0.14564  1.0000
  H   H609      1.0  0.00441  0.78375  0.20128  1.0000
  S   S151      1.0  0.00924  0.95595  0.32685  1.0000
  H   H610      1.0  0.00187  0.82869  0.21823  1.0000
  H   H611      1.0  0.03492  0.76452  0.26757  1.0000
  H   H612      1.0  0.02066  0.77644  0.30926  1.0000
  Fe  Fe75      1.0  0.98731  0.96007  0.26332  1.0000
  S   S152      1.0  0.93879  0.98234  0.24573  1.0000
  H   H613      1.0  0.03326  0.81081  0.28131  1.0000
  H   H614      1.0  0.95069  0.75321  0.23169  1.0000
  H   H615      1.0  0.96730  0.80475  0.19656  1.0000
  C   C380      1.0  0.92601  0.99552  0.19696  1.0000
  H   H616      1.0  0.86344  0.03431  0.13584  1.0000
  C   C381      1.0  0.89648  0.01073  0.18407  1.0000
  C   C382      1.0  0.04701  0.86109  0.39836  1.0000
  S   S153      1.0  0.02945  0.85335  0.34926  1.0000
  C   C383      1.0  0.94524  0.99212  0.17121  1.0000
  Fe  Fe76      1.0  0.02822  0.90328  0.31268  1.0000
  H   H617      1.0  0.96795  0.98022  0.18083  1.0000
  H   H618      1.0  0.88145  0.01323  0.20385  1.0000
  H   H619      1.0  0.02138  0.02014  0.36773  1.0000
  C   C384      1.0  0.99073  0.80179  0.21596  1.0000
  H   H620      1.0  0.98174  0.83923  0.27749  1.0000
  H   H621      1.0  0.94969  0.00048  0.11274  1.0000
  C   C385      1.0  0.93489  0.00369  0.13268  1.0000
  N   N38       1.0  0.98930  0.78765  0.25444  1.0000
  C   C386      1.0  0.90542  0.01904  0.11982  1.0000
  C   C387      1.0  0.97469  0.75184  0.24994  1.0000
  S   S154      1.0  0.02760  0.98773  0.24824  1.0000
  H   H622      1.0  0.94705  0.81596  0.25467  1.0000
  C   C388      1.0  0.02092  0.78461  0.27917  1.0000
  Fe  Fe77      1.0  0.04458  0.93213  0.24035  1.0000
  C   C389      1.0  0.97089  0.81227  0.27276  1.0000
  H   H623      1.0  0.96923  0.80234  0.30179  1.0000
  C   C390      1.0  0.80511  0.58013  0.51158  1.0000
  H   H624      1.0  0.03932  0.80731  0.41656  1.0000
  N   N39       1.0  0.80756  0.54089  0.51794  1.0000
  H   H625      1.0  0.85213  0.53646  0.50443  1.0000
  C   C391      1.0  0.04892  0.83336  0.42569  1.0000
  S   S155      1.0  0.89340  0.03322  0.07133  1.0000
  C   C392      1.0  0.04686  0.72098  0.67234  1.0000
  Fe  Fe78      1.0  0.00489  0.59785  0.83357  1.0000
  S   S156      1.0  0.00194  0.63876  0.87918  1.0000
  S   S157      1.0  0.98203  0.54406  0.82839  1.0000
  H   H626      1.0  0.95221  0.54319  0.67600  1.0000
  H   H627      1.0  0.84400  0.54478  0.56968  1.0000
  Fe  Fe79      1.0  0.03062  0.58713  0.76314  1.0000
  S   S158      1.0  0.04084  0.75863  0.64132  1.0000
  S   S159      1.0  0.98653  0.61209  0.77089  1.0000
  H   H628      1.0  0.03361  0.70683  0.87443  1.0000
  H   H629      1.0  0.00783  0.64807  0.69479  1.0000
  C   C393      1.0  0.02194  0.69848  0.67402  1.0000
  C   C394      1.0  0.01522  0.70241  0.79702  1.0000
  H   H630      1.0  0.98509  0.55230  0.95032  1.0000
  H   H631      1.0  0.99893  0.70541  0.65768  1.0000
  C   C395      1.0  0.02692  0.66612  0.69514  1.0000
  H   H632      1.0  0.00160  0.72771  0.79077  1.0000
  H   H633      1.0  0.99471  0.55605  0.00223  1.0000
  C   C396      1.0  0.02999  0.63629  0.92318  1.0000
  C   C397      1.0  0.02790  0.65947  0.95344  1.0000
  H   H634      1.0  0.01548  0.68973  0.76878  1.0000
  H   H635      1.0  0.00964  0.67935  0.94919  1.0000
  Fe  Fe80      1.0  0.96802  0.55563  0.76463  1.0000
  H   H636      1.0  0.01864  0.57668  0.97439  1.0000
  H   H637      1.0  0.03252  0.75094  0.85370  1.0000
  C   C398      1.0  0.00460  0.55244  0.97649  1.0000
  H   H638      1.0  0.00244  0.68408  0.81257  1.0000
  H   H639      1.0  0.80555  0.54454  0.57779  1.0000
  H   H640      1.0  0.04648  0.67363  0.01323  1.0000
  C   C399      1.0  0.04547  0.72509  0.85765  1.0000
  N   N40       1.0  0.04691  0.70916  0.82007  1.0000
  C   C400      1.0  0.04881  0.65633  0.98968  1.0000
  S   S160      1.0  0.91984  0.53612  0.73759  1.0000
