data_image0
_chemical_formula_structural       CH2NFeSHSHFeS2FeHFeS3CHFeC4H2C2NH2CH2SH3C6H4CH2FeHCSNSHCHC2HCH2SH2FeH2CFeCH2CSHCSH2C2HCSH3C2H2SH9CSFeH2CH6FeSHCSFeSFeSC3SFeS2FeSHCSC2HCH3SFeCHSHCHC6H4CH3C2FeSH2CHCNHCSH2S2H2CHC2HCHSH6CSC2HNHC2H5CHCH3CFeC2H3CNC2H2C3HC2NH3CH2C4H3SHCH4CH2CH3SHFeH2CH4CH2CHCH2CFeHSHSCHCHS2CH2CH2CNCH2NSH2CFeH3CNCH3CH4SCH2CH8SFeHFeCHSH2SHNC2H3CHNH2FeSCH3C2SHSFeSHSCSFeS2H2CHC4H2C3HNHCH2C2FeH6CH5C2SH4NCHCHFeS2HCHFeHFeSCSH2C3SH2FeC2SC2H3CH2CSHNH3C2H2SHCHCH5CH4SC4FeCH2SC3SCHCFeHSCHCHC2HFeH2FeHCHCHCS2H3CSCH7C2H3SNCH2CFeS2FeSCFe2S3C2H2C5HCH2CHC2NC6SH5CH5FeCHCH4C2HNHNH2SHCHCHSCH2SH2C2SH2CHNH5C3H2SH3FeHSHFeH2FeSCH3C2HS2CFeH3NH2C2HC3H2SHCH2C2HC2H2CH3NH4C2HCSHCFeS2Fe2S2HSC6HSH2C6H4CH3CHFeSH2CSH3CHCSC2H8FeH2SNH3SH10FeNH3C2HCHSCH2FeHCHCHFeCNH2C2NCHCHSH2CH3FeSCFeS2FeSFeNS2HFeHC2NHC6H2C5SH6NH2C3HCHCHC5H4SCH4SH3C3H2CH3FeCH2SHCSH3NCHSHSH2SHCHCHCH2CSHCHC3FeCFeHSHC2SCH2CH2CH2SH2SCH2CHC2S2CH2CH2SCH2C2H2C3H5NFeH2SCS2H2FeH6C3HFeCSFeSHCFe2HCSCH8FeC2H3SH2NC4H6SHS2C2SHCHC2NC3HC2HC2H2FeSHCSH2SFeNHS2CFeH2C7H4FeHS2HC2HCH10NHSFeS2FeS2FeSFeHS3CH2CH3C4HCH3C2H2C2H2C6HSH2C3HC2H4CHC2H3SCHC2FeC2SC2NC4H9C2H5CHS2HCHNCH4FeH2CFeHSCH6FeC2H3FeN2HFeHCHSHCSHC2SH3C2HSH4CH3CH2SH5CH5CH4NCHCHCH3
_chemical_formula_sum              "C400 H640 N40 Fe80 S160"
_cell_length_a       38.3809
_cell_length_b       42.0113
_cell_length_c       45.3027
_cell_angle_alpha    90.411
_cell_angle_beta     91.453
_cell_angle_gamma    91.1908

_space_group_name_H-M_alt    "P 1"
_space_group_IT_number       1

loop_
  _space_group_symop_operation_xyz
  'x, y, z'

loop_
  _atom_site_type_symbol
  _atom_site_label
  _atom_site_symmetry_multiplicity
  _atom_site_fract_x
  _atom_site_fract_y
  _atom_site_fract_z
  _atom_site_occupancy
  C   C1        1.0  0.52626  0.47970  0.19249  1.0000
  H   H1        1.0  0.42731  0.21308  0.21310  1.0000
  H   H2        1.0  0.43363  0.34504  0.10340  1.0000
  N   N1        1.0  0.48152  0.31920  0.10501  1.0000
  Fe  Fe1       1.0  0.43388  0.30078  0.19388  1.0000
  S   S1        1.0  0.43154  0.25775  0.16424  1.0000
  H   H3        1.0  0.45995  0.18974  0.17099  1.0000
  S   S2        1.0  0.31015  0.07069  0.23946  1.0000
  H   H4        1.0  0.26565  0.32904  0.23833  1.0000
  Fe  Fe2       1.0  0.28888  0.14939  0.19970  1.0000
  S   S3        1.0  0.31899  0.11099  0.17772  1.0000
  S   S4        1.0  0.28122  0.19862  0.18209  1.0000
  Fe  Fe3       1.0  0.27925  0.07816  0.19761  1.0000
  H   H5        1.0  0.51086  0.47889  0.17132  1.0000
  Fe  Fe4       1.0  0.34692  0.10739  0.22154  1.0000
  S   S5        1.0  0.40464  0.10599  0.22989  1.0000
  S   S6        1.0  0.24648  0.11689  0.21628  1.0000
  S   S7        1.0  0.42035  0.29614  0.24142  1.0000
  C   C2        1.0  0.14046  0.13114  0.02934  1.0000
  H   H6        1.0  0.45382  0.27421  0.10229  1.0000
  Fe  Fe5       1.0  0.28128  0.11236  0.25659  1.0000
  C   C3        1.0  0.23332  0.04296  0.14243  1.0000
  C   C4        1.0  0.18578  0.05438  0.09597  1.0000
  C   C5        1.0  0.19920  0.07977  0.11324  1.0000
  C   C6        1.0  0.22296  0.07406  0.13656  1.0000
  H   H7        1.0  0.19042  0.10370  0.10924  1.0000
  H   H8        1.0  0.23250  0.09355  0.15048  1.0000
  C   C7        1.0  0.46725  0.29168  0.08776  1.0000
  C   C8        1.0  0.25605  0.31159  0.22126  1.0000
  N   N2        1.0  0.24318  0.28182  0.23483  1.0000
  H   H9        1.0  0.49372  0.16184  0.17885  1.0000
  H   H10       1.0  0.51445  0.15411  0.23166  1.0000
  C   C9        1.0  0.22756  0.26059  0.21169  1.0000
  H   H11       1.0  0.08487  0.09176  0.03134  1.0000
  H   H12       1.0  0.46255  0.35563  0.13374  1.0000
  S   S8        1.0  0.48324  0.32872  0.20305  1.0000
  H   H13       1.0  0.13590  0.03299  0.13655  1.0000
  H   H14       1.0  0.48739  0.23142  0.20190  1.0000
  H   H15       1.0  0.07299  0.14865  0.02296  1.0000
  C   C10       1.0  0.38896  0.24177  0.16575  1.0000
  C   C11       1.0  0.36170  0.26101  0.17445  1.0000
  C   C12       1.0  0.32818  0.24797  0.17770  1.0000
  C   C13       1.0  0.32209  0.21530  0.17381  1.0000
  C   C14       1.0  0.34920  0.19607  0.16468  1.0000
  C   C15       1.0  0.38241  0.20940  0.16000  1.0000
  H   H16       1.0  0.36622  0.28599  0.17867  1.0000
  H   H17       1.0  0.30729  0.26316  0.18390  1.0000
  H   H18       1.0  0.34452  0.17099  0.16081  1.0000
  H   H19       1.0  0.40297  0.19438  0.15260  1.0000
  C   C16       1.0  0.22096  0.01782  0.12440  1.0000
  H   H20       1.0  0.52672  0.45491  0.20106  1.0000
  H   H21       1.0  0.52894  0.29566  0.11728  1.0000
  Fe  Fe6       1.0  0.39158  0.34131  0.23412  1.0000
  H   H22       1.0  0.50984  0.36288  0.09754  1.0000
  C   C17       1.0  0.50569  0.42761  0.12570  1.0000
  S   S9        1.0  0.06244  0.02201  0.07267  1.0000
  N   N3        1.0  0.47305  0.18465  0.21704  1.0000
  S   S10       1.0  0.15250  0.06095  0.06972  1.0000
  H   H23       1.0  0.52145  0.33062  0.07400  1.0000
  C   C18       1.0  0.53647  0.42507  0.10991  1.0000
  H   H24       1.0  0.48097  0.35069  0.06771  1.0000
  C   C19       1.0  0.11563  0.02694  0.15285  1.0000
  C   C20       1.0  0.48716  0.16005  0.23690  1.0000
  H   H25       1.0  0.50101  0.22318  0.23905  1.0000
  C   C21       1.0  0.49732  0.21244  0.21672  1.0000
  H   H26       1.0  0.43825  0.31871  0.13414  1.0000
  H   H27       1.0  0.20383  0.27093  0.20132  1.0000
  S   S11       1.0  0.32033  0.14857  0.24176  1.0000
  H   H28       1.0  0.51809  0.32812  0.14098  1.0000
  H   H29       1.0  0.24616  0.25615  0.19375  1.0000
  Fe  Fe7       1.0  0.44961  0.37159  0.19880  1.0000
  H   H30       1.0  0.52351  0.20568  0.20912  1.0000
  H   H31       1.0  0.23523  0.32324  0.20796  1.0000
  C   C22       1.0  0.43883  0.19467  0.22764  1.0000
  Fe  Fe8       1.0  0.11872  0.01728  0.06233  1.0000
  C   C23       1.0  0.49918  0.34177  0.08513  1.0000
  H   H32       1.0  0.53920  0.43759  0.08934  1.0000
  H   H33       1.0  0.22012  0.23688  0.22075  1.0000
  C   C24       1.0  0.21649  0.28952  0.25660  1.0000
  S   S12       1.0  0.46312  0.41442  0.17151  1.0000
  H   H34       1.0  0.44909  0.15138  0.18604  1.0000
  C   C25       1.0  0.46879  0.17132  0.18686  1.0000
  S   S13       1.0  0.40134  0.34357  0.18569  1.0000
  H   H35       1.0  0.48818  0.27888  0.07632  1.0000
  H   H36       1.0  0.19519  0.30375  0.24660  1.0000
  C   C26       1.0  0.50163  0.41081  0.15200  1.0000
  C   C27       1.0  0.45275  0.33537  0.11969  1.0000
  H   H37       1.0  0.27822  0.30718  0.20650  1.0000
  C   C28       1.0  0.19729  0.02354  0.10112  1.0000
  S   S14       1.0  0.25819  0.03443  0.17414  1.0000
  H   H38       1.0  0.49434  0.29099  0.14302  1.0000
  H   H39       1.0  0.44780  0.29925  0.07071  1.0000
  H   H40       1.0  0.48493  0.44242  0.11742  1.0000
  C   C29       1.0  0.52840  0.39160  0.16256  1.0000
  C   C30       1.0  0.50684  0.30796  0.12755  1.0000
  H   H41       1.0  0.52595  0.37947  0.18334  1.0000
  H   H42       1.0  0.14983  0.04642  0.20275  1.0000
  S   S15       1.0  0.43654  0.37399  0.24674  1.0000
  H   H43       1.0  0.10576  0.04974  0.16163  1.0000
  H   H44       1.0  0.15276  0.15511  0.02666  1.0000
  H   H45       1.0  0.41991  0.17420  0.22807  1.0000
  H   H46       1.0  0.12726  0.13085  0.05097  1.0000
  H   H47       1.0  0.48718  0.16782  0.26039  1.0000
  H   H48       1.0  0.47129  0.13768  0.23517  1.0000
  H   H49       1.0  0.51168  0.49430  0.20841  1.0000
  H   H50       1.0  0.16177  0.11358  0.03088  1.0000
  H   H51       1.0  0.29224  0.25801  0.23375  1.0000
  C   C31       1.0  0.27255  0.26567  0.24977  1.0000
  S   S16       1.0  0.33743  0.34252  0.25115  1.0000
  Fe  Fe9       1.0  0.46626  0.32874  0.25002  1.0000
  H   H52       1.0  0.44121  0.20495  0.25029  1.0000
  H   H53       1.0  0.17979  0.03043  0.17730  1.0000
  C   C32       1.0  0.15863  0.02391  0.19251  1.0000
  H   H54       1.0  0.26353  0.24402  0.26152  1.0000
  H   H55       1.0  0.09370  0.01471  0.14050  1.0000
  H   H56       1.0  0.09131  0.02099  0.20764  1.0000
  H   H57       1.0  0.20422  0.26764  0.26571  1.0000
  H   H58       1.0  0.46635  0.09400  0.26583  1.0000
  H   H59       1.0  0.23396  0.16043  0.26568  1.0000
  Fe  Fe10      1.0  0.52645  0.16027  0.34315  1.0000
  S   S17       1.0  0.47162  0.16772  0.35631  1.0000
  H   H60       1.0  0.44386  0.27312  0.37405  1.0000
  C   C33       1.0  0.37548  0.20651  0.35166  1.0000
  S   S18       1.0  0.49359  0.13597  0.42038  1.0000
  Fe  Fe11      1.0  0.47459  0.11913  0.37568  1.0000
  S   S19       1.0  0.42608  0.08982  0.36720  1.0000
  Fe  Fe12      1.0  0.49495  0.18419  0.39946  1.0000
  S   S20       1.0  0.47059  0.22806  0.41737  1.0000
  C   C34       1.0  0.22327  0.20107  0.29299  1.0000
  C   C35       1.0  0.50748  0.29933  0.37292  1.0000
  C   C36       1.0  0.32781  0.09748  0.42455  1.0000
  S   S21       1.0  0.52766  0.10969  0.35830  1.0000
  Fe  Fe13      1.0  0.28157  0.24147  0.42199  1.0000
  S   S22       1.0  0.22365  0.24330  0.41457  1.0000
  S   S23       1.0  0.31047  0.19674  0.43162  1.0000
  Fe  Fe14      1.0  0.23691  0.26803  0.37248  1.0000
  S   S24       1.0  0.21591  0.25451  0.32732  1.0000
  H   H61       1.0  0.39595  0.25018  0.31229  1.0000
  C   C37       1.0  0.30729  0.33613  0.30451  1.0000
  S   S25       1.0  0.29430  0.26245  0.37839  1.0000
  C   C38       1.0  0.49884  0.22576  0.29972  1.0000
  C   C39       1.0  0.38198  0.09858  0.28621  1.0000
  H   H62       1.0  0.35491  0.06508  0.37936  1.0000
  C   C40       1.0  0.44872  0.09099  0.31044  1.0000
  H   H63       1.0  0.41969  0.30913  0.37095  1.0000
  H   H64       1.0  0.26660  0.11904  0.40341  1.0000
  H   H65       1.0  0.31974  0.11977  0.43579  1.0000
  S   S26       1.0  0.26754  0.11548  0.30440  1.0000
  Fe  Fe15      1.0  0.18392  0.48503  0.51006  1.0000
  C   C41       1.0  0.22653  0.21462  0.32127  1.0000
  H   H66       1.0  0.21108  0.41983  0.39437  1.0000
  S   S27       1.0  0.54514  0.17710  0.29943  1.0000
  H   H67       1.0  0.54746  0.01648  0.36933  1.0000
  C   C42       1.0  0.32846  0.19682  0.31610  1.0000
  H   H68       1.0  0.53063  0.31199  0.38297  1.0000
  C   C43       1.0  0.42628  0.21952  0.42257  1.0000
  C   C44       1.0  0.41406  0.18793  0.42258  1.0000
  C   C45       1.0  0.37867  0.18099  0.42647  1.0000
  C   C46       1.0  0.35509  0.20563  0.42928  1.0000
  C   C47       1.0  0.36716  0.23730  0.42874  1.0000
  C   C48       1.0  0.40279  0.24424  0.42577  1.0000
  H   H69       1.0  0.43182  0.16870  0.41994  1.0000
  H   H70       1.0  0.36969  0.15653  0.42703  1.0000
  H   H71       1.0  0.34916  0.25650  0.43091  1.0000
  H   H72       1.0  0.41191  0.26874  0.42583  1.0000
  C   C49       1.0  0.41996  0.09069  0.32881  1.0000
  H   H73       1.0  0.52521  0.07886  0.43739  1.0000
  H   H74       1.0  0.47454  0.08780  0.31964  1.0000
  H   H75       1.0  0.51180  0.29735  0.34881  1.0000
  C   C50       1.0  0.48932  0.25754  0.29591  1.0000
  C   C51       1.0  0.32842  0.12368  0.37739  1.0000
  Fe  Fe16      1.0  0.22932  0.29200  0.43511  1.0000
  S   S28       1.0  0.50381  0.32076  0.28753  1.0000
  H   H76       1.0  0.31901  0.12316  0.35395  1.0000
  H   H77       1.0  0.36420  0.09354  0.33041  1.0000
  C   C52       1.0  0.32591  0.06631  0.37947  1.0000
  H   H78       1.0  0.26182  0.15218  0.35762  1.0000
  C   C53       1.0  0.38653  0.09383  0.31655  1.0000
  N   N4        1.0  0.36513  0.20783  0.32003  1.0000
  H   H79       1.0  0.35747  0.12394  0.37757  1.0000
  C   C54       1.0  0.25116  0.16562  0.33950  1.0000
  S   S29       1.0  0.28638  0.28807  0.44662  1.0000
  H   H80       1.0  0.24279  0.20671  0.36640  1.0000
  H   H81       1.0  0.22791  0.30324  0.27575  1.0000
  S   S30       1.0  0.23724  0.31710  0.39218  1.0000
  S   S31       1.0  0.12874  0.47991  0.49287  1.0000
  H   H82       1.0  0.26886  0.37747  0.37580  1.0000
  H   H83       1.0  0.28375  0.32892  0.34631  1.0000
  C   C55       1.0  0.53330  0.21683  0.29535  1.0000
  H   H84       1.0  0.32005  0.14652  0.38734  1.0000
  C   C56       1.0  0.23492  0.36018  0.48084  1.0000
  C   C57       1.0  0.24321  0.39173  0.48897  1.0000
  H   H85       1.0  0.38023  0.18663  0.27900  1.0000
  C   C58       1.0  0.36865  0.24099  0.30956  1.0000
  H   H86       1.0  0.31629  0.06456  0.35606  1.0000
  S   S32       1.0  0.18945  0.31154  0.46536  1.0000
  H   H87       1.0  0.31787  0.07702  0.43756  1.0000
  H   H88       1.0  0.44666  0.29677  0.34123  1.0000
  H   H89       1.0  0.49918  0.36239  0.37510  1.0000
  H   H90       1.0  0.26461  0.07631  0.40529  1.0000
  H   H91       1.0  0.35686  0.09698  0.42565  1.0000
  H   H92       1.0  0.36107  0.24288  0.28574  1.0000
  C   C59       1.0  0.21694  0.41421  0.49083  1.0000
  S   S33       1.0  0.55012  0.18103  0.38484  1.0000
  C   C60       1.0  0.24025  0.19668  0.34451  1.0000
  C   C61       1.0  0.23559  0.17042  0.28772  1.0000
  H   H93       1.0  0.21171  0.21424  0.27504  1.0000
  N   N5        1.0  0.31453  0.09603  0.39365  1.0000
  H   H94       1.0  0.31603  0.04490  0.39116  1.0000
  C   C62       1.0  0.27603  0.09674  0.39310  1.0000
  C   C63       1.0  0.51461  0.28057  0.28897  1.0000
  H   H95       1.0  0.26520  0.09553  0.37001  1.0000
  H   H96       1.0  0.46267  0.26437  0.29898  1.0000
  H   H97       1.0  0.38610  0.16189  0.31069  1.0000
  H   H98       1.0  0.39212  0.35735  0.29484  1.0000
  H   H99       1.0  0.35858  0.22156  0.36541  1.0000
  C   C64       1.0  0.54560  0.06519  0.44765  1.0000
  H   H100      1.0  0.45245  0.36170  0.37055  1.0000
  C   C65       1.0  0.47065  0.31876  0.41126  1.0000
  H   H101      1.0  0.47949  0.20804  0.30545  1.0000
  H   H102      1.0  0.35169  0.25728  0.32206  1.0000
  H   H103      1.0  0.41565  0.19463  0.30513  1.0000
  C   C66       1.0  0.24959  0.15270  0.31100  1.0000
  Fe  Fe17      1.0  0.29396  0.30920  0.40190  1.0000
  C   C67       1.0  0.54903  0.27167  0.28474  1.0000
  C   C68       1.0  0.44490  0.29797  0.36569  1.0000
  H   H104      1.0  0.40293  0.21487  0.35563  1.0000
  H   H105      1.0  0.50697  0.27468  0.38185  1.0000
  H   H106      1.0  0.25533  0.34294  0.47927  1.0000
  C   C69       1.0  0.44407  0.09470  0.27989  1.0000
  N   N6        1.0  0.47487  0.31607  0.37899  1.0000
  C   C70       1.0  0.53684  0.03950  0.46581  1.0000
  C   C71       1.0  0.38780  0.18695  0.30289  1.0000
  H   H107      1.0  0.28350  0.33057  0.29217  1.0000
  H   H108      1.0  0.47913  0.34710  0.34164  1.0000
  C   C72       1.0  0.30735  0.33553  0.33533  1.0000
  C   C73       1.0  0.47645  0.34827  0.36606  1.0000
  C   C74       1.0  0.36805  0.35225  0.33705  1.0000
  H   H109      1.0  0.47035  0.29493  0.42182  1.0000
  C   C75       1.0  0.20018  0.35085  0.47536  1.0000
  C   C76       1.0  0.36842  0.35141  0.30607  1.0000
  N   N7        1.0  0.26646  0.41905  0.40330  1.0000
  H   H110      1.0  0.31065  0.21144  0.32938  1.0000
  H   H111      1.0  0.22537  0.38644  0.41576  1.0000
  H   H112      1.0  0.27007  0.39877  0.49365  1.0000
  C   C77       1.0  0.23009  0.41230  0.41176  1.0000
  H   H113      1.0  0.28787  0.41890  0.44757  1.0000
  H   H114      1.0  0.14688  0.36582  0.47377  1.0000
  C   C78       1.0  0.17376  0.37302  0.47817  1.0000
  C   C79       1.0  0.33789  0.34359  0.28979  1.0000
  C   C80       1.0  0.29069  0.40645  0.42604  1.0000
  C   C81       1.0  0.27210  0.45384  0.40091  1.0000
  H   H115      1.0  0.50974  0.03385  0.46990  1.0000
  H   H116      1.0  0.39137  0.35902  0.34960  1.0000
  H   H117      1.0  0.26728  0.46611  0.42232  1.0000
  S   S34       1.0  0.33695  0.34353  0.39030  1.0000
  H   H118      1.0  0.30041  0.40775  0.36776  1.0000
  C   C82       1.0  0.18215  0.40472  0.48577  1.0000
  H   H119      1.0  0.29934  0.45980  0.39471  1.0000
  H   H120      1.0  0.28594  0.38050  0.42962  1.0000
  H   H121      1.0  0.22371  0.42521  0.43239  1.0000
  H   H122      1.0  0.25541  0.41262  0.35676  1.0000
  C   C83       1.0  0.27300  0.40367  0.37459  1.0000
  H   H123      1.0  0.31835  0.40937  0.41955  1.0000
  H   H124      1.0  0.16175  0.42185  0.48693  1.0000
  C   C84       1.0  0.33756  0.34393  0.35168  1.0000
  H   H125      1.0  0.25421  0.46419  0.38399  1.0000
  H   H126      1.0  0.35617  0.10227  0.27735  1.0000
  H   H127      1.0  0.44577  0.33039  0.41668  1.0000
  S   S35       1.0  0.22844  0.45439  0.49677  1.0000
  H   H128      1.0  0.28613  0.28154  0.26629  1.0000
  Fe  Fe18      1.0  0.54672  0.13080  0.40141  1.0000
  H   H129      1.0  0.32494  0.17160  0.32294  1.0000
  H   H130      1.0  0.31933  0.19815  0.29263  1.0000
  C   C85       1.0  0.41067  0.09903  0.26777  1.0000
  H   H131      1.0  0.37349  0.18181  0.36025  1.0000
  H   H132      1.0  0.49244  0.33285  0.42192  1.0000
  H   H133      1.0  0.13251  0.47655  0.71258  1.0000
  H   H134      1.0  0.10347  0.35047  0.54644  1.0000
  C   C86       1.0  0.07735  0.44500  0.59476  1.0000
  H   H135      1.0  0.11869  0.37937  0.60812  1.0000
  H   H136      1.0  0.12647  0.38099  0.52678  1.0000
  C   C87       1.0  0.09333  0.42317  0.65170  1.0000
  H   H137      1.0  0.17747  0.40889  0.54996  1.0000
  C   C88       1.0  0.16774  0.40121  0.57180  1.0000
  H   H138      1.0  0.19487  0.34248  0.57360  1.0000
  H   H139      1.0  0.19065  0.40000  0.58728  1.0000
  C   C89       1.0  0.12740  0.47097  0.73610  1.0000
  Fe  Fe19      1.0  0.11450  0.48482  0.54027  1.0000
  H   H140      1.0  0.15071  0.42028  0.57999  1.0000
  S   S36       1.0  0.16976  0.48550  0.55770  1.0000
  H   H141      1.0  0.09986  0.39148  0.55710  1.0000
  S   S37       1.0  0.07011  0.45549  0.55779  1.0000
  C   C90       1.0  0.17198  0.34572  0.55843  1.0000
  H   H142      1.0  0.18224  0.35217  0.53647  1.0000
  C   C91       1.0  0.11829  0.37340  0.54908  1.0000
  H   H143      1.0  0.15841  0.35897  0.61531  1.0000
  S   S38       1.0  0.05956  0.27663  0.76328  1.0000
  S   S39       1.0  0.10568  0.40792  0.68609  1.0000
  C   C92       1.0  0.13633  0.36123  0.59910  1.0000
  H   H144      1.0  0.15820  0.32225  0.55578  1.0000
  H   H145      1.0  0.12160  0.33813  0.59833  1.0000
  C   C93       1.0  0.11380  0.44716  0.63920  1.0000
  H   H146      1.0  0.13626  0.45689  0.65131  1.0000
  H   H147      1.0  0.12097  0.47741  0.60175  1.0000
  C   C94       1.0  0.10543  0.45848  0.61098  1.0000
  N   N8        1.0  0.14860  0.37036  0.56959  1.0000
  C   C95       1.0  0.06541  0.46749  0.72579  1.0000
  H   H148      1.0  0.14895  0.48234  0.74960  1.0000
  H   H149      1.0  0.12918  0.44470  0.73852  1.0000
  N   N9        1.0  0.09298  0.48246  0.74490  1.0000
  S   S40       1.0  0.06421  0.37080  0.75459  1.0000
  H   H150      1.0  0.06971  0.47251  0.70203  1.0000
  H   H151      1.0  0.16990  0.50264  0.66853  1.0000
  C   C96       1.0  0.06403  0.41084  0.63618  1.0000
  Fe  Fe20      1.0  0.06201  0.37992  0.70593  1.0000
  H   H152      1.0  0.54411  0.13139  0.51730  1.0000
  H   H153      1.0  0.54491  0.08612  0.55231  1.0000
  H   H154      1.0  0.06502  0.44119  0.72828  1.0000
  C   C97       1.0  0.05620  0.42161  0.60756  1.0000
  N   N10       1.0  0.11569  0.12322  0.00473  1.0000
  C   C98       1.0  0.13459  0.12198  0.97674  1.0000
  H   H155      1.0  0.15508  0.10360  0.97752  1.0000
  H   H156      1.0  0.07039  0.14317  0.98369  1.0000
  H   H157      1.0  0.06101  0.48186  0.78324  1.0000
  C   C99       1.0  0.08695  0.47387  0.77597  1.0000
  H   H158      1.0  0.07941  0.08541  0.99227  1.0000
  H   H159      1.0  0.11654  0.11603  0.95775  1.0000
  H   H160      1.0  0.11833  0.07267  0.01142  1.0000
  H   H161      1.0  0.08752  0.44758  0.77907  1.0000
  S   S41       1.0  0.55149  0.49088  0.98247  1.0000
  C   C100      1.0  0.09884  0.09189  0.01009  1.0000
  H   H162      1.0  0.05787  0.22693  0.80629  1.0000
  H   H163      1.0  0.14752  0.14528  0.97198  1.0000
  C   C101      1.0  0.08882  0.14784  0.00269  1.0000
  H   H164      1.0  0.10043  0.17201  0.99954  1.0000
  H   H165      1.0  0.10722  0.48484  0.79107  1.0000
  H   H166      1.0  0.54565  0.52577  0.15485  1.0000
  H   H167      1.0  0.12134  0.96313  0.15209  1.0000
  H   H168      1.0  0.22926  0.99381  0.12878  1.0000
  H   H169      1.0  0.17057  0.00916  0.21024  1.0000
  H   H170      1.0  0.11165  0.98376  0.21592  1.0000
  H   H171      1.0  0.23086  0.86734  0.02865  1.0000
  S   S42       1.0  0.12395  0.96950  0.08364  1.0000
  Fe  Fe21      1.0  0.10860  0.94998  0.03890  1.0000
  H   H172      1.0  0.54629  0.54147  0.19197  1.0000
  Fe  Fe22      1.0  0.06649  0.97238  0.09007  1.0000
  C   C102      1.0  0.14267  0.97689  0.16386  1.0000
  H   H173      1.0  0.26226  0.83618  0.03006  1.0000
  S   S43       1.0  0.10853  0.99759  0.01691  1.0000
  H   H174      1.0  0.15394  0.96118  0.18113  1.0000
  H   H175      1.0  0.18798  0.00406  0.08721  1.0000
  S   S44       1.0  0.13191  0.90601  0.01980  1.0000
  H   H176      1.0  0.27632  0.87711  0.03453  1.0000
  N   N11       1.0  0.12970  0.00670  0.17672  1.0000
  C   C103      1.0  0.25770  0.86086  0.02226  1.0000
  C   C104      1.0  0.10189  0.99905  0.19767  1.0000
  H   H177      1.0  0.07970  0.98593  0.18648  1.0000
  H   H178      1.0  0.16339  0.98182  0.14765  1.0000
  H   H179      1.0  0.44109  0.55084  0.01659  1.0000
  C   C105      1.0  0.07436  0.59842  0.49605  1.0000
  H   H180      1.0  0.06528  0.71872  0.40481  1.0000
  N   N12       1.0  0.06261  0.66769  0.40906  1.0000
  H   H181      1.0  0.09898  0.66205  0.37421  1.0000
  H   H182      1.0  0.09922  0.59792  0.50782  1.0000
  Fe  Fe23      1.0  0.12957  0.53320  0.49281  1.0000
  S   S45       1.0  0.10281  0.55861  0.45551  1.0000
  C   C106      1.0  0.06304  0.66880  0.44170  1.0000
  H   H183      1.0  0.10943  0.64059  0.40737  1.0000
  H   H184      1.0  0.11621  0.68301  0.40632  1.0000
  H   H185      1.0  0.07902  0.68928  0.45054  1.0000
  C   C107      1.0  0.06943  0.58153  0.46949  1.0000
  C   C108      1.0  0.09841  0.66317  0.39875  1.0000
  S   S46       1.0  0.18612  0.53832  0.50590  1.0000
  H   H186      1.0  0.07412  0.64677  0.45124  1.0000
  S   S47       1.0  0.55221  0.99357  0.50616  1.0000
  Fe  Fe24      1.0  0.20489  0.58321  0.74266  1.0000
  S   S48       1.0  0.17475  0.54306  0.72032  1.0000
  H   H187      1.0  0.28735  0.75510  0.71268  1.0000
  S   S49       1.0  0.25584  0.59666  0.72271  1.0000
  C   C109      1.0  0.17114  0.52713  0.66143  1.0000
  S   S50       1.0  0.18568  0.63327  0.74481  1.0000
  Fe  Fe25      1.0  0.16682  0.53835  0.55226  1.0000
  S   S51       1.0  0.11039  0.53765  0.53882  1.0000
  S   S52       1.0  0.18482  0.57555  0.58531  1.0000
  H   H188      1.0  0.47586  0.63533  0.72651  1.0000
  H   H189      1.0  0.26460  0.65312  0.63038  1.0000
  C   C110      1.0  0.17290  0.55169  0.68249  1.0000
  H   H190      1.0  0.20634  0.79570  0.73604  1.0000
  C   C111      1.0  0.17303  0.53424  0.63122  1.0000
  C   C112      1.0  0.17622  0.56594  0.62214  1.0000
  C   C113      1.0  0.17619  0.59041  0.64319  1.0000
  C   C114      1.0  0.17504  0.58331  0.67326  1.0000
  H   H191      1.0  0.17748  0.61500  0.63632  1.0000
  H   H192      1.0  0.17581  0.60243  0.68928  1.0000
  C   C115      1.0  0.32018  0.85284  0.75051  1.0000
  C   C116      1.0  0.22369  0.76237  0.68919  1.0000
  C   C117      1.0  0.54925  0.89015  0.65450  1.0000
  H   H193      1.0  0.32254  0.63684  0.64561  1.0000
  N   N13       1.0  0.28216  0.60474  0.62894  1.0000
  H   H194      1.0  0.28893  0.79043  0.73501  1.0000
  C   C118      1.0  0.25457  0.62828  0.63303  1.0000
  H   H195      1.0  0.33350  0.59547  0.64656  1.0000
  H   H196      1.0  0.30429  0.63005  0.59261  1.0000
  C   C119      1.0  0.31188  0.61235  0.64931  1.0000
  C   C120      1.0  0.22316  0.80900  0.72058  1.0000
  Fe  Fe26      1.0  0.23875  0.64677  0.72881  1.0000
  H   H197      1.0  0.24352  0.62676  0.65550  1.0000
  H   H198      1.0  0.27906  0.82646  0.69152  1.0000
  H   H199      1.0  0.23948  0.74692  0.67492  1.0000
  H   H200      1.0  0.30383  0.61114  0.67270  1.0000
  H   H201      1.0  0.31451  0.58843  0.59409  1.0000
  H   H202      1.0  0.24654  0.81522  0.66421  1.0000
  C   C121      1.0  0.41804  0.59970  0.71660  1.0000
  H   H203      1.0  0.23272  0.62445  0.61669  1.0000
  H   H204      1.0  0.30564  0.64866  0.72255  1.0000
  H   H205      1.0  0.28414  0.79091  0.67032  1.0000
  H   H206      1.0  0.38982  0.59396  0.71936  1.0000
  H   H207      1.0  0.27173  0.60037  0.58225  1.0000
  C   C122      1.0  0.26833  0.57245  0.63526  1.0000
  C   C123      1.0  0.29379  0.60596  0.59810  1.0000
  S   S53       1.0  0.25055  0.68332  0.69435  1.0000
  H   H208      1.0  0.28894  0.55431  0.63420  1.0000
  H   H209      1.0  0.25680  0.57121  0.65757  1.0000
  H   H210      1.0  0.20565  0.82260  0.70561  1.0000
  H   H211      1.0  0.36880  0.64975  0.71645  1.0000
  N   N14       1.0  0.24560  0.78740  0.70394  1.0000
  C   C124      1.0  0.31695  0.66510  0.70719  1.0000
  H   H212      1.0  0.24744  0.56511  0.61904  1.0000
  C   C125      1.0  0.35300  0.66561  0.70366  1.0000
  H   H213      1.0  0.53454  0.82211  0.70831  1.0000
  Fe  Fe27      1.0  0.40265  0.80527  0.69434  1.0000
  S   S54       1.0  0.41106  0.77821  0.65236  1.0000
  S   S55       1.0  0.35168  0.82826  0.70254  1.0000
  H   H214      1.0  0.20280  0.77272  0.67501  1.0000
  C   C126      1.0  0.27094  0.77243  0.72440  1.0000
  H   H215      1.0  0.17339  0.51516  0.61519  1.0000
  Fe  Fe28      1.0  0.46565  0.79867  0.65631  1.0000
  H   H216      1.0  0.11259  0.52949  0.75592  1.0000
  Fe  Fe29      1.0  0.43056  0.73997  0.68240  1.0000
  S   S56       1.0  0.41386  0.68844  0.68142  1.0000
  C   C127      1.0  0.52548  0.86474  0.64977  1.0000
  S   S57       1.0  0.48605  0.75743  0.68217  1.0000
  H   H217      1.0  0.20109  0.74945  0.76245  1.0000
  H   H218      1.0  0.29492  0.72255  0.65809  1.0000
  C   C128      1.0  0.52386  0.84861  0.62266  1.0000
  C   C129      1.0  0.34744  0.70805  0.66823  1.0000
  C   C130      1.0  0.49234  0.72616  0.76202  1.0000
  S   S58       1.0  0.49670  0.81470  0.61735  1.0000
  H   H219      1.0  0.35918  0.72472  0.65318  1.0000
  H   H220      1.0  0.48360  0.72881  0.73938  1.0000
  Fe  Fe30      1.0  0.47206  0.78649  0.72154  1.0000
  C   C131      1.0  0.38315  0.85649  0.75156  1.0000
  C   C132      1.0  0.35186  0.84744  0.73701  1.0000
  S   S59       1.0  0.45539  0.82916  0.69596  1.0000
  C   C133      1.0  0.36842  0.68723  0.68444  1.0000
  C   C134      1.0  0.26456  0.80574  0.68145  1.0000
  H   H221      1.0  0.29595  0.84684  0.73915  1.0000
  H   H222      1.0  0.42975  0.57928  0.70499  1.0000
  H   H223      1.0  0.23879  0.82648  0.73422  1.0000
  C   C135      1.0  0.29585  0.68545  0.69073  1.0000
  H   H224      1.0  0.40769  0.85292  0.74102  1.0000
  H   H225      1.0  0.50869  0.85758  0.66720  1.0000
  C   C136      1.0  0.31107  0.70684  0.67105  1.0000
  S   S60       1.0  0.41819  0.76559  0.72412  1.0000
  H   H226      1.0  0.42085  0.65524  0.74672  1.0000
  N   N15       1.0  0.43573  0.60612  0.74545  1.0000
  H   H227      1.0  0.41997  0.62077  0.70185  1.0000
  H   H228      1.0  0.21096  0.74653  0.70555  1.0000
  H   H229      1.0  0.09730  0.52463  0.71853  1.0000
  C   C137      1.0  0.47289  0.61407  0.74090  1.0000
  C   C138      1.0  0.41902  0.63317  0.76016  1.0000
  H   H230      1.0  0.25762  0.75934  0.74231  1.0000
  H   H231      1.0  0.48647  0.59408  0.73020  1.0000
  S   S61       1.0  0.50810  0.78961  0.76133  1.0000
  H   H232      1.0  0.39086  0.62808  0.76381  1.0000
  C   C139      1.0  0.09215  0.51742  0.74168  1.0000
  H   H233      1.0  0.47703  0.67701  0.76324  1.0000
  C   C140      1.0  0.43295  0.57753  0.76415  1.0000
  H   H234      1.0  0.44548  0.55671  0.75386  1.0000
  H   H235      1.0  0.48686  0.61952  0.76230  1.0000
  H   H236      1.0  0.06649  0.52700  0.74779  1.0000
  H   H237      1.0  0.55034  0.79415  0.66367  1.0000
  H   H238      1.0  0.54436  0.84631  0.57890  1.0000
  C   C141      1.0  0.54557  0.85863  0.59997  1.0000
  H   H239      1.0  0.55221  0.76529  0.71222  1.0000
  H   H240      1.0  0.55040  0.90247  0.67556  1.0000
  H   H241      1.0  0.09090  0.94424  0.89325  1.0000
  H   H242      1.0  0.30110  0.67357  0.83199  1.0000
  S   S62       1.0  0.19118  0.65965  0.82920  1.0000
  C   C142      1.0  0.35667  0.60943  0.87792  1.0000
  C   C143      1.0  0.32199  0.60290  0.86908  1.0000
  C   C144      1.0  0.08558  0.93317  0.91498  1.0000
  C   C145      1.0  0.29776  0.85456  0.98243  1.0000
  Fe  Fe31      1.0  0.41876  0.64789  0.91180  1.0000
  C   C146      1.0  0.38282  0.60854  0.85711  1.0000
  H   H243      1.0  0.30156  0.60360  0.88507  1.0000
  H   H244      1.0  0.30564  0.66309  0.89841  1.0000
  S   S63       1.0  0.36755  0.62138  0.91424  1.0000
  C   C147      1.0  0.43370  0.59816  0.97698  1.0000
  C   C148      1.0  0.52725  0.57675  0.94922  1.0000
  C   C149      1.0  0.26671  0.71427  0.88918  1.0000
  S   S64       1.0  0.46773  0.62315  0.90028  1.0000
  C   C150      1.0  0.54603  0.53185  0.97858  1.0000
  H   H245      1.0  0.51681  0.58595  0.92879  1.0000
  C   C151      1.0  0.37463  0.60093  0.82769  1.0000
  Fe  Fe32      1.0  0.47620  0.66410  0.86966  1.0000
  H   H246      1.0  0.52312  0.52769  0.93479  1.0000
  S   S65       1.0  0.22640  0.58255  0.78930  1.0000
  C   C152      1.0  0.53119  0.54383  0.95252  1.0000
  H   H247      1.0  0.33602  0.72304  0.84468  1.0000
  C   C153      1.0  0.34008  0.59517  0.81851  1.0000
  H   H248      1.0  0.28679  0.59183  0.83231  1.0000
  C   C154      1.0  0.28033  0.68330  0.84596  1.0000
  C   C155      1.0  0.31361  0.59634  0.83921  1.0000
  H   H249      1.0  0.39518  0.60029  0.81205  1.0000
  Fe  Fe33      1.0  0.21159  0.63403  0.78983  1.0000
  H   H250      1.0  0.34071  0.67454  0.87495  1.0000
  H   H251      1.0  0.40952  0.61377  0.86349  1.0000
  Fe  Fe34      1.0  0.49312  0.65515  0.93459  1.0000
  H   H252      1.0  0.52974  0.76811  0.81934  1.0000
  C   C156      1.0  0.15307  0.91245  0.98659  1.0000
  H   H253      1.0  0.43150  0.63856  0.78214  1.0000
  C   C157      1.0  0.50690  0.75205  0.77778  1.0000
  H   H254      1.0  0.26484  0.66260  0.85418  1.0000
  C   C158      1.0  0.06087  0.93931  0.96310  1.0000
  S   S66       1.0  0.33071  0.58735  0.78102  1.0000
  S   S67       1.0  0.49003  0.65626  0.82236  1.0000
  H   H255      1.0  0.24192  0.81605  0.98010  1.0000
  H   H256      1.0  0.30336  0.82957  0.98877  1.0000
  H   H257      1.0  0.38114  0.56680  0.00238  1.0000
  C   C159      1.0  0.44562  0.54479  0.99306  1.0000
  S   S68       1.0  0.44315  0.67669  0.94897  1.0000
  C   C160      1.0  0.31932  0.68386  0.88847  1.0000
  H   H258      1.0  0.37852  0.53387  0.97670  1.0000
  H   H259      1.0  0.41709  0.61345  0.96277  1.0000
  H   H260      1.0  0.44008  0.51887  0.98987  1.0000
  H   H261      1.0  0.33174  0.69793  0.90686  1.0000
  H   H262      1.0  0.11338  0.97953  0.94989  1.0000
  H   H263      1.0  0.45770  0.55793  0.93616  1.0000
  H   H264      1.0  0.46134  0.60308  0.97127  1.0000
  C   C161      1.0  0.19512  0.71005  0.79172  1.0000
  C   C162      1.0  0.48849  0.69662  0.77561  1.0000
  H   H265      1.0  0.08589  0.93378  0.97462  1.0000
  H   H266      1.0  0.38833  0.72588  0.94094  1.0000
  H   H267      1.0  0.43060  0.60613  0.00022  1.0000
  S   S69       1.0  0.44484  0.76516  0.91912  1.0000
  N   N16       1.0  0.29509  0.70307  0.87053  1.0000
  C   C163      1.0  0.39515  0.81928  0.83811  1.0000
  H   H268      1.0  0.25017  0.73164  0.87727  1.0000
  H   H269      1.0  0.38378  0.75717  0.82574  1.0000
  C   C164      1.0  0.19869  0.74238  0.78511  1.0000
  Fe  Fe35      1.0  0.27080  0.82636  0.89584  1.0000
  S   S70       1.0  0.28764  0.87766  0.89756  1.0000
  S   S71       1.0  0.28492  0.79106  0.93082  1.0000
  Fe  Fe36      1.0  0.23379  0.83237  0.83664  1.0000
  S   S72       1.0  0.24678  0.88449  0.83304  1.0000
  C   C165      1.0  0.20005  0.76517  0.80776  1.0000
  Fe  Fe37      1.0  0.29975  0.87095  0.84987  1.0000
  Fe  Fe38      1.0  0.23326  0.88667  0.88085  1.0000
  S   S73       1.0  0.20601  0.92900  0.89916  1.0000
  S   S74       1.0  0.28800  0.81857  0.84965  1.0000
  S   S75       1.0  0.21512  0.83559  0.88309  1.0000
  C   C166      1.0  0.38257  0.87070  0.77970  1.0000
  C   C167      1.0  0.51306  0.71875  0.82109  1.0000
  H   H270      1.0  0.40035  0.79412  0.78479  1.0000
  H   H271      1.0  0.44315  0.77838  0.78953  1.0000
  C   C168      1.0  0.51810  0.74819  0.80714  1.0000
  C   C169      1.0  0.18589  0.92220  0.93274  1.0000
  C   C170      1.0  0.17342  0.89184  0.94002  1.0000
  C   C171      1.0  0.15673  0.88704  0.96685  1.0000
  C   C172      1.0  0.55270  0.58558  0.99804  1.0000
  H   H272      1.0  0.16415  0.96216  0.99496  1.0000
  C   C173      1.0  0.18193  0.94766  0.95236  1.0000
  H   H273      1.0  0.17582  0.87225  0.92471  1.0000
  H   H274      1.0  0.36986  0.57349  0.96425  1.0000
  C   C174      1.0  0.19600  0.75558  0.83704  1.0000
  H   H275      1.0  0.19187  0.97112  0.94683  1.0000
  C   C175      1.0  0.16590  0.94270  0.97943  1.0000
  C   C176      1.0  0.40883  0.76347  0.83738  1.0000
  N   N17       1.0  0.26192  0.86329  0.99000  1.0000
  C   C177      1.0  0.40112  0.77308  0.92582  1.0000
  C   C178      1.0  0.37849  0.74913  0.93569  1.0000
  C   C179      1.0  0.34304  0.75542  0.93906  1.0000
  C   C180      1.0  0.32991  0.78497  0.93082  1.0000
  C   C181      1.0  0.35260  0.80896  0.92119  1.0000
  C   C182      1.0  0.38835  0.80329  0.91963  1.0000
  S   S76       1.0  0.42484  0.68620  0.87820  1.0000
  H   H276      1.0  0.46576  0.82653  0.83807  1.0000
  H   H277      1.0  0.34273  0.83195  0.91504  1.0000
  H   H278      1.0  0.40599  0.82207  0.91270  1.0000
  H   H279      1.0  0.52111  0.71599  0.84392  1.0000
  H   H280      1.0  0.19529  0.69270  0.77411  1.0000
  C   C183      1.0  0.25544  0.89633  0.98061  1.0000
  H   H281      1.0  0.25680  0.89886  0.95620  1.0000
  H   H282      1.0  0.40495  0.76158  0.86159  1.0000
  H   H283      1.0  0.19644  0.77311  0.85461  1.0000
  H   H284      1.0  0.20951  0.84615  0.98106  1.0000
  H   H285      1.0  0.07410  0.00153  0.95377  1.0000
  Fe  Fe39      1.0  0.45385  0.71294  0.91425  1.0000
  C   C184      1.0  0.31412  0.73078  0.85843  1.0000
  H   H286      1.0  0.45163  0.80408  0.86924  1.0000
  C   C185      1.0  0.19140  0.70033  0.82091  1.0000
  H   H287      1.0  0.29510  0.86851  0.78964  1.0000
  H   H288      1.0  0.38888  0.81742  0.86176  1.0000
  H   H289      1.0  0.29659  0.74543  0.84431  1.0000
  H   H290      1.0  0.37017  0.81626  0.82526  1.0000
  C   C186      1.0  0.31969  0.86547  0.77911  1.0000
  C   C187      1.0  0.49810  0.69293  0.80529  1.0000
  H   H291      1.0  0.32566  0.73707  0.94717  1.0000
  N   N18       1.0  0.06670  0.95492  0.93445  1.0000
  H   H292      1.0  0.24947  0.69420  0.89618  1.0000
  N   N19       1.0  0.42108  0.79577  0.82940  1.0000
  H   H293      1.0  0.40671  0.87812  0.79078  1.0000
  H   H294      1.0  0.40502  0.84400  0.83467  1.0000
  S   S77       1.0  0.35010  0.88763  0.83056  1.0000
  H   H295      1.0  0.47425  0.78475  0.84032  1.0000
  C   C188      1.0  0.19087  0.72317  0.84352  1.0000
  H   H296      1.0  0.14639  0.86368  0.97223  1.0000
  C   C189      1.0  0.38675  0.55931  0.97940  1.0000
  H   H297      1.0  0.26261  0.69723  0.83144  1.0000
  S   S78       1.0  0.20792  0.80524  0.79901  1.0000
  C   C190      1.0  0.45467  0.80311  0.84490  1.0000
  H   H298      1.0  0.18753  0.71572  0.86610  1.0000
  H   H299      1.0  0.47391  0.54892  0.98939  1.0000
  S   S79       1.0  0.50619  0.69421  0.90295  1.0000
  H   H300      1.0  0.11120  0.92674  0.92505  1.0000
  H   H301      1.0  0.42818  0.74521  0.83139  1.0000
  C   C191      1.0  0.35082  0.87440  0.79381  1.0000
  C   C192      1.0  0.23669  0.84136  0.97473  1.0000
  S   S80       1.0  0.53131  0.63870  0.96934  1.0000
  H   H302      1.0  0.27708  0.72656  0.90945  1.0000
  H   H303      1.0  0.43722  0.82057  0.79045  1.0000
  C   C193      1.0  0.42565  0.79728  0.79716  1.0000
  H   H304      1.0  0.32499  0.74656  0.87639  1.0000
  N   N20       1.0  0.42402  0.56417  0.97286  1.0000
  H   H305      1.0  0.31762  0.87043  0.99363  1.0000
  H   H306      1.0  0.42276  0.52906  0.93799  1.0000
  H   H307      1.0  0.22912  0.90403  0.98704  1.0000
  H   H308      1.0  0.23796  0.84362  0.95031  1.0000
  H   H309      1.0  0.30174  0.85615  0.95825  1.0000
  C   C194      1.0  0.08765  0.98451  0.93924  1.0000
  C   C195      1.0  0.42992  0.55456  0.94196  1.0000
  C   C196      1.0  0.53751  0.59762  0.97216  1.0000
  H   H310      1.0  0.07058  0.91057  0.91078  1.0000
  H   H311      1.0  0.41415  0.56890  0.92614  1.0000
  S   S81       1.0  0.26296  0.65211  0.77395  1.0000
  H   H312      1.0  0.27477  0.91345  0.99083  1.0000
  H   H313      1.0  0.44581  0.58173  0.78621  1.0000
  H   H314      1.0  0.09271  0.99681  0.91805  1.0000
  Fe  Fe40      1.0  0.27583  0.60076  0.76941  1.0000
  H   H315      1.0  0.40515  0.57072  0.76780  1.0000
  S   S82       1.0  0.60267  0.40359  0.10209  1.0000
  H   H316      1.0  0.00920  0.11668  0.04351  1.0000
  Fe  Fe41      1.0  0.66714  0.46789  0.02822  1.0000
  H   H317      1.0  0.01431  0.05813  0.04130  1.0000
  H   H318      1.0  0.65628  0.50813  0.12912  1.0000
  Fe  Fe42      1.0  0.61389  0.44446  0.07170  1.0000
  S   S83       1.0  0.66468  0.47166  0.07743  1.0000
  C   C197      1.0  0.01091  0.07130  0.02116  1.0000
  H   H319      1.0  0.66806  0.50420  0.18295  1.0000
  H   H320      1.0  0.76206  0.38464  0.02137  1.0000
  H   H321      1.0  0.60744  0.48066  0.16422  1.0000
  C   C198      1.0  0.00760  0.10442  0.02242  1.0000
  C   C199      1.0  0.58012  0.47236  0.16719  1.0000
  H   H322      1.0  0.58002  0.37439  0.15514  1.0000
  S   S84       1.0  0.58119  0.48798  0.06718  1.0000
  S   S85       1.0  0.61925  0.43667  0.02302  1.0000
  C   C200      1.0  0.58127  0.49334  0.21696  1.0000
  Fe  Fe43      1.0  0.59097  0.48266  0.01883  1.0000
  H   H323      1.0  0.60835  0.50285  0.21460  1.0000
  H   H324      1.0  0.58113  0.44727  0.17479  1.0000
  H   H325      1.0  0.58321  0.46908  0.22648  1.0000
  N   N21       1.0  0.56188  0.49271  0.18832  1.0000
  H   H326      1.0  0.56706  0.47239  0.14500  1.0000
  H   H327      1.0  0.56856  0.50882  0.23338  1.0000
  C   C201      1.0  0.55912  0.38897  0.14672  1.0000
  C   C202      1.0  0.56338  0.40604  0.12060  1.0000
  H   H328      1.0  0.79926  0.36009  0.01613  1.0000
  C   C203      1.0  0.57034  0.02314  0.38381  1.0000
  C   C204      1.0  0.60679  0.05514  0.45637  1.0000
  C   C205      1.0  0.59799  0.02899  0.47384  1.0000
  H   H329      1.0  0.58485  0.23281  0.28394  1.0000
  H   H330      1.0  0.63394  0.06116  0.45292  1.0000
  S   S86       1.0  0.59228  0.10772  0.42402  1.0000
  H   H331      1.0  0.56942  0.04930  0.38765  1.0000
  C   C206      1.0  0.58062  0.07364  0.44373  1.0000
  H   H332      1.0  0.60866  0.05828  0.34695  1.0000
  H   H333      1.0  0.56900  0.10820  0.49257  1.0000
  C   C207      1.0  0.60801  0.03209  0.34272  1.0000
  C   C208      1.0  0.56310  0.02197  0.47964  1.0000
  H   H334      1.0  0.63446  0.04796  0.39625  1.0000
  C   C209      1.0  0.55821  0.23969  0.28731  1.0000
  C   C210      1.0  0.63287  0.02198  0.39110  1.0000
  H   H335      1.0  0.58446  0.14706  0.50334  1.0000
  H   H336      1.0  0.56863  0.28950  0.27949  1.0000
  C   C211      1.0  0.57113  0.12515  0.51146  1.0000
  H   H337      1.0  0.58626  0.02685  0.32658  1.0000
  H   H338      1.0  0.62592  0.08611  0.50956  1.0000
  H   H339      1.0  0.63284  0.02596  0.33205  1.0000
  N   N22       1.0  0.60349  0.01420  0.37039  1.0000
  H   H340      1.0  0.61825  0.01428  0.48280  1.0000
  H   H341      1.0  0.65827  0.01488  0.38195  1.0000
  H   H342      1.0  0.03427  0.41125  0.59515  1.0000
  H   H343      1.0  0.92375  0.20159  0.74877  1.0000
  C   C212      1.0  0.62613  0.10376  0.52800  1.0000
  C   C213      1.0  0.93958  0.18200  0.75810  1.0000
  H   H344      1.0  0.87298  0.12758  0.65303  1.0000
  C   C214      1.0  0.85184  0.12578  0.59631  1.0000
  S   S87       1.0  0.77502  0.15583  0.71722  1.0000
  H   H345      1.0  0.65935  0.01987  0.73396  1.0000
  C   C215      1.0  0.92782  0.41781  0.75535  1.0000
  Fe  Fe44      1.0  0.87039  0.17619  0.69681  1.0000
  S   S88       1.0  0.82621  0.17995  0.66413  1.0000
  S   S89       1.0  0.92522  0.18468  0.68282  1.0000
  Fe  Fe45      1.0  0.79772  0.20212  0.70123  1.0000
  Fe  Fe46      1.0  0.80869  0.13351  0.68325  1.0000
  S   S90       1.0  0.79899  0.09290  0.65161  1.0000
  S   S91       1.0  0.85483  0.12843  0.71405  1.0000
  H   H346      1.0  0.84111  0.10091  0.59583  1.0000
  S   S92       1.0  0.64251  0.07383  0.60950  1.0000
  C   C216      1.0  0.75591  0.08980  0.63817  1.0000
  C   C217      1.0  0.74671  0.06567  0.61784  1.0000
  C   C218      1.0  0.71207  0.06176  0.60784  1.0000
  C   C219      1.0  0.68648  0.08174  0.61845  1.0000
  C   C220      1.0  0.69580  0.10658  0.63804  1.0000
  C   C221      1.0  0.73057  0.11062  0.64791  1.0000
  H   H347      1.0  0.68578  0.02431  0.65574  1.0000
  S   S93       1.0  0.84405  0.20306  0.73237  1.0000
  H   H348      1.0  0.67607  0.12220  0.64617  1.0000
  H   H349      1.0  0.73764  0.12955  0.66334  1.0000
  C   C222      1.0  0.94168  0.29095  0.66843  1.0000
  C   C223      1.0  0.90818  0.27730  0.66546  1.0000
  C   C224      1.0  0.90297  0.24460  0.67004  1.0000
  C   C225      1.0  0.93151  0.22529  0.67601  1.0000
  C   C226      1.0  0.96516  0.23865  0.67739  1.0000
  C   C227      1.0  0.97014  0.27156  0.67439  1.0000
  H   H350      1.0  0.88617  0.29204  0.66018  1.0000
  H   H351      1.0  0.87690  0.23440  0.66866  1.0000
  H   H352      1.0  0.98740  0.22373  0.68128  1.0000
  H   H353      1.0  0.99611  0.28183  0.67622  1.0000
  C   C228      1.0  0.74839  0.29071  0.73860  1.0000
  H   H354      1.0  0.90066  0.17138  0.58647  1.0000
  H   H355      1.0  0.92830  0.16249  0.61794  1.0000
  H   H356      1.0  0.84969  0.13542  0.57356  1.0000
  C   C229      1.0  0.75835  0.25943  0.73282  1.0000
  H   H357      1.0  0.88498  0.17556  0.62324  1.0000
  Fe  Fe47      1.0  0.82327  0.15538  0.74623  1.0000
  S   S94       1.0  0.94759  0.33234  0.66643  1.0000
  H   H358      1.0  0.99523  0.20177  0.72920  1.0000
  H   H359      1.0  0.74391  0.30689  0.72049  1.0000
  C   C230      1.0  0.84500  0.29297  0.72416  1.0000
  S   S95       1.0  0.04658  0.32987  0.69329  1.0000
  H   H360      1.0  0.91649  0.11484  0.64779  1.0000
  H   H361      1.0  0.03691  0.50457  0.52169  1.0000
  H   H362      1.0  0.60542  0.15680  0.55537  1.0000
  C   C231      1.0  0.82035  0.34550  0.72378  1.0000
  H   H363      1.0  0.77152  0.21440  0.75205  1.0000
  C   C232      1.0  0.88956  0.11389  0.63805  1.0000
  S   S96       1.0  0.76803  0.24728  0.69692  1.0000
  C   C233      1.0  0.91041  0.10814  0.58858  1.0000
  C   C234      1.0  0.90110  0.16055  0.60880  1.0000
  H   H364      1.0  0.94419  0.16480  0.73991  1.0000
  H   H365      1.0  0.83431  0.13975  0.61044  1.0000
  H   H366      1.0  0.70523  0.04305  0.59215  1.0000
  H   H367      1.0  0.81115  0.34115  0.70058  1.0000
  H   H368      1.0  0.87971  0.08876  0.63841  1.0000
  H   H369      1.0  0.93801  0.10860  0.59679  1.0000
  H   H370      1.0  0.76633  0.04972  0.61004  1.0000
  H   H371      1.0  0.67342  0.05761  0.67768  1.0000
  Fe  Fe48      1.0  0.63686  0.02600  0.58748  1.0000
  H   H372      1.0  0.58577  0.07070  0.56525  1.0000
  H   H373      1.0  0.90136  0.08277  0.58753  1.0000
  S   S97       1.0  0.98735  0.33539  0.74480  1.0000
  N   N23       1.0  0.88822  0.12711  0.60792  1.0000
  H   H374      1.0  0.64147  0.09349  0.54670  1.0000
  H   H375      1.0  0.96737  0.50514  0.57710  1.0000
  H   H376      1.0  0.61117  0.04530  0.66614  1.0000
  S   S98       1.0  0.64366  0.01843  0.53933  1.0000
  H   H377      1.0  0.91001  0.11741  0.56562  1.0000
  H   H378      1.0  0.87508  0.33768  0.68967  1.0000
  H   H379      1.0  0.04810  0.39225  0.64578  1.0000
  H   H380      1.0  0.82555  0.37154  0.72640  1.0000
  H   H381      1.0  0.96114  0.49477  0.53870  1.0000
  H   H382      1.0  0.90511  0.32496  0.71808  1.0000
  H   H383      1.0  0.82436  0.28271  0.73821  1.0000
  H   H384      1.0  0.57106  0.06351  0.52793  1.0000
  H   H385      1.0  0.63200  0.04988  0.71826  1.0000
  H   H386      1.0  0.00320  0.15397  0.75927  1.0000
  Fe  Fe49      1.0  0.00829  0.38483  0.75298  1.0000
  N   N24       1.0  0.85171  0.32701  0.73117  1.0000
  H   H387      1.0  0.97560  0.23629  0.74470  1.0000
  H   H388      1.0  0.99866  0.48109  0.55903  1.0000
  H   H389      1.0  0.88032  0.41958  0.72901  1.0000
  C   C235      1.0  0.59190  0.13423  0.56160  1.0000
  C   C236      1.0  0.88120  0.33891  0.71379  1.0000
  H   H390      1.0  0.83612  0.28938  0.70074  1.0000
  C   C237      1.0  0.61744  0.01955  0.66701  1.0000
  H   H391      1.0  0.86876  0.27863  0.72770  1.0000
  S   S99       1.0  0.00755  0.39829  0.70523  1.0000
  C   C238      1.0  0.63769  0.02399  0.71772  1.0000
  H   H392      1.0  0.03907  0.47592  0.73141  1.0000
  H   H393      1.0  0.01672  0.22299  0.75909  1.0000
  Fe  Fe50      1.0  0.99198  0.34719  0.69692  1.0000
  H   H394      1.0  0.88796  0.36413  0.71913  1.0000
  C   C239      1.0  0.86038  0.33066  0.76300  1.0000
  H   H395      1.0  0.79848  0.33933  0.73845  1.0000
  C   C240      1.0  0.67814  0.03156  0.67831  1.0000
  H   H396      1.0  0.94421  0.41501  0.73652  1.0000
  Fe  Fe51      1.0  0.04335  0.32223  0.74213  1.0000
  C   C241      1.0  0.98105  0.50167  0.55598  1.0000
  N   N25       1.0  0.59033  0.11120  0.53676  1.0000
  H   H397      1.0  0.56536  0.14019  0.56896  1.0000
  H   H398      1.0  0.64049  0.12538  0.52049  1.0000
  C   C242      1.0  0.57220  0.08164  0.54598  1.0000
  C   C243      1.0  0.99080  0.21475  0.75021  1.0000
  N   N26       1.0  0.64689  0.01355  0.68774  1.0000
  C   C244      1.0  0.76395  0.23856  0.75622  1.0000
  H   H399      1.0  0.60640  0.12451  0.58102  1.0000
  C   C245      1.0  0.89168  0.42024  0.75111  1.0000
  H   H400      1.0  0.70099  0.02777  0.69340  1.0000
  S   S100      1.0  0.74871  0.29268  0.82822  1.0000
  H   H401      1.0  0.73760  0.16031  0.91133  1.0000
  H   H402      1.0  0.80976  0.32374  0.88739  1.0000
  C   C246      1.0  0.00220  0.12168  0.99649  1.0000
  H   H403      1.0  0.91022  0.28354  0.94585  1.0000
  H   H404      1.0  0.77829  0.12487  0.88605  1.0000
  H   H405      1.0  0.80525  0.14016  0.85756  1.0000
  Fe  Fe52      1.0  0.98575  0.18444  0.95477  1.0000
  S   S101      1.0  0.02164  0.18658  0.91639  1.0000
  C   C247      1.0  0.73857  0.17612  0.89174  1.0000
  Fe  Fe53      1.0  0.92691  0.21676  0.92201  1.0000
  S   S102      1.0  0.95754  0.22249  0.88095  1.0000
  S   S103      1.0  0.87067  0.23001  0.92066  1.0000
  Fe  Fe54      1.0  0.97374  0.17239  0.88952  1.0000
  S   S104      1.0  0.97078  0.13658  0.85246  1.0000
  Fe  Fe55      1.0  0.00200  0.23627  0.91154  1.0000
  N   N27       1.0  0.94049  0.33615  0.85495  1.0000
  S   S105      1.0  0.93968  0.16554  0.92840  1.0000
  S   S106      1.0  0.96978  0.23547  0.95216  1.0000
  H   H406      1.0  0.75971  0.13409  0.85018  1.0000
  Fe  Fe56      1.0  0.76192  0.34458  0.83430  1.0000
  H   H407      1.0  0.78274  0.41954  0.98255  1.0000
  C   C248      1.0  0.05465  0.27778  0.80163  1.0000
  C   C249      1.0  0.99975  0.10573  0.96927  1.0000
  N   N28       1.0  0.77278  0.17492  0.87759  1.0000
  H   H408      1.0  0.99575  0.11898  0.94913  1.0000
  C   C250      1.0  0.86179  0.14181  0.81065  1.0000
  C   C251      1.0  0.87119  0.16028  0.83543  1.0000
  C   C252      1.0  0.90410  0.15756  0.84885  1.0000
  C   C253      1.0  0.92826  0.13676  0.83730  1.0000
  C   C254      1.0  0.91893  0.11792  0.81256  1.0000
  C   C255      1.0  0.88565  0.12052  0.79915  1.0000
  H   H409      1.0  0.85343  0.17733  0.84398  1.0000
  H   H410      1.0  0.91071  0.17187  0.86807  1.0000
  C   C256      1.0  0.00302  0.07252  0.96803  1.0000
  C   C257      1.0  0.96539  0.21270  0.79845  1.0000
  C   C258      1.0  0.79092  0.39847  0.96960  1.0000
  C   C259      1.0  0.96089  0.34236  0.82825  1.0000
  C   C260      1.0  0.76016  0.24893  0.78530  1.0000
  S   S107      1.0  0.00099  0.16331  0.99839  1.0000
  H   H411      1.0  0.95147  0.38369  0.87117  1.0000
  H   H412      1.0  0.98432  0.35774  0.83338  1.0000
  H   H413      1.0  0.98970  0.22275  0.80892  1.0000
  H   H414      1.0  0.61774  0.50033  0.95226  1.0000
  H   H415      1.0  0.89388  0.31074  0.86679  1.0000
  H   H416      1.0  0.73297  0.20075  0.89930  1.0000
  N   N29       1.0  0.97275  0.19419  0.77153  1.0000
  H   H417      1.0  0.71636  0.35340  0.97068  1.0000
  H   H418      1.0  0.72147  0.39457  0.98061  1.0000
  C   C261      1.0  0.04358  0.27872  0.86262  1.0000
  C   C262      1.0  0.94261  0.41949  0.78385  1.0000
  C   C263      1.0  0.80049  0.18504  0.89909  1.0000
  H   H419      1.0  0.76503  0.23277  0.80313  1.0000
  C   C264      1.0  0.61767  0.51045  0.92961  1.0000
  H   H420      1.0  0.81063  0.33777  0.96634  1.0000
  C   C265      1.0  0.77284  0.19655  0.85202  1.0000
  H   H421      1.0  0.97040  0.31993  0.81835  1.0000
  C   C266      1.0  0.88273  0.32531  0.93162  1.0000
  C   C267      1.0  0.88827  0.29242  0.93316  1.0000
  C   C268      1.0  0.86492  0.27107  0.91882  1.0000
  C   C269      1.0  0.83638  0.28254  0.90272  1.0000
  C   C270      1.0  0.83152  0.31530  0.90041  1.0000
  H   H422      1.0  0.79692  0.20992  0.90694  1.0000
  H   H423      1.0  0.90057  0.34182  0.94297  1.0000
  H   H424      1.0  0.81840  0.26615  0.89140  1.0000
  H   H425      1.0  0.82672  0.18431  0.88924  1.0000
  S   S108      1.0  0.01629  0.01429  0.99204  1.0000
  C   C271      1.0  0.85455  0.33677  0.91491  1.0000
  H   H426      1.0  0.80129  0.16943  0.91881  1.0000
  H   H427      1.0  0.79803  0.19614  0.84044  1.0000
  H   H428      1.0  0.73040  0.38182  0.94375  1.0000
  H   H429      1.0  0.71710  0.16849  0.87610  1.0000
  S   S109      1.0  0.03405  0.27946  0.90023  1.0000
  H   H430      1.0  0.93750  0.10164  0.80362  1.0000
  H   H431      1.0  0.00142  0.06030  0.94693  1.0000
  H   H432      1.0  0.75218  0.18959  0.83538  1.0000
  C   C272      1.0  0.90964  0.31592  0.84706  1.0000
  C   C273      1.0  0.77185  0.36400  0.00860  1.0000
  C   C274      1.0  0.77915  0.14204  0.86749  1.0000
  H   H433      1.0  0.76847  0.22173  0.85872  1.0000
  H   H434      1.0  0.83879  0.32130  0.77670  1.0000
  C   C275      1.0  0.92912  0.36667  0.86754  1.0000
  H   H435      1.0  0.89229  0.32776  0.83066  1.0000
  H   H436      1.0  0.97140  0.29646  0.86823  1.0000
  H   H437      1.0  0.94523  0.35493  0.81110  1.0000
  Fe  Fe57      1.0  0.80965  0.38463  0.87428  1.0000
  C   C276      1.0  0.78282  0.34217  0.96035  1.0000
  H   H438      1.0  0.91733  0.29262  0.83769  1.0000
  H   H439      1.0  0.91672  0.36323  0.88920  1.0000
  S   S110      1.0  0.81817  0.35894  0.83181  1.0000
  H   H440      1.0  0.94788  0.23280  0.79346  1.0000
  C   C277      1.0  0.05033  0.30675  0.81636  1.0000
  S   S111      1.0  0.75468  0.36711  0.87854  1.0000
  H   H441      1.0  0.95273  0.19747  0.81528  1.0000
  H   H442      1.0  0.86462  0.35617  0.76914  1.0000
  H   H443      1.0  0.76754  0.32007  0.96494  1.0000
  N   N30       1.0  0.76960  0.36991  0.97650  1.0000
  C   C278      1.0  0.96233  0.31955  0.87702  1.0000
  H   H444      1.0  0.94787  0.31421  0.89744  1.0000
  S   S112      1.0  0.82007  0.14568  0.79466  1.0000
  H   H445      1.0  0.98589  0.33403  0.88370  1.0000
  S   S113      1.0  0.84835  0.37779  0.91149  1.0000
  H   H446      1.0  0.62582  0.49136  0.91428  1.0000
  H   H447      1.0  0.76419  0.46623  0.95692  1.0000
  S   S114      1.0  0.98745  0.41441  0.78959  1.0000
  H   H448      1.0  0.65540  0.44647  0.96986  1.0000
  C   C279      1.0  0.70067  0.44510  0.90637  1.0000
  H   H449      1.0  0.75601  0.34265  0.01465  1.0000
  C   C280      1.0  0.67237  0.44296  0.92513  1.0000
  H   H450      1.0  0.86830  0.42630  0.82280  1.0000
  C   C281      1.0  0.67724  0.44876  0.95546  1.0000
  H   H451      1.0  0.88445  0.31775  0.76915  1.0000
  H   H452      1.0  0.64684  0.43611  0.91626  1.0000
  C   C282      1.0  0.75133  0.28033  0.79131  1.0000
  S   S115      1.0  0.74248  0.38647  0.80885  1.0000
  H   H453      1.0  0.75568  0.45531  0.90341  1.0000
  C   C283      1.0  0.88487  0.42417  0.80396  1.0000
  H   H454      1.0  0.93274  0.42588  0.83003  1.0000
  C   C284      1.0  0.73381  0.45327  0.91790  1.0000
  C   C285      1.0  0.73861  0.45941  0.94817  1.0000
  C   C286      1.0  0.71046  0.45662  0.96705  1.0000
  Fe  Fe58      1.0  0.74069  0.41068  0.85313  1.0000
  C   C287      1.0  0.92122  0.42369  0.80807  1.0000
  Fe  Fe59      1.0  0.79848  0.40310  0.81047  1.0000
  H   H455      1.0  0.98164  0.14991  0.79358  1.0000
  S   S116      1.0  0.79542  0.43072  0.85288  1.0000
  H   H456      1.0  0.78146  0.34606  0.93611  1.0000
  C   C288      1.0  0.87012  0.42240  0.77542  1.0000
  C   C289      1.0  0.04566  0.30726  0.84695  1.0000
  S   S117      1.0  0.69456  0.43744  0.86865  1.0000
  C   C290      1.0  0.00909  0.05534  0.99397  1.0000
  H   H457      1.0  0.68739  0.51179  0.92382  1.0000
  H   H458      1.0  0.90954  0.37825  0.85289  1.0000
  C   C291      1.0  0.73287  0.37509  0.96746  1.0000
  H   H459      1.0  0.04307  0.32975  0.85837  1.0000
  H   H460      1.0  0.78866  0.40453  0.94572  1.0000
  C   C292      1.0  0.99527  0.16722  0.77928  1.0000
  H   H461      1.0  0.01941  0.17542  0.79148  1.0000
  H   H462      1.0  0.81911  0.39482  0.97460  1.0000
  S   S118      1.0  0.71753  0.46089  0.00520  1.0000
  H   H463      1.0  0.73813  0.32558  0.77243  1.0000
  H   H464      1.0  0.04612  0.22761  0.85994  1.0000
  S   S119      1.0  0.82484  0.42013  0.76984  1.0000
  C   C293      1.0  0.04749  0.24971  0.84786  1.0000
  H   H465      1.0  0.87839  0.10599  0.78006  1.0000
  H   H466      1.0  0.05111  0.32880  0.80430  1.0000
  C   C294      1.0  0.74538  0.30133  0.76793  1.0000
  H   H467      1.0  0.92340  0.16946  0.77451  1.0000
  C   C295      1.0  0.05399  0.24933  0.81752  1.0000
  C   C296      1.0  0.73551  0.57913  0.14055  1.0000
  S   S120      1.0  0.74555  0.60447  0.22986  1.0000
  S   S121      1.0  0.66436  0.55013  0.22964  1.0000
  C   C297      1.0  0.74805  0.61327  0.09937  1.0000
  H   H468      1.0  0.79623  0.65268  0.22793  1.0000
  H   H469      1.0  0.72930  0.57766  0.16441  1.0000
  C   C298      1.0  0.79328  0.69000  0.19569  1.0000
  H   H470      1.0  0.78121  0.64938  0.14137  1.0000
  H   H471      1.0  0.58622  0.53594  0.17323  1.0000
  S   S122      1.0  0.63795  0.56162  0.09257  1.0000
  C   C299      1.0  0.77506  0.62420  0.14721  1.0000
  H   H472      1.0  0.75796  0.56345  0.13664  1.0000
  H   H473      1.0  0.71278  0.56884  0.12781  1.0000
  C   C300      1.0  0.71351  0.63256  0.13919  1.0000
  C   C301      1.0  0.64322  0.55767  0.13079  1.0000
  H   H474      1.0  0.90228  0.85573  0.26031  1.0000
  H   H475      1.0  0.76627  0.82774  0.25910  1.0000
  C   C302      1.0  0.65668  0.55329  0.19167  1.0000
  C   C303      1.0  0.64654  0.58221  0.17944  1.0000
  C   C304      1.0  0.63951  0.58431  0.14904  1.0000
  H   H476      1.0  0.64337  0.60279  0.19348  1.0000
  H   H477      1.0  0.63125  0.60662  0.13965  1.0000
  H   H478      1.0  0.77009  0.59818  0.09278  1.0000
  H   H479      1.0  0.77210  0.62363  0.17156  1.0000
  H   H480      1.0  0.79416  0.81084  0.21358  1.0000
  N   N31       1.0  0.74306  0.61229  0.13160  1.0000
  Fe  Fe60      1.0  0.69212  0.59432  0.24650  1.0000
  H   H481      1.0  0.80421  0.76996  0.20758  1.0000
  H   H482      1.0  0.56832  0.54368  0.02153  1.0000
  S   S123      1.0  0.00962  0.81476  0.15010  1.0000
  C   C305      1.0  0.91130  0.61042  0.24466  1.0000
  S   S124      1.0  0.67370  0.64430  0.24006  1.0000
  S   S125      1.0  0.04557  0.96071  0.13471  1.0000
  H   H483      1.0  0.68940  0.62533  0.12652  1.0000
  H   H484      1.0  0.75363  0.63799  0.09186  1.0000
  Fe  Fe61      1.0  0.72907  0.65523  0.22820  1.0000
  H   H485      1.0  0.01307  0.86731  0.19227  1.0000
  H   H486      1.0  0.70776  0.63121  0.16315  1.0000
  H   H487      1.0  0.72424  0.60436  0.08699  1.0000
  H   H488      1.0  0.71908  0.65808  0.13429  1.0000
  H   H489      1.0  0.79803  0.60973  0.14188  1.0000
  H   H490      1.0  0.67855  0.77017  0.25473  1.0000
  C   C306      1.0  0.02344  0.85472  0.14729  1.0000
  C   C307      1.0  0.81054  0.66996  0.21538  1.0000
  C   C308      1.0  0.81148  0.78041  0.26489  1.0000
  H   H491      1.0  0.76011  0.78292  0.20277  1.0000
  Fe  Fe62      1.0  0.90459  0.81679  0.21267  1.0000
  C   C309      1.0  0.87663  0.86389  0.26543  1.0000
  S   S126      1.0  0.85719  0.84680  0.20899  1.0000
  Fe  Fe63      1.0  0.92951  0.74901  0.21148  1.0000
  S   S127      1.0  0.98548  0.76360  0.21977  1.0000
  H   H492      1.0  0.79615  0.87368  0.23407  1.0000
  C   C310      1.0  0.75459  0.80339  0.25987  1.0000
  Fe  Fe64      1.0  0.63239  0.51462  0.06885  1.0000
  Fe  Fe65      1.0  0.97446  0.80264  0.18750  1.0000
  H   H493      1.0  0.91633  0.62988  0.22859  1.0000
  C   C311      1.0  0.86590  0.69517  0.20421  1.0000
  S   S128      1.0  0.92020  0.78472  0.17589  1.0000
  C   C312      1.0  0.84666  0.67227  0.21932  1.0000
  H   H494      1.0  0.91451  0.85740  0.12215  1.0000
  H   H495      1.0  0.72947  0.80390  0.24709  1.0000
  H   H496      1.0  0.85941  0.65679  0.23477  1.0000
  H   H497      1.0  0.82478  0.80405  0.26286  1.0000
  H   H498      1.0  0.87758  0.93398  0.14802  1.0000
  H   H499      1.0  0.87183  0.90151  0.12209  1.0000
  H   H500      1.0  0.86369  0.89537  0.16052  1.0000
  H   H501      1.0  0.03803  0.84942  0.10195  1.0000
  Fe  Fe66      1.0  0.96397  0.79710  0.25320  1.0000
  C   C313      1.0  0.84879  0.71551  0.18450  1.0000
  C   C314      1.0  0.81246  0.71252  0.17983  1.0000
  H   H502      1.0  0.86359  0.73312  0.17252  1.0000
  H   H503      1.0  0.79925  0.72805  0.16445  1.0000
  H   H504      1.0  0.95628  0.90133  0.18532  1.0000
  S   S129      1.0  0.74767  0.68755  0.19225  1.0000
  H   H505      1.0  0.90402  0.85082  0.16001  1.0000
  H   H506      1.0  0.96789  0.90938  0.13156  1.0000
  N   N32       1.0  0.91789  0.89922  0.14995  1.0000
  C   C315      1.0  0.92873  0.90765  0.18062  1.0000
  C   C316      1.0  0.88112  0.90796  0.14486  1.0000
  C   C317      1.0  0.92136  0.86459  0.14528  1.0000
  C   C318      1.0  0.94027  0.91657  0.12909  1.0000
  H   H507      1.0  0.94852  0.85690  0.14994  1.0000
  H   H508      1.0  0.93970  0.94278  0.13276  1.0000
  H   H509      1.0  0.92404  0.58868  0.23639  1.0000
  H   H510      1.0  0.91241  0.89483  0.19691  1.0000
  H   H511      1.0  0.92646  0.93361  0.18498  1.0000
  H   H512      1.0  0.93211  0.91159  0.10575  1.0000
  S   S130      1.0  0.95787  0.83767  0.22171  1.0000
  H   H513      1.0  0.88264  0.60542  0.24440  1.0000
  S   S131      1.0  0.90881  0.77953  0.24739  1.0000
  S   S132      1.0  0.91109  0.69800  0.21074  1.0000
  C   C319      1.0  0.02099  0.87592  0.17106  1.0000
  C   C320      1.0  0.02895  0.90839  0.16739  1.0000
  S   S133      1.0  0.05114  0.94902  0.04681  1.0000
  H   H514      1.0  0.02626  0.92482  0.18565  1.0000
  C   C321      1.0  0.84992  0.86323  0.24386  1.0000
  H   H515      1.0  0.77921  0.72840  0.24326  1.0000
  C   C322      1.0  0.03974  0.91965  0.14000  1.0000
  C   C323      1.0  0.78436  0.78600  0.21660  1.0000
  N   N33       1.0  0.77802  0.77928  0.24800  1.0000
  C   C324      1.0  0.81681  0.87394  0.25078  1.0000
  C   C325      1.0  0.03561  0.86582  0.12030  1.0000
  C   C326      1.0  0.04387  0.89820  0.11668  1.0000
  H   H516      1.0  0.73710  0.74501  0.23705  1.0000
  C   C327      1.0  0.55983  0.52539  0.17659  1.0000
  C   C328      1.0  0.76159  0.74734  0.25071  1.0000
  H   H517      1.0  0.96908  0.64532  0.25931  1.0000
  C   C329      1.0  0.65317  0.52871  0.14307  1.0000
  C   C330      1.0  0.65992  0.52653  0.17351  1.0000
  H   H518      1.0  0.82964  0.76220  0.25664  1.0000
  H   H519      1.0  0.05284  0.90651  0.09567  1.0000
  Fe  Fe67      1.0  0.05235  0.99847  0.02865  1.0000
  S   S134      1.0  0.63935  0.51326  0.02002  1.0000
  H   H520      1.0  0.67469  0.71254  0.26600  1.0000
  C   C331      1.0  0.01058  0.60120  0.46502  1.0000
  S   S135      1.0  0.92675  0.63145  0.43126  1.0000
  H   H521      1.0  0.91585  0.65581  0.30717  1.0000
  H   H522      1.0  0.98586  0.60159  0.45326  1.0000
  S   S136      1.0  0.89317  0.68028  0.48013  1.0000
  Fe  Fe68      1.0  0.93997  0.67491  0.40521  1.0000
  N   N34       1.0  0.92433  0.61936  0.27463  1.0000
  H   H523      1.0  0.02203  0.70171  0.40468  1.0000
  S   S137      1.0  0.82534  0.62777  0.43150  1.0000
  S   S138      1.0  0.66610  0.67933  0.32103  1.0000
  C   C332      1.0  0.01548  0.61823  0.49147  1.0000
  Fe  Fe69      1.0  0.94563  0.66025  0.47046  1.0000
  H   H524      1.0  0.72812  0.73572  0.41133  1.0000
  H   H525      1.0  0.80748  0.77601  0.28875  1.0000
  C   C333      1.0  0.03746  0.58275  0.45412  1.0000
  C   C334      1.0  0.82222  0.61793  0.39388  1.0000
  C   C335      1.0  0.79128  0.60514  0.38123  1.0000
  C   C336      1.0  0.78829  0.60049  0.35048  1.0000
  C   C337      1.0  0.81654  0.60797  0.33265  1.0000
  C   C338      1.0  0.84768  0.61957  0.34560  1.0000
  C   C339      1.0  0.85046  0.62464  0.37601  1.0000
  H   H526      1.0  0.76953  0.59930  0.39506  1.0000
  H   H527      1.0  0.76432  0.59091  0.34064  1.0000
  H   H528      1.0  0.86952  0.62554  0.33225  1.0000
  H   H529      1.0  0.87461  0.63389  0.38548  1.0000
  Fe  Fe70      1.0  0.87582  0.65502  0.43832  1.0000
  H   H530      1.0  0.04788  0.69776  0.37271  1.0000
  S   S139      1.0  0.70781  0.60036  0.29430  1.0000
  S   S140      1.0  0.81346  0.60379  0.29417  1.0000
  H   H531      1.0  0.87827  0.64534  0.28439  1.0000
  C   C340      1.0  0.67552  0.76252  0.27727  1.0000
  C   C341      1.0  0.67315  0.72992  0.28361  1.0000
  H   H532      1.0  0.75938  0.95450  0.47692  1.0000
  C   C342      1.0  0.91648  0.59320  0.29525  1.0000
  H   H533      1.0  0.03418  0.54595  0.51295  1.0000
  H   H534      1.0  0.74144  0.64885  0.36431  1.0000
  H   H535      1.0  0.60059  0.96548  0.38453  1.0000
  H   H536      1.0  0.75612  0.65166  0.42016  1.0000
  H   H537      1.0  0.88794  0.58770  0.29555  1.0000
  H   H538      1.0  0.05075  0.61759  0.40515  1.0000
  H   H539      1.0  0.03335  0.56911  0.43392  1.0000
  H   H540      1.0  0.69583  0.65317  0.39895  1.0000
  H   H541      1.0  0.75018  0.68850  0.43940  1.0000
  H   H542      1.0  0.78588  0.68444  0.41496  1.0000
  N   N35       1.0  0.68694  0.85800  0.48332  1.0000
  H   H543      1.0  0.03629  0.67106  0.45040  1.0000
  S   S141      1.0  0.96514  0.66970  0.36125  1.0000
  Fe  Fe71      1.0  0.77530  0.88242  0.35074  1.0000
  S   S142      1.0  0.75863  0.83107  0.34778  1.0000
  S   S143      1.0  0.82900  0.89699  0.33736  1.0000
  Fe  Fe72      1.0  0.70814  0.90311  0.37695  1.0000
  S   S144      1.0  0.68490  0.85363  0.37646  1.0000
  S   S145      1.0  0.67628  0.94350  0.39360  1.0000
  Fe  Fe73      1.0  0.73763  0.83875  0.39284  1.0000
  S   S146      1.0  0.74203  0.80012  0.42681  1.0000
  Fe  Fe74      1.0  0.70756  0.85000  0.33153  1.0000
  H   H544      1.0  0.76614  0.73247  0.38924  1.0000
  S   S147      1.0  0.75909  0.88854  0.39761  1.0000
  S   S148      1.0  0.72613  0.90093  0.33027  1.0000
  S   S149      1.0  0.89975  0.77169  0.45617  1.0000
  C   C343      1.0  0.73860  0.72419  0.39135  1.0000
  H   H545      1.0  0.74362  0.94937  0.42357  1.0000
  H   H546      1.0  0.91302  0.66904  0.26959  1.0000
  C   C344      1.0  0.90713  0.64866  0.28438  1.0000
  H   H547      1.0  0.83759  0.77268  0.35128  1.0000
  H   H548      1.0  0.97475  0.73354  0.38560  1.0000
  H   H549      1.0  0.71906  0.81723  0.48992  1.0000
  C   C345      1.0  0.03996  0.64088  0.39846  1.0000
  C   C346      1.0  0.66518  0.74261  0.33516  1.0000
  C   C347      1.0  0.66952  0.77508  0.32908  1.0000
  C   C348      1.0  0.66694  0.88049  0.50117  1.0000
  H   H550      1.0  0.65037  0.85856  0.44656  1.0000
  C   C349      1.0  0.71408  0.87571  0.46730  1.0000
  H   H551      1.0  0.72357  0.73341  0.37205  1.0000
  H   H552      1.0  0.66818  0.79241  0.34672  1.0000
  H   H553      1.0  0.77553  0.74379  0.44785  1.0000
  C   C350      1.0  0.60277  0.97965  0.36393  1.0000
  C   C351      1.0  0.83694  0.88507  0.30109  1.0000
  H   H554      1.0  0.92510  0.59950  0.31828  1.0000
  H   H555      1.0  0.62712  0.97220  0.35319  1.0000
  C   C352      1.0  0.87035  0.87550  0.29380  1.0000
  C   C353      1.0  0.96242  0.62518  0.27420  1.0000
  H   H556      1.0  0.83759  0.73198  0.45822  1.0000
  H   H557      1.0  0.89132  0.87662  0.31020  1.0000
  C   C354      1.0  0.78551  0.79298  0.43715  1.0000
  C   C355      1.0  0.79508  0.76247  0.44608  1.0000
  C   C356      1.0  0.83017  0.75583  0.45221  1.0000
  C   C357      1.0  0.85551  0.78014  0.45096  1.0000
  C   C358      1.0  0.84566  0.81107  0.44362  1.0000
  C   C359      1.0  0.81082  0.81732  0.43600  1.0000
  H   H558      1.0  0.73128  0.89014  0.48264  1.0000
  S   S150      1.0  0.98208  0.64128  0.50549  1.0000
  H   H559      1.0  0.86514  0.83004  0.44306  1.0000
  H   H560      1.0  0.80356  0.84107  0.42961  1.0000
  C   C360      1.0  0.68847  0.95329  0.43008  1.0000
  C   C361      1.0  0.66263  0.95894  0.45056  1.0000
  C   C362      1.0  0.67157  0.96225  0.48059  1.0000
  H   H561      1.0  0.97728  0.73925  0.27657  1.0000
  C   C363      1.0  0.73241  0.95592  0.46958  1.0000
  C   C364      1.0  0.72347  0.95277  0.43946  1.0000
  H   H562      1.0  0.63549  0.95925  0.44348  1.0000
  H   H563      1.0  0.56684  0.01130  0.40550  1.0000
  H   H564      1.0  0.65359  0.89823  0.48695  1.0000
  H   H565      1.0  0.98568  0.78547  0.36125  1.0000
  C   C365      1.0  0.97209  0.70682  0.34475  1.0000
  H   H566      1.0  0.87468  0.75091  0.36460  1.0000
  C   C366      1.0  0.98185  0.76584  0.31727  1.0000
  C   C367      1.0  0.66315  0.84140  0.46182  1.0000
  H   H567      1.0  0.77586  0.67829  0.36240  1.0000
  H   H568      1.0  0.66019  0.73514  0.35745  1.0000
  H   H569      1.0  0.73104  0.85944  0.45498  1.0000
  S   S151      1.0  0.88736  0.69631  0.40877  1.0000
  C   C368      1.0  0.69912  0.67954  0.39825  1.0000
  H   H570      1.0  0.97090  0.68739  0.30067  1.0000
  C   C369      1.0  0.97609  0.73460  0.36185  1.0000
  C   C370      1.0  0.97752  0.73810  0.30032  1.0000
  Fe  Fe75      1.0  0.90927  0.71966  0.44986  1.0000
  C   C371      1.0  0.97358  0.70861  0.31404  1.0000
  C   C372      1.0  0.98205  0.76400  0.34810  1.0000
  S   S152      1.0  0.98386  0.80294  0.29997  1.0000
  C   C373      1.0  0.04728  0.61654  0.50715  1.0000
  C   C374      1.0  0.66788  0.71996  0.31258  1.0000
  N   N36       1.0  0.88375  0.80129  0.36037  1.0000
  C   C375      1.0  0.86396  0.83089  0.36271  1.0000
  C   C376      1.0  0.91329  0.80246  0.38196  1.0000
  C   C377      1.0  0.89703  0.79826  0.33015  1.0000
  C   C378      1.0  0.86064  0.77372  0.36665  1.0000
  H   H571      1.0  0.85273  0.83385  0.38490  1.0000
  H   H572      1.0  0.84193  0.83128  0.34630  1.0000
  H   H573      1.0  0.88084  0.85227  0.35888  1.0000
  H   H574      1.0  0.92623  0.77912  0.38364  1.0000
  H   H575      1.0  0.93325  0.82075  0.37599  1.0000
  H   H576      1.0  0.90458  0.80850  0.40447  1.0000
  H   H577      1.0  0.91131  0.77573  0.32728  1.0000
  H   H578      1.0  0.91545  0.81820  0.32497  1.0000
  H   H579      1.0  0.87559  0.79862  0.31320  1.0000
  C   C379      1.0  0.75790  0.67801  0.41800  1.0000
  C   C380      1.0  0.67454  0.78509  0.30011  1.0000
  H   H580      1.0  0.85085  0.77496  0.38951  1.0000
  H   H581      1.0  0.73378  0.68535  0.34574  1.0000
  H   H582      1.0  0.99979  0.51896  0.50127  1.0000
  H   H583      1.0  0.78427  0.89174  0.28512  1.0000
  H   H584      1.0  0.01327  0.64236  0.40744  1.0000
  C   C381      1.0  0.74731  0.67485  0.36523  1.0000
  H   H585      1.0  0.68147  0.68809  0.38036  1.0000
  S   S153      1.0  0.96337  0.70203  0.44376  1.0000
  S   S154      1.0  0.68138  0.82557  0.29254  1.0000
  H   H586      1.0  0.65128  0.96523  0.49634  1.0000
  C   C382      1.0  0.70633  0.95985  0.49024  1.0000
  H   H587      1.0  0.70226  0.89211  0.45093  1.0000
  N   N37       1.0  0.73575  0.68915  0.39317  1.0000
  C   C383      1.0  0.70372  0.83449  0.50286  1.0000
  H   H588      1.0  0.97310  0.63124  0.29670  1.0000
  H   H589      1.0  0.68979  0.68943  0.41941  1.0000
  H   H590      1.0  0.67744  0.82433  0.44790  1.0000
  H   H591      1.0  0.58048  0.97266  0.34893  1.0000
  Fe  Fe76      1.0  0.69333  0.65120  0.28676  1.0000
  H   H592      1.0  0.92961  0.57091  0.28892  1.0000
  H   H593      1.0  0.97624  0.60386  0.26628  1.0000
  C   C384      1.0  0.81007  0.88410  0.27962  1.0000
  Fe  Fe77      1.0  0.75986  0.61524  0.27710  1.0000
  H   H594      1.0  0.03697  0.64066  0.37395  1.0000
  S   S155      1.0  0.74699  0.66681  0.27445  1.0000
  C   C385      1.0  0.04899  0.69784  0.39731  1.0000
  H   H595      1.0  0.63015  0.00916  0.41237  1.0000
  H   H596      1.0  0.74843  0.79861  0.28331  1.0000
  H   H597      1.0  0.64223  0.82781  0.47308  1.0000
  H   H598      1.0  0.75470  0.74215  0.27393  1.0000
  H   H599      1.0  0.64658  0.86801  0.51406  1.0000
  H   H600      1.0  0.68409  0.82063  0.51539  1.0000
  Fe  Fe78      1.0  0.61624  0.95769  0.59862  1.0000
  C   C386      1.0  0.97670  0.55743  0.54377  1.0000
  C   C387      1.0  0.62235  0.81508  0.70521  1.0000
  H   H601      1.0  0.58599  0.89176  0.58705  1.0000
  H   H602      1.0  0.62879  0.81826  0.72917  1.0000
  H   H603      1.0  0.62767  0.83826  0.69420  1.0000
  Fe  Fe79      1.0  0.66927  0.97311  0.55237  1.0000
  N   N38       1.0  0.58566  0.80455  0.70036  1.0000
  N   N39       1.0  0.00081  0.53068  0.54765  1.0000
  H   H604      1.0  0.96209  0.56214  0.56419  1.0000
  Fe  Fe80      1.0  0.59456  0.98876  0.54086  1.0000
  H   H605      1.0  0.64061  0.79745  0.69616  1.0000
  C   C388      1.0  0.57119  0.89989  0.63197  1.0000
  H   H606      1.0  0.04252  0.56054  0.56551  1.0000
  S   S156      1.0  0.66783  0.98363  0.60082  1.0000
  H   H607      1.0  0.05118  0.62968  0.52766  1.0000
  C   C389      1.0  0.01866  0.52475  0.51967  1.0000
  S   S157      1.0  0.62054  0.94262  0.55118  1.0000
  H   H608      1.0  0.63095  0.96475  0.69432  1.0000
  C   C390      1.0  0.57970  0.77377  0.71525  1.0000
  C   C391      1.0  0.57818  0.80085  0.66831  1.0000
  S   S158      1.0  0.60212  0.93044  0.63918  1.0000
  H   H609      1.0  0.66131  0.97055  0.66555  1.0000
  H   H610      1.0  0.04554  0.51914  0.57477  1.0000
  H   H611      1.0  0.59666  0.75492  0.70654  1.0000
  C   C392      1.0  0.02694  0.53885  0.57118  1.0000
  C   C393      1.0  0.56908  0.88438  0.60454  1.0000
  H   H612      1.0  0.59431  0.78214  0.65830  1.0000
  S   S159      1.0  0.58507  0.00083  0.58818  1.0000
  H   H613      1.0  0.58340  0.82343  0.65630  1.0000
  H   H614      1.0  0.67616  0.97360  0.70337  1.0000
  H   H615      1.0  0.01441  0.54356  0.59261  1.0000
  H   H616      1.0  0.61414  0.01089  0.72545  1.0000
  C   C394      1.0  0.65421  0.97914  0.68788  1.0000
  H   H617      1.0  0.72204  0.84639  0.51912  1.0000
  H   H618      1.0  0.58466  0.77583  0.73953  1.0000
  H   H619      1.0  0.95731  0.55271  0.52548  1.0000
  C   C395      1.0  0.56246  0.82861  0.71274  1.0000
  H   H620      1.0  0.56730  0.85246  0.70307  1.0000
  H   H621      1.0  0.56604  0.83088  0.73714  1.0000
  S   S160      1.0  0.71664  0.95906  0.52813  1.0000
  H   H622      1.0  0.99100  0.57987  0.53832  1.0000
  H   H623      1.0  0.59350  0.00591  0.67302  1.0000
  H   H624      1.0  0.62366  0.01221  0.64421  1.0000
  H   H625      1.0  0.68422  0.89415  0.51710  1.0000
  H   H626      1.0  0.69461  0.55158  0.93759  1.0000
  C   C396      1.0  0.62756  0.56439  0.94712  1.0000
  H   H627      1.0  0.62542  0.55642  0.97038  1.0000
  H   H628      1.0  0.64486  0.58597  0.94718  1.0000
  H   H629      1.0  0.60112  0.57182  0.93967  1.0000
  H   H630      1.0  0.01797  0.97926  0.93478  1.0000
  H   H631      1.0  0.65876  0.57160  0.89512  1.0000
  C   C397      1.0  0.64166  0.55004  0.89716  1.0000
  H   H632      1.0  0.61512  0.55619  0.88878  1.0000
  H   H633      1.0  0.56089  0.60167  0.01580  1.0000
  H   H634      1.0  0.04581  0.91653  0.96034  1.0000
  H   H635      1.0  0.01607  0.94103  0.91678  1.0000
  N   N40       1.0  0.64084  0.53890  0.92802  1.0000
  C   C398      1.0  0.03272  0.96275  0.92054  1.0000
  H   H636      1.0  0.65176  0.53135  0.88220  1.0000
  C   C399      1.0  0.67645  0.53063  0.93808  1.0000
  H   H637      1.0  0.03606  0.97461  0.89887  1.0000
  C   C400      1.0  0.55696  0.55275  0.00126  1.0000
  H   H638      1.0  0.04612  0.95477  0.97816  1.0000
  H   H639      1.0  0.67677  0.52146  0.96109  1.0000
  H   H640      1.0  0.59020  0.51607  0.92366  1.0000
