data_image0
_chemical_formula_structural       FeS2FeSFeSFeSHSC2HC2SCHC3H8CH2CH6CH3C2HCH2CH2NHCHCH2CH2CHNH2CH5CFeSFeS2C3HC4SHC2H2CNC3HCH2CH2CHC2H10CHSH2S2H2CH2NC2HCH2CHC2SH3CH2C2H2CH2NHNCHSHC2H2C3HSH2S2H3Fe2HFeH2CHCFeCS2C2SHC2H2CH3CSH2CFeHCS3FeSC2FeHSFeC2SCHCH4CHCHCH3CH3CSFeS2CH4CH3NHCH3FeCH5FeCSCHC2H4C2HC2SC2S2HSNFeHSHFeH3CH2SHCH2C2FeC2SH4C2H3SCHCH2CH2CH2SH3CH2CSCNFeCSCHSFeHC4H2CFeH4CH3CNC2HCH4SHSCSFeH2CFeS3CHC3HSFeC2H2FeCHC2HSCNCHC2H6CHC2H3CH5SHSFeSCH2C2H2CH3CNHCNH6NHFeS2FeSFeSFeS2C2HCH3C4HSHCH2CH3CHCHCHCHCNH2CH9CH6CH2CH3SCFeS2FeSFeSH2C3HNCHC2S2HCHCH2CNH3CHC3HC2H3CHCH3CH2NCH2NCHC2SH4CFeCH2C3HC2HC3HCH5CSH2SH3NSHSCHFeSFeH3CHCFeHCSH2SC2FeS2C3H3CH2CH10CH4SH3FeHFeSFeSCSC4H2FeCHS2C2HC2H2C2HCSH2SCNCHFeC2SC2NC3HCHCH2SHSHSH6CSH4CHCH2SFeCHC3HFe2SH2CH6CH9CHCNHSCHCNCH2CH2NH2CHCH3CH3CHSFeS2FeSFe2S3CSH4CH2CH3C2HC2HSH4C3NCNHCHFeS2CSHCHCHC2HFeHSHCSFeHCHFeH2CH2C2H5CNHSHCH2CH3CH2CH3NCH2CS2CH2C2HCH3CH2SHSFe2S2CHC5HCHCH2SFeCHCFeHSNC2SC2H4CH4CH7C2H5CNHCH3C2H2SHCH3CH2C2HFeHS2FeH3S2CHC2HSCHNFeSFeHC2SHC
_chemical_formula_sum              "Fe64 S128 H512 C320 N32"
_cell_length_a       36.2422
_cell_length_b       36.3561
_cell_length_c       36.0169
_cell_angle_alpha    89.4252
_cell_angle_beta     89.7728
_cell_angle_gamma    86.326

_space_group_name_H-M_alt    "P 1"
_space_group_IT_number       1

loop_
  _space_group_symop_operation_xyz
  'x, y, z'

loop_
  _atom_site_type_symbol
  _atom_site_label
  _atom_site_symmetry_multiplicity
  _atom_site_fract_x
  _atom_site_fract_y
  _atom_site_fract_z
  _atom_site_occupancy
  Fe  Fe1       1.0  0.14196  0.26676  0.21159  1.0000
  S   S1        1.0  0.16701  0.21213  0.19296  1.0000
  S   S2        1.0  0.08168  0.28275  0.20334  1.0000
  Fe  Fe2       1.0  0.21370  0.28776  0.24792  1.0000
  S   S3        1.0  0.24410  0.23416  0.23307  1.0000
  Fe  Fe3       1.0  0.21621  0.24335  0.17770  1.0000
  S   S4        1.0  0.24662  0.23062  0.12418  1.0000
  Fe  Fe4       1.0  0.19159  0.20889  0.24997  1.0000
  S   S5        1.0  0.18902  0.29872  0.19171  1.0000
  H   H1        1.0  0.10041  0.20870  0.22975  1.0000
  S   S6        1.0  0.16351  0.26180  0.26945  1.0000
  C   C1        1.0  0.24729  0.12582  0.26610  1.0000
  C   C2        1.0  0.21290  0.12292  0.28333  1.0000
  H   H2        1.0  0.25506  0.15217  0.25549  1.0000
  C   C3        1.0  0.20304  0.08888  0.29723  1.0000
  C   C4        1.0  0.27180  0.09447  0.26286  1.0000
  S   S7        1.0  0.18134  0.16107  0.28749  1.0000
  C   C5        1.0  0.07238  0.21644  0.23777  1.0000
  H   H3        1.0  0.20876  0.30336  0.12077  1.0000
  C   C6        1.0  0.22663  0.30008  0.09714  1.0000
  C   C7        1.0  0.24789  0.26709  0.09184  1.0000
  C   C8        1.0  0.53590  0.30805  0.49717  1.0000
  H   H4        1.0  0.09429  0.24211  0.30680  1.0000
  H   H5        1.0  0.17642  0.08656  0.31050  1.0000
  H   H6        1.0  0.21727  0.08200  0.20869  1.0000
  H   H7        1.0  0.10848  0.17553  0.31560  1.0000
  H   H8        1.0  0.27315  0.29370  0.16393  1.0000
  H   H9        1.0  0.27577  0.30652  0.21159  1.0000
  H   H10       1.0  0.53727  0.27741  0.49829  1.0000
  H   H11       1.0  0.19730  0.08371  0.12682  1.0000
  C   C9        1.0  0.05608  0.25105  0.22785  1.0000
  H   H12       1.0  0.24069  0.09553  0.14611  1.0000
  H   H13       1.0  0.29838  0.09663  0.24950  1.0000
  C   C10       1.0  0.29050  0.30712  0.18453  1.0000
  H   H14       1.0  0.06529  0.16490  0.26606  1.0000
  H   H15       1.0  0.08043  0.24311  0.40906  1.0000
  H   H16       1.0  0.51058  0.31728  0.48128  1.0000
  H   H17       1.0  0.05858  0.31622  0.13389  1.0000
  H   H18       1.0  0.53195  0.31810  0.52612  1.0000
  H   H19       1.0  0.06531  0.17122  0.33930  1.0000
  C   C11       1.0  0.07859  0.21572  0.39589  1.0000
  H   H20       1.0  0.09068  0.19439  0.41548  1.0000
  H   H21       1.0  0.29661  0.27865  0.26919  1.0000
  H   H22       1.0  0.31675  0.28971  0.18744  1.0000
  C   C12       1.0  0.30656  0.30160  0.28404  1.0000
  C   C13       1.0  0.34402  0.30121  0.29404  1.0000
  H   H23       1.0  0.36274  0.27802  0.28672  1.0000
  C   C14       1.0  0.13733  0.22072  0.36480  1.0000
  H   H24       1.0  0.08275  0.27090  0.34573  1.0000
  H   H25       1.0  0.14099  0.24854  0.37632  1.0000
  C   C15       1.0  0.08066  0.24270  0.33452  1.0000
  H   H26       1.0  0.10816  0.15516  0.36096  1.0000
  H   H27       1.0  0.15269  0.21886  0.33798  1.0000
  N   N1        1.0  0.09784  0.21415  0.35964  1.0000
  H   H28       1.0  0.15114  0.19984  0.38379  1.0000
  C   C16       1.0  0.09473  0.17738  0.34326  1.0000
  H   H29       1.0  0.17817  0.17783  0.08673  1.0000
  C   C17       1.0  0.05255  0.19167  0.25867  1.0000
  H   H30       1.0  0.54951  0.31783  0.42414  1.0000
  H   H31       1.0  0.30720  0.27733  0.80181  1.0000
  C   C18       1.0  0.33009  0.26074  0.78788  1.0000
  H   H32       1.0  0.31920  0.25085  0.76119  1.0000
  H   H33       1.0  0.30553  0.19219  0.79192  1.0000
  C   C19       1.0  0.31522  0.20394  0.81827  1.0000
  H   H34       1.0  0.36833  0.19898  0.76586  1.0000
  N   N2        1.0  0.34455  0.22975  0.81170  1.0000
  H   H35       1.0  0.35199  0.27987  0.78102  1.0000
  H   H36       1.0  0.38795  0.18665  0.81042  1.0000
  C   C20       1.0  0.37639  0.21017  0.79310  1.0000
  H   H37       1.0  0.39909  0.22888  0.78785  1.0000
  H   H38       1.0  0.29077  0.21781  0.83226  1.0000
  H   H39       1.0  0.13191  0.17997  0.06843  1.0000
  H   H40       1.0  0.21808  0.16654  0.01268  1.0000
  H   H41       1.0  0.15396  0.16912  0.98760  1.0000
  C   C21       1.0  0.10134  0.28593  0.98702  1.0000
  Fe  Fe5       1.0  0.27083  0.26211  0.90853  1.0000
  S   S8        1.0  0.22257  0.27673  0.94549  1.0000
  Fe  Fe6       1.0  0.19552  0.29972  0.89388  1.0000
  S   S9        1.0  0.13763  0.28580  0.88066  1.0000
  S   S10       1.0  0.24201  0.28068  0.85615  1.0000
  C   C22       1.0  0.26800  0.17409  0.92531  1.0000
  C   C23       1.0  0.23052  0.18215  0.91775  1.0000
  C   C24       1.0  0.21527  0.12491  0.94786  1.0000
  H   H42       1.0  0.22164  0.20733  0.90324  1.0000
  C   C25       1.0  0.16569  0.23982  0.04625  1.0000
  C   C26       1.0  0.12175  0.29306  0.95484  1.0000
  C   C27       1.0  0.11356  0.27605  0.92147  1.0000
  C   C28       1.0  0.08530  0.25163  0.92043  1.0000
  S   S11       1.0  0.18126  0.09741  0.96621  1.0000
  H   H43       1.0  0.22138  0.21438  0.00168  1.0000
  C   C29       1.0  0.27924  0.14086  0.94312  1.0000
  C   C30       1.0  0.20427  0.15755  0.92885  1.0000
  H   H44       1.0  0.17533  0.16406  0.92291  1.0000
  H   H45       1.0  0.17534  0.26060  0.02605  1.0000
  C   C31       1.0  0.25287  0.11637  0.95459  1.0000
  N   N3        1.0  0.17244  0.20193  0.03222  1.0000
  C   C32       1.0  0.16167  0.17530  0.06093  1.0000
  C   C33       1.0  0.21211  0.19492  0.02333  1.0000
  C   C34       1.0  0.07282  0.26174  0.98583  1.0000
  H   H46       1.0  0.10749  0.29946  0.01267  1.0000
  C   C35       1.0  0.15017  0.19756  0.99849  1.0000
  H   H47       1.0  0.16621  0.14644  0.05093  1.0000
  H   H48       1.0  0.12015  0.20269  0.00427  1.0000
  C   C36       1.0  0.24821  0.32390  0.03848  1.0000
  H   H49       1.0  0.15785  0.21690  0.97596  1.0000
  H   H50       1.0  0.22963  0.19788  0.04828  1.0000
  C   C37       1.0  0.26927  0.26252  0.05957  1.0000
  H   H51       1.0  0.07958  0.23774  0.89486  1.0000
  C   C38       1.0  0.06484  0.24460  0.95253  1.0000
  C   C39       1.0  0.26902  0.29069  0.03265  1.0000
  H   H52       1.0  0.18041  0.24345  0.07282  1.0000
  H   H53       1.0  0.14340  0.31221  0.95571  1.0000
  H   H54       1.0  0.06068  0.28640  0.84699  1.0000
  H   H55       1.0  0.26160  0.09154  0.96967  1.0000
  H   H56       1.0  0.28572  0.23703  0.05509  1.0000
  H   H57       1.0  0.13575  0.24649  0.05162  1.0000
  H   H58       1.0  0.32497  0.18059  0.83680  1.0000
  H   H59       1.0  0.41417  0.32075  0.83282  1.0000
  H   H60       1.0  0.33351  0.25976  0.86204  1.0000
  H   H61       1.0  0.37948  0.26282  0.84395  1.0000
  C   C40       1.0  0.35664  0.24410  0.84761  1.0000
  H   H62       1.0  0.30821  0.13454  0.94907  1.0000
  S   S12       1.0  0.30047  0.20628  0.91395  1.0000
  H   H63       1.0  0.36651  0.22138  0.86681  1.0000
  H   H64       1.0  0.28516  0.28683  0.00747  1.0000
  S   S13       1.0  0.29816  0.31510  0.91702  1.0000
  S   S14       1.0  0.23642  0.33555  0.27736  1.0000
  H   H65       1.0  0.24244  0.35628  0.15150  1.0000
  H   H66       1.0  0.27711  0.38440  0.32037  1.0000
  C   C41       1.0  0.26163  0.36752  0.17191  1.0000
  H   H67       1.0  0.24743  0.36784  0.19948  1.0000
  H   H68       1.0  0.26559  0.39662  0.16382  1.0000
  N   N4        1.0  0.29723  0.34530  0.17331  1.0000
  C   C42       1.0  0.28240  0.33180  0.29315  1.0000
  C   C43       1.0  0.29564  0.36098  0.31320  1.0000
  H   H69       1.0  0.30853  0.36296  0.22868  1.0000
  C   C44       1.0  0.31491  0.34511  0.13624  1.0000
  H   H70       1.0  0.32015  0.37349  0.12663  1.0000
  H   H71       1.0  0.32838  0.38976  0.19266  1.0000
  C   C45       1.0  0.32174  0.36132  0.20073  1.0000
  H   H72       1.0  0.54195  0.37337  0.46239  1.0000
  C   C46       1.0  0.33281  0.36014  0.32403  1.0000
  C   C47       1.0  0.35716  0.33043  0.31416  1.0000
  S   S15       1.0  0.40404  0.32992  0.32646  1.0000
  H   H73       1.0  0.34827  0.34438  0.20392  1.0000
  H   H74       1.0  0.34271  0.38278  0.33961  1.0000
  H   H75       1.0  0.42407  0.53290  0.32536  1.0000
  C   C48       1.0  0.54732  0.40727  0.38147  1.0000
  H   H76       1.0  0.26705  0.50051  0.47531  1.0000
  H   H77       1.0  0.27139  0.54637  0.52552  1.0000
  C   C49       1.0  0.29615  0.53577  0.51131  1.0000
  C   C50       1.0  0.29368  0.51003  0.48284  1.0000
  H   H78       1.0  0.29715  0.33294  0.11499  1.0000
  H   H79       1.0  0.38682  0.38152  0.57083  1.0000
  C   C51       1.0  0.33042  0.54872  0.52040  1.0000
  H   H80       1.0  0.46444  0.54395  0.35101  1.0000
  H   H81       1.0  0.41371  0.56509  0.43895  1.0000
  N   N5        1.0  0.41303  0.55254  0.38074  1.0000
  H   H82       1.0  0.44200  0.50278  0.36166  1.0000
  N   N6        1.0  0.37201  0.43917  0.57830  1.0000
  C   C52       1.0  0.54491  0.44042  0.40101  1.0000
  H   H83       1.0  0.40332  0.47980  0.55084  1.0000
  S   S16       1.0  0.32209  0.46402  0.42909  1.0000
  H   H84       1.0  0.51168  0.55719  0.47481  1.0000
  C   C53       1.0  0.43687  0.53226  0.35340  1.0000
  C   C54       1.0  0.43126  0.55069  0.41742  1.0000
  H   H85       1.0  0.43723  0.52161  0.42673  1.0000
  H   H86       1.0  0.41797  0.43290  0.54071  1.0000
  C   C55       1.0  0.37698  0.53577  0.38329  1.0000
  C   C56       1.0  0.46233  0.35434  0.57662  1.0000
  C   C57       1.0  0.36231  0.53562  0.50153  1.0000
  H   H87       1.0  0.52325  0.39800  0.36761  1.0000
  S   S17       1.0  0.42146  0.43016  0.45880  1.0000
  H   H88       1.0  0.51758  0.43283  0.53470  1.0000
  H   H89       1.0  0.35373  0.42234  0.52453  1.0000
  S   S18       1.0  0.40807  0.42972  0.36846  1.0000
  S   S19       1.0  0.50225  0.46561  0.40610  1.0000
  H   H90       1.0  0.38451  0.49910  0.45942  1.0000
  H   H91       1.0  0.33749  0.46795  0.53778  1.0000
  H   H92       1.0  0.31759  0.42899  0.55860  1.0000
  Fe  Fe7       1.0  0.37375  0.42796  0.42025  1.0000
  Fe  Fe8       1.0  0.42435  0.36865  0.45675  1.0000
  H   H93       1.0  0.36235  0.53669  0.35616  1.0000
  Fe  Fe9       1.0  0.45632  0.42679  0.40747  1.0000
  H   H94       1.0  0.35827  0.55017  0.40388  1.0000
  H   H95       1.0  0.38875  0.54597  0.50835  1.0000
  C   C58       1.0  0.48264  0.38863  0.52317  1.0000
  H   H96       1.0  0.38033  0.50630  0.39198  1.0000
  C   C59       1.0  0.32561  0.49648  0.46426  1.0000
  Fe  Fe10      1.0  0.41163  0.36799  0.37413  1.0000
  C   C60       1.0  0.50231  0.41084  0.54643  1.0000
  S   S20       1.0  0.37302  0.36645  0.42281  1.0000
  S   S21       1.0  0.43387  0.33646  0.50961  1.0000
  C   C61       1.0  0.35994  0.50907  0.47389  1.0000
  C   C62       1.0  0.34400  0.43958  0.54853  1.0000
  S   S22       1.0  0.46347  0.36496  0.40857  1.0000
  H   H97       1.0  0.48324  0.39317  0.49352  1.0000
  C   C63       1.0  0.46196  0.36098  0.53832  1.0000
  C   C64       1.0  0.40707  0.45155  0.56300  1.0000
  H   H98       1.0  0.45806  0.56402  0.41658  1.0000
  H   H99       1.0  0.34182  0.32852  0.13641  1.0000
  C   C65       1.0  0.50105  0.40552  0.58486  1.0000
  H   H100      1.0  0.31424  0.44771  0.79979  1.0000
  H   H101      1.0  0.32739  0.49300  0.78715  1.0000
  H   H102      1.0  0.37931  0.46457  0.63131  1.0000
  C   C66       1.0  0.43541  0.56761  0.80387  1.0000
  S   S23       1.0  0.52605  0.40571  0.71796  1.0000
  H   H103      1.0  0.32233  0.39300  0.75529  1.0000
  H   H104      1.0  0.48115  0.37240  0.62974  1.0000
  C   C67       1.0  0.34230  0.37729  0.77236  1.0000
  Fe  Fe11      1.0  0.46852  0.39618  0.73795  1.0000
  H   H105      1.0  0.38735  0.38410  0.73430  1.0000
  C   C68       1.0  0.37912  0.37233  0.76046  1.0000
  S   S24       1.0  0.52218  0.43609  0.61360  1.0000
  S   S25       1.0  0.44034  0.42112  0.68731  1.0000
  S   S26       1.0  0.49305  0.49057  0.69805  1.0000
  Fe  Fe12      1.0  0.43900  0.47331  0.71986  1.0000
  S   S27       1.0  0.38861  0.51246  0.72173  1.0000
  C   C69       1.0  0.39593  0.54446  0.75648  1.0000
  C   C70       1.0  0.42976  0.54315  0.77508  1.0000
  Fe  Fe13      1.0  0.51799  0.45998  0.74686  1.0000
  H   H106      1.0  0.45184  0.52349  0.76727  1.0000
  S   S28       1.0  0.46344  0.44754  0.77175  1.0000
  Fe  Fe14      1.0  0.49744  0.43570  0.67061  1.0000
  C   C71       1.0  0.33126  0.36206  0.80616  1.0000
  C   C72       1.0  0.40499  0.35161  0.78202  1.0000
  S   S29       1.0  0.45103  0.34512  0.76699  1.0000
  C   C73       1.0  0.36809  0.57122  0.76588  1.0000
  H   H107      1.0  0.34170  0.57208  0.75188  1.0000
  C   C74       1.0  0.48155  0.37696  0.60002  1.0000
  H   H108      1.0  0.40018  0.39950  0.61472  1.0000
  H   H109      1.0  0.38069  0.42997  0.81417  1.0000
  H   H110      1.0  0.46137  0.56585  0.81869  1.0000
  H   H111      1.0  0.39172  0.47572  0.80124  1.0000
  C   C75       1.0  0.39398  0.33622  0.81581  1.0000
  H   H112      1.0  0.35408  0.49318  0.59780  1.0000
  C   C76       1.0  0.31892  0.47550  0.81091  1.0000
  H   H113      1.0  0.33232  0.45596  0.62040  1.0000
  C   C77       1.0  0.35886  0.46430  0.60829  1.0000
  H   H114      1.0  0.35259  0.39139  0.60607  1.0000
  H   H115      1.0  0.54049  0.56683  0.80757  1.0000
  H   H116      1.0  0.42885  0.45184  0.58475  1.0000
  C   C78       1.0  0.35176  0.51053  0.85521  1.0000
  H   H117      1.0  0.06211  0.32647  0.87527  1.0000
  H   H118      1.0  0.34383  0.57343  0.68173  1.0000
  H   H119      1.0  0.37304  0.50998  0.87746  1.0000
  C   C79       1.0  0.33549  0.44877  0.87070  1.0000
  S   S30       1.0  0.28526  0.37026  0.82076  1.0000
  Fe  Fe15      1.0  0.26478  0.33535  0.86767  1.0000
  S   S31       1.0  0.24674  0.35878  0.00466  1.0000
  S   S32       1.0  0.21527  0.35637  0.90081  1.0000
  C   C80       1.0  0.38276  0.45837  0.82483  1.0000
  H   H120      1.0  0.29182  0.48726  0.82144  1.0000
  H   H121      1.0  0.35614  0.44652  0.89352  1.0000
  H   H122      1.0  0.40516  0.45714  0.84593  1.0000
  H   H123      1.0  0.36081  0.52958  0.83310  1.0000
  C   C81       1.0  0.35718  0.34173  0.82806  1.0000
  H   H124      1.0  0.34900  0.33059  0.85453  1.0000
  H   H125      1.0  0.32544  0.52287  0.86705  1.0000
  H   H126      1.0  0.30844  0.45888  0.88278  1.0000
  N   N7        1.0  0.34720  0.47329  0.84045  1.0000
  H   H127      1.0  0.33208  0.42038  0.86050  1.0000
  C   C82       1.0  0.37815  0.40126  0.59321  1.0000
  H   H128      1.0  0.21055  0.35408  0.07505  1.0000
  H   H129      1.0  0.35502  0.57229  0.63316  1.0000
  H   H130      1.0  0.44675  0.33255  0.58830  1.0000
  Fe  Fe16      1.0  0.24686  0.33157  0.94930  1.0000
  C   C83       1.0  0.22731  0.32871  0.07092  1.0000
  H   H131      1.0  0.05290  0.33136  0.82648  1.0000
  H   H132      1.0  0.37207  0.72702  0.34719  1.0000
  H   H133      1.0  0.09107  0.81210  0.33764  1.0000
  H   H134      1.0  0.41840  0.76263  0.31400  1.0000
  H   H135      1.0  0.06268  0.78745  0.39533  1.0000
  Fe  Fe17      1.0  0.34903  0.63298  0.52321  1.0000
  C   C84       1.0  0.27138  0.81344  0.37199  1.0000
  S   S33       1.0  0.28396  0.71568  0.42655  1.0000
  C   C85       1.0  0.28548  0.76270  0.41533  1.0000
  H   H136      1.0  0.25229  0.75878  0.36619  1.0000
  C   C86       1.0  0.26797  0.77665  0.38305  1.0000
  C   C87       1.0  0.30564  0.78591  0.43706  1.0000
  H   H137      1.0  0.50419  0.74673  0.50422  1.0000
  H   H138      1.0  0.52531  0.65787  0.40143  1.0000
  H   H139      1.0  0.39295  0.59404  0.34152  1.0000
  H   H140      1.0  0.44029  0.79881  0.33742  1.0000
  C   C88       1.0  0.41427  0.78423  0.33557  1.0000
  C   C89       1.0  0.40707  0.59149  0.36888  1.0000
  H   H141      1.0  0.51451  0.60568  0.46645  1.0000
  C   C90       1.0  0.39928  0.79777  0.39950  1.0000
  C   C91       1.0  0.52761  0.58144  0.48154  1.0000
  S   S34       1.0  0.39449  0.74727  0.57730  1.0000
  C   C92       1.0  0.54229  0.72598  0.46219  1.0000
  C   C93       1.0  0.54830  0.70067  0.43341  1.0000
  S   S35       1.0  0.33336  0.58253  0.55407  1.0000
  S   S36       1.0  0.37985  0.72024  0.47334  1.0000
  H   H142      1.0  0.45655  0.70385  0.48908  1.0000
  S   S37       1.0  0.40536  0.65318  0.53123  1.0000
  N   N8        1.0  0.40438  0.76809  0.37182  1.0000
  Fe  Fe18      1.0  0.32577  0.69429  0.46878  1.0000
  H   H143      1.0  0.31840  0.77563  0.46250  1.0000
  S   S38       1.0  0.31815  0.68782  0.53038  1.0000
  H   H144      1.0  0.46108  0.75426  0.38722  1.0000
  Fe  Fe19      1.0  0.37496  0.70875  0.53431  1.0000
  H   H145      1.0  0.52425  0.58689  0.51176  1.0000
  H   H146      1.0  0.34626  0.76906  0.35938  1.0000
  H   H147      1.0  0.39029  0.78688  0.42686  1.0000
  C   C94       1.0  0.50888  0.72739  0.48176  1.0000
  H   H148      1.0  0.36117  0.73666  0.39478  1.0000
  H   H149      1.0  0.43373  0.60498  0.36646  1.0000
  S   S39       1.0  0.45324  0.64835  0.43279  1.0000
  H   H150      1.0  0.42788  0.72863  0.41135  1.0000
  C   C95       1.0  0.48175  0.70319  0.47300  1.0000
  H   H151      1.0  0.38970  0.60765  0.38933  1.0000
  H   H152      1.0  0.43877  0.71812  0.36408  1.0000
  C   C96       1.0  0.43433  0.74117  0.38403  1.0000
  C   C97       1.0  0.36955  0.74938  0.36806  1.0000
  Fe  Fe20      1.0  0.40465  0.66246  0.46983  1.0000
  C   C98       1.0  0.52075  0.67703  0.42403  1.0000
  C   C99       1.0  0.48754  0.67818  0.44398  1.0000
  S   S40       1.0  0.35105  0.63685  0.46108  1.0000
  H   H153      1.0  0.39208  0.80455  0.32553  1.0000
  H   H154      1.0  0.42534  0.81165  0.40413  1.0000
  H   H155      1.0  0.07010  0.77738  0.31103  1.0000
  H   H156      1.0  0.37774  0.81921  0.39048  1.0000
  C   C100      1.0  0.06550  0.80554  0.32268  1.0000
  C   C101      1.0  0.30899  0.82269  0.42606  1.0000
  H   H157      1.0  0.25842  0.82379  0.34666  1.0000
  H   H158      1.0  0.06226  0.82514  0.29877  1.0000
  H   H159      1.0  0.28517  0.72350  0.65194  1.0000
  S   S41       1.0  0.30873  0.72542  0.72754  1.0000
  C   C102      1.0  0.31335  0.73170  0.65222  1.0000
  H   H160      1.0  0.31553  0.60004  0.64888  1.0000
  C   C103      1.0  0.34450  0.59055  0.65599  1.0000
  H   H161      1.0  0.31843  0.73249  0.59276  1.0000
  H   H162      1.0  0.32434  0.65670  0.68546  1.0000
  C   C104      1.0  0.53912  0.72807  0.85961  1.0000
  H   H163      1.0  0.53738  0.65563  0.75432  1.0000
  H   H164      1.0  0.19034  0.80797  0.86808  1.0000
  C   C105      1.0  0.33101  0.73685  0.68606  1.0000
  H   H165      1.0  0.50771  0.66276  0.83275  1.0000
  H   H166      1.0  0.33908  0.65493  0.61850  1.0000
  S   S42       1.0  0.33014  0.69910  0.83032  1.0000
  H   H167      1.0  0.35242  0.63005  0.71794  1.0000
  H   H168      1.0  0.50138  0.61502  0.84152  1.0000
  H   H169      1.0  0.37028  0.66927  0.69575  1.0000
  C   C106      1.0  0.35307  0.64546  0.69125  1.0000
  H   H170      1.0  0.38492  0.66813  0.62823  1.0000
  H   H171      1.0  0.42438  0.63156  0.67284  1.0000
  C   C107      1.0  0.40612  0.60836  0.66929  1.0000
  S   S43       1.0  0.40473  0.70519  0.77737  1.0000
  C   C108      1.0  0.36757  0.64405  0.62590  1.0000
  N   N9        1.0  0.36782  0.62208  0.66063  1.0000
  Fe  Fe21      1.0  0.34555  0.72738  0.77720  1.0000
  C   C109      1.0  0.36729  0.74791  0.68629  1.0000
  S   S44       1.0  0.35705  0.78083  0.80370  1.0000
  C   C110      1.0  0.50553  0.76940  0.81638  1.0000
  H   H172      1.0  0.38093  0.75241  0.71233  1.0000
  S   S45       1.0  0.46382  0.78978  0.79888  1.0000
  Fe  Fe22      1.0  0.41501  0.75602  0.80940  1.0000
  H   H173      1.0  0.41457  0.76035  0.65292  1.0000
  C   C111      1.0  0.38626  0.75253  0.65267  1.0000
  C   C112      1.0  0.36906  0.74591  0.61884  1.0000
  C   C113      1.0  0.33234  0.73626  0.61869  1.0000
  C   C114      1.0  0.53916  0.77965  0.80159  1.0000
  H   H174      1.0  0.53932  0.79990  0.77936  1.0000
  H   H175      1.0  0.37825  0.62714  0.60222  1.0000
  C   C115      1.0  0.50961  0.63501  0.81988  1.0000
  Fe  Fe23      1.0  0.39046  0.68152  0.83282  1.0000
  H   H176      1.0  0.48842  0.63543  0.79755  1.0000
  H   H177      1.0  0.40729  0.59178  0.69543  1.0000
  H   H178      1.0  0.35314  0.61807  0.80052  1.0000
  H   H179      1.0  0.52812  0.58854  0.76408  1.0000
  C   C116      1.0  0.54795  0.58876  0.78757  1.0000
  H   H180      1.0  0.41801  0.59045  0.64680  1.0000
  H   H181      1.0  0.37932  0.81505  0.87067  1.0000
  H   H182      1.0  0.43308  0.79277  0.90860  1.0000
  C   C117      1.0  0.44570  0.81923  0.90218  1.0000
  N   N10       1.0  0.54718  0.62532  0.80536  1.0000
  C   C118      1.0  0.40797  0.59481  0.81283  1.0000
  C   C119      1.0  0.37445  0.59704  0.79350  1.0000
  H   H183      1.0  0.19945  0.79544  0.91582  1.0000
  C   C120      1.0  0.30366  0.82269  0.90376  1.0000
  H   H184      1.0  0.30144  0.82273  0.84402  1.0000
  H   H185      1.0  0.13337  0.80996  0.93059  1.0000
  H   H186      1.0  0.53898  0.70837  0.88232  1.0000
  H   H187      1.0  0.46305  0.81473  0.87680  1.0000
  S   S46       1.0  0.41612  0.62585  0.84805  1.0000
  H   H188      1.0  0.48003  0.73575  0.85738  1.0000
  S   S47       1.0  0.40539  0.73055  0.86496  1.0000
  C   C121      1.0  0.50562  0.74356  0.84542  1.0000
  S   S48       1.0  0.31985  0.77647  0.90820  1.0000
  Fe  Fe24      1.0  0.34645  0.75108  0.85719  1.0000
  H   H189      1.0  0.46449  0.82495  0.92547  1.0000
  H   H190      1.0  0.12368  0.82402  0.88340  1.0000
  C   C122      1.0  0.19750  0.81892  0.89571  1.0000
  Fe  Fe25      1.0  0.22894  0.90152  0.25589  1.0000
  S   S49       1.0  0.20555  0.95992  0.25786  1.0000
  S   S50       1.0  0.21740  0.87366  0.20230  1.0000
  S   S51       1.0  0.28468  0.91443  0.27728  1.0000
  C   C123      1.0  0.11082  0.91655  0.28034  1.0000
  H   H191      1.0  0.13997  0.91247  0.27426  1.0000
  C   C124      1.0  0.26809  0.91797  0.17219  1.0000
  C   C125      1.0  0.23602  0.89947  0.16623  1.0000
  C   C126      1.0  0.21792  0.90318  0.13201  1.0000
  H   H192      1.0  0.19309  0.88896  0.12734  1.0000
  S   S52       1.0  0.20709  0.88491  0.31174  1.0000
  Fe  Fe26      1.0  0.25899  0.97143  0.28457  1.0000
  C   C127      1.0  0.08568  0.89631  0.26108  1.0000
  C   C128      1.0  0.09832  0.94138  0.30771  1.0000
  H   H193      1.0  0.09574  0.87637  0.24072  1.0000
  H   H194      1.0  0.21881  0.03127  0.30351  1.0000
  Fe  Fe27      1.0  0.18717  0.94462  0.31498  1.0000
  C   C129      1.0  0.26339  0.94487  0.11037  1.0000
  H   H195      1.0  0.28248  0.91482  0.19829  1.0000
  C   C130      1.0  0.28205  0.94016  0.14414  1.0000
  C   C131      1.0  0.23130  0.92630  0.10426  1.0000
  H   H196      1.0  0.20198  0.98893  0.16872  1.0000
  S   S53       1.0  0.29058  0.02058  0.26987  1.0000
  C   C132      1.0  0.22515  0.07232  0.13562  1.0000
  N   N11       1.0  0.06520  0.89155  0.12017  1.0000
  C   C133      1.0  0.22714  0.05755  0.29338  1.0000
  H   H197      1.0  0.20173  0.03735  0.21977  1.0000
  C   C134      1.0  0.10577  0.89200  0.11572  1.0000
  C   C135      1.0  0.26148  0.06028  0.27619  1.0000
  H   H198      1.0  0.39060  0.02202  0.36084  1.0000
  H   H199      1.0  0.39700  0.98187  0.39025  1.0000
  H   H200      1.0  0.06423  0.83276  0.11441  1.0000
  H   H201      1.0  0.12028  0.86703  0.12838  1.0000
  H   H202      1.0  0.06855  0.86496  0.17391  1.0000
  H   H203      1.0  0.25941  0.00552  0.19505  1.0000
  C   C136      1.0  0.26015  0.02878  0.17474  1.0000
  H   H204      1.0  0.27601  0.05040  0.18788  1.0000
  C   C137      1.0  0.05583  0.89021  0.16015  1.0000
  C   C138      1.0  0.06038  0.94690  0.31493  1.0000
  H   H205      1.0  0.30699  0.95424  0.14893  1.0000
  H   H206      1.0  0.27621  0.01848  0.15012  1.0000
  H   H207      1.0  0.11669  0.91644  0.12926  1.0000
  C   C139      1.0  0.20184  0.01287  0.14911  1.0000
  H   H208      1.0  0.21421  0.00270  0.12256  1.0000
  H   H209      1.0  0.06558  0.91432  0.17521  1.0000
  H   H210      1.0  0.17258  0.02200  0.14321  1.0000
  H   H211      1.0  0.35632  0.98625  0.31547  1.0000
  H   H212      1.0  0.36286  0.94582  0.34491  1.0000
  S   S54       1.0  0.29941  0.88160  0.37862  1.0000
  H   H213      1.0  0.32466  0.84051  0.44296  1.0000
  S   S55       1.0  0.13025  0.96454  0.33351  1.0000
  Fe  Fe28      1.0  0.26083  0.90371  0.33359  1.0000
  S   S56       1.0  0.23844  0.96193  0.34224  1.0000
  C   C140      1.0  0.29221  0.83639  0.39332  1.0000
  H   H214      1.0  0.28848  0.02026  0.35568  1.0000
  H   H215      1.0  0.29721  0.96461  0.39642  1.0000
  C   C141      1.0  0.20301  0.05844  0.19725  1.0000
  C   C142      1.0  0.32504  0.97365  0.40360  1.0000
  H   H216      1.0  0.32748  0.04408  0.34074  1.0000
  H   H217      1.0  0.31289  0.04626  0.38857  1.0000
  C   C143      1.0  0.34481  0.97122  0.33954  1.0000
  H   H218      1.0  0.34244  0.94807  0.41026  1.0000
  H   H219      1.0  0.37598  0.02404  0.40856  1.0000
  H   H220      1.0  0.31759  0.96214  0.33070  1.0000
  C   C144      1.0  0.31647  0.02779  0.36421  1.0000
  N   N12       1.0  0.34100  0.99471  0.37276  1.0000
  H   H221      1.0  0.32195  0.99029  0.42929  1.0000
  C   C145      1.0  0.37780  0.00617  0.38361  1.0000
  N   N13       1.0  0.22251  0.04311  0.16419  1.0000
  H   H222      1.0  0.05591  0.95052  0.11685  1.0000
  H   H223      1.0  0.23993  0.06146  0.11036  1.0000
  H   H224      1.0  0.17420  0.06874  0.19070  1.0000
  H   H225      1.0  0.05260  0.85367  0.37793  1.0000
  H   H226      1.0  0.11388  0.89304  0.08586  1.0000
  H   H227      1.0  0.05926  0.85848  0.07164  1.0000
  N   N14       1.0  0.17028  0.84844  0.90781  1.0000
  H   H228      1.0  0.27715  0.88783  0.83898  1.0000
  Fe  Fe29      1.0  0.23237  0.96628  0.94677  1.0000
  S   S57       1.0  0.17580  0.99503  0.94459  1.0000
  S   S58       1.0  0.25483  0.94096  0.89394  1.0000
  Fe  Fe30      1.0  0.24169  0.98258  0.02800  1.0000
  S   S59       1.0  0.18609  0.01267  0.03307  1.0000
  Fe  Fe31      1.0  0.16653  0.96668  0.99891  1.0000
  S   S60       1.0  0.11546  0.93898  0.01623  1.0000
  Fe  Fe32      1.0  0.20034  0.03851  0.97849  1.0000
  S   S61       1.0  0.22098  0.93408  0.99849  1.0000
  S   S62       1.0  0.25806  0.01236  0.97613  1.0000
  C   C146      1.0  0.08912  0.92330  0.97960  1.0000
  C   C147      1.0  0.09620  0.93302  0.94266  1.0000
  H   H229      1.0  0.11895  0.94950  0.93600  1.0000
  C   C148      1.0  0.07291  0.92230  0.91419  1.0000
  H   H230      1.0  0.07767  0.93077  0.88576  1.0000
  H   H231      1.0  0.27876  0.89653  0.95777  1.0000
  H   H232      1.0  0.19685  0.89065  0.87734  1.0000
  C   C149      1.0  0.27574  0.89632  0.89811  1.0000
  C   C150      1.0  0.28340  0.88047  0.93296  1.0000
  C   C151      1.0  0.28309  0.87564  0.86603  1.0000
  C   C152      1.0  0.16926  0.87905  0.88040  1.0000
  H   H233      1.0  0.16092  0.86986  0.85245  1.0000
  S   S63       1.0  0.27843  0.97698  0.07787  1.0000
  H   H234      1.0  0.08210  0.02705  0.96589  1.0000
  C   C153      1.0  0.18121  0.86217  0.94440  1.0000
  H   H235      1.0  0.14945  0.90209  0.88882  1.0000
  H   H236      1.0  0.11228  0.85484  0.92081  1.0000
  C   C154      1.0  0.13332  0.83362  0.91075  1.0000
  H   H237      1.0  0.16117  0.88429  0.95465  1.0000
  H   H238      1.0  0.20871  0.87402  0.94289  1.0000
  H   H239      1.0  0.18297  0.83979  0.96573  1.0000
  C   C155      1.0  0.05942  0.90195  0.98783  1.0000
  H   H240      1.0  0.22560  0.82924  0.89327  1.0000
  C   C156      1.0  0.29703  0.83884  0.86884  1.0000
  H   H241      1.0  0.40961  0.83691  0.83899  1.0000
  C   C157      1.0  0.39332  0.84085  0.86511  1.0000
  H   H242      1.0  0.45317  0.89166  0.91153  1.0000
  C   C158      1.0  0.29687  0.84355  0.93580  1.0000
  H   H243      1.0  0.37136  0.86312  0.85989  1.0000
  C   C159      1.0  0.43493  0.88417  0.88838  1.0000
  N   N15       1.0  0.41706  0.84960  0.89660  1.0000
  H   H244      1.0  0.41090  0.86084  0.95495  1.0000
  H   H245      1.0  0.21643  0.93018  0.07848  1.0000
  C   C160      1.0  0.39410  0.85399  0.93050  1.0000
  H   H246      1.0  0.37177  0.87628  0.92696  1.0000
  H   H247      1.0  0.41400  0.90757  0.88386  1.0000
  H   H248      1.0  0.45226  0.88153  0.86276  1.0000
  H   H249      1.0  0.30215  0.83118  0.96288  1.0000
  H   H250      1.0  0.06114  0.00491  0.92779  1.0000
  H   H251      1.0  0.05352  0.89435  0.01616  1.0000
  H   H252      1.0  0.05435  0.92746  0.07313  1.0000
  H   H253      1.0  0.38031  0.82818  0.93731  1.0000
  H   H254      1.0  0.06102  0.05428  0.92881  1.0000
  C   C161      1.0  0.05826  0.02922  0.94636  1.0000
  H   H255      1.0  0.74735  0.30146  0.29006  1.0000
  H   H256      1.0  0.79596  0.16264  0.12504  1.0000
  H   H257      1.0  0.81260  0.12827  0.15812  1.0000
  H   H258      1.0  0.84275  0.20575  0.14605  1.0000
  H   H259      1.0  0.85632  0.17164  0.18038  1.0000
  H   H260      1.0  0.95933  0.31581  0.15953  1.0000
  C   C162      1.0  0.81690  0.13930  0.12952  1.0000
  H   H261      1.0  0.80919  0.31797  0.30943  1.0000
  H   H262      1.0  0.02586  0.26118  0.15194  1.0000
  C   C163      1.0  0.86137  0.18068  0.15133  1.0000
  H   H263      1.0  0.91068  0.12728  0.12771  1.0000
  H   H264      1.0  0.89036  0.18889  0.14983  1.0000
  H   H265      1.0  0.98027  0.25523  0.13485  1.0000
  S   S64       1.0  0.90675  0.24357  0.32064  1.0000
  C   C164      1.0  0.99981  0.23591  0.25971  1.0000
  Fe  Fe33      1.0  0.87630  0.24566  0.26643  1.0000
  S   S65       1.0  0.90706  0.19594  0.24271  1.0000
  S   S66       1.0  0.86380  0.29923  0.23630  1.0000
  Fe  Fe34      1.0  0.86233  0.16442  0.26827  1.0000
  S   S67       1.0  0.84099  0.11864  0.23468  1.0000
  Fe  Fe35      1.0  0.93357  0.19082  0.29858  1.0000
  S   S68       1.0  0.82876  0.21460  0.28711  1.0000
  H   H266      1.0  0.91053  0.24674  0.11852  1.0000
  H   H267      1.0  0.97200  0.24391  0.26873  1.0000
  C   C165      1.0  0.89304  0.26794  0.13165  1.0000
  C   C166      1.0  0.89102  0.26963  0.17059  1.0000
  C   C167      1.0  0.86805  0.29694  0.18777  1.0000
  H   H268      1.0  0.90760  0.25021  0.18727  1.0000
  N   N16       1.0  0.85489  0.15116  0.12467  1.0000
  C   C168      1.0  0.87218  0.29366  0.10992  1.0000
  H   H269      1.0  0.00682  0.28738  0.23134  1.0000
  C   C169      1.0  0.01953  0.26054  0.23839  1.0000
  C   C170      1.0  0.01659  0.20172  0.27038  1.0000
  S   S69       1.0  0.99364  0.17249  0.30023  1.0000
  S   S70       1.0  0.89167  0.15494  0.32252  1.0000
  H   H270      1.0  0.83441  0.10686  0.31349  1.0000
  C   C171      1.0  0.88169  0.11943  0.13146  1.0000
  H   H271      1.0  0.87762  0.09664  0.11173  1.0000
  C   C172      1.0  0.00720  0.26665  0.12779  1.0000
  H   H272      1.0  0.87895  0.10824  0.16021  1.0000
  H   H273      1.0  0.01947  0.25080  0.10398  1.0000
  C   C173      1.0  0.85965  0.16525  0.08642  1.0000
  N   N17       1.0  0.00266  0.30648  0.11898  1.0000
  H   H274      1.0  0.95019  0.30215  0.09219  1.0000
  H   H275      1.0  0.95344  0.10695  0.28235  1.0000
  H   H276      1.0  0.95433  0.09018  0.34901  1.0000
  C   C174      1.0  0.97791  0.31249  0.08666  1.0000
  H   H277      1.0  0.81104  0.11710  0.10973  1.0000
  C   C175      1.0  0.84302  0.08098  0.30063  1.0000
  C   C176      1.0  0.75325  0.30523  0.38405  1.0000
  C   C177      1.0  0.84483  0.07847  0.26198  1.0000
  H   H278      1.0  0.01334  0.09361  0.31404  1.0000
  C   C178      1.0  0.03916  0.32038  0.11011  1.0000
  C   C179      1.0  0.80183  0.31064  0.33854  1.0000
  H   H279      1.0  0.00510  0.32319  0.17589  1.0000
  H   H280      1.0  0.71108  0.29752  0.32393  1.0000
  H   H281      1.0  0.74982  0.26398  0.32298  1.0000
  C   C180      1.0  0.74151  0.29387  0.31944  1.0000
  H   H282      1.0  0.60038  0.31959  0.53106  1.0000
  C   C181      1.0  0.60230  0.30926  0.50204  1.0000
  H   H283      1.0  0.59884  0.31776  0.42809  1.0000
  H   H284      1.0  0.72322  0.30984  0.39049  1.0000
  H   H285      1.0  0.57560  0.27741  0.44117  1.0000
  C   C182      1.0  0.57351  0.30806  0.44169  1.0000
  H   H286      1.0  0.60567  0.27865  0.50361  1.0000
  H   H287      1.0  0.74210  0.30432  0.55653  1.0000
  N   N18       1.0  0.56947  0.32197  0.48001  1.0000
  C   C183      1.0  0.80489  0.28893  0.46986  1.0000
  H   H288      1.0  0.76120  0.27548  0.38903  1.0000
  H   H289      1.0  0.62815  0.31918  0.48974  1.0000
  N   N19       1.0  0.76164  0.31641  0.34553  1.0000
  C   C184      1.0  0.82679  0.31760  0.45951  1.0000
  H   H290      1.0  0.04868  0.21092  0.39273  1.0000
  C   C185      1.0  0.80784  0.25558  0.45061  1.0000
  C   C186      1.0  0.83236  0.25092  0.42065  1.0000
  S   S71       1.0  0.83111  0.21093  0.39393  1.0000
  H   H291      1.0  0.81165  0.28129  0.34322  1.0000
  H   H292      1.0  0.78552  0.29246  0.49264  1.0000
  H   H293      1.0  0.79030  0.23370  0.45828  1.0000
  H   H294      1.0  0.87474  0.27545  0.38850  1.0000
  C   C187      1.0  0.85278  0.31234  0.43085  1.0000
  Fe  Fe36      1.0  0.86177  0.20810  0.33960  1.0000
  C   C188      1.0  0.85542  0.27903  0.41126  1.0000
  H   H295      1.0  0.76850  0.32126  0.40447  1.0000
  H   H296      1.0  0.05222  0.30577  0.08590  1.0000
  C   C189      1.0  0.95255  0.07704  0.27634  1.0000
  C   C190      1.0  0.84987  0.32132  0.12714  1.0000
  C   C191      1.0  0.84797  0.32308  0.16592  1.0000
  H   H297      1.0  0.05082  0.23857  0.32997  1.0000
  C   C192      1.0  0.70829  0.31319  0.60539  1.0000
  C   C193      1.0  0.70802  0.31455  0.64418  1.0000
  H   H298      1.0  0.68218  0.31901  0.65906  1.0000
  C   C194      1.0  0.74155  0.31265  0.66369  1.0000
  C   C195      1.0  0.74176  0.30627  0.58646  1.0000
  C   C196      1.0  0.77518  0.30815  0.64447  1.0000
  H   H299      1.0  0.74141  0.31533  0.69357  1.0000
  C   C197      1.0  0.77510  0.30279  0.60609  1.0000
  H   H300      1.0  0.00062  0.26774  0.82259  1.0000
  H   H301      1.0  0.87056  0.31514  0.79867  1.0000
  H   H302      1.0  0.80085  0.29763  0.59126  1.0000
  H   H303      1.0  0.88896  0.25319  0.82438  1.0000
  H   H304      1.0  0.95910  0.29545  0.83202  1.0000
  C   C198      1.0  0.98933  0.29654  0.82727  1.0000
  S   S72       1.0  0.81702  0.31435  0.66725  1.0000
  H   H305      1.0  0.99309  0.31257  0.80120  1.0000
  H   H306      1.0  0.87575  0.08386  0.92531  1.0000
  S   S73       1.0  0.04867  0.25149  0.02649  1.0000
  H   H307      1.0  0.71301  0.30638  0.90801  1.0000
  H   H308      1.0  0.81447  0.31728  0.90708  1.0000
  H   H309      1.0  0.97197  0.29038  0.90016  1.0000
  N   N20       1.0  0.00738  0.31327  0.85911  1.0000
  S   S74       1.0  0.89134  0.20705  0.99774  1.0000
  H   H310      1.0  0.85548  0.14357  0.06546  1.0000
  S   S75       1.0  0.95008  0.27250  0.98941  1.0000
  C   C199      1.0  0.89689  0.30357  0.90263  1.0000
  H   H311      1.0  0.01212  0.26172  0.88911  1.0000
  Fe  Fe37      1.0  0.93903  0.17179  0.02074  1.0000
  S   S76       1.0  0.95666  0.21465  0.06022  1.0000
  Fe  Fe38      1.0  0.93254  0.22519  0.95588  1.0000
  H   H312      1.0  0.90426  0.30059  0.93151  1.0000
  H   H313      1.0  0.75823  0.27453  0.86527  1.0000
  H   H314      1.0  0.01609  0.30188  0.91731  1.0000
  C   C200      1.0  0.87730  0.31199  0.82779  1.0000
  H   H315      1.0  0.90225  0.12671  0.96971  1.0000
  C   C201      1.0  0.91463  0.08469  0.01128  1.0000
  Fe  Fe39      1.0  0.99267  0.23191  0.01335  1.0000
  H   H316      1.0  0.98945  0.29800  0.06171  1.0000
  C   C202      1.0  0.90109  0.09787  0.97700  1.0000
  S   S77       1.0  0.93431  0.11426  0.04287  1.0000
  H   H317      1.0  0.04337  0.22535  0.95159  1.0000
  H   H318      1.0  0.01921  0.08968  0.97240  1.0000
  S   S78       1.0  0.91745  0.22977  0.89538  1.0000
  C   C203      1.0  0.00172  0.29090  0.89292  1.0000
  C   C204      1.0  0.88781  0.27694  0.84235  1.0000
  Fe  Fe40      1.0  0.91258  0.25132  0.03314  1.0000
  S   S79       1.0  0.87347  0.29243  0.06124  1.0000
  S   S80       1.0  0.97893  0.18582  0.97583  1.0000
  C   C205      1.0  0.89853  0.27278  0.87956  1.0000
  C   C206      1.0  0.76536  0.30212  0.85493  1.0000
  C   C207      1.0  0.04741  0.31448  0.85159  1.0000
  H   H319      1.0  0.79450  0.29942  0.84479  1.0000
  H   H320      1.0  0.77831  0.29266  0.92796  1.0000
  H   H321      1.0  0.74732  0.30924  0.83056  1.0000
  C   C208      1.0  0.78491  0.31974  0.91582  1.0000
  H   H322      1.0  0.88803  0.17445  0.08205  1.0000
  H   H323      1.0  0.83991  0.18924  0.08020  1.0000
  C   C209      1.0  0.74993  0.35581  0.34018  1.0000
  H   H324      1.0  0.75593  0.36535  0.31145  1.0000
  H   H325      1.0  0.71968  0.36108  0.34531  1.0000
  H   H326      1.0  0.76449  0.37344  0.35975  1.0000
  H   H327      1.0  0.98177  0.35637  0.14550  1.0000
  H   H328      1.0  0.83044  0.34446  0.17901  1.0000
  H   H329      1.0  0.83387  0.34143  0.11045  1.0000
  H   H330      1.0  0.85619  0.42522  0.53954  1.0000
  H   H331      1.0  0.83293  0.45774  0.57066  1.0000
  H   H332      1.0  0.03687  0.35034  0.10332  1.0000
  H   H333      1.0  0.56866  0.51757  0.48595  1.0000
  C   C210      1.0  0.58333  0.54281  0.49186  1.0000
  H   H334      1.0  0.81793  0.32765  0.35733  1.0000
  H   H335      1.0  0.70997  0.57058  0.52602  1.0000
  H   H336      1.0  0.58218  0.54726  0.52238  1.0000
  H   H337      1.0  0.55509  0.54393  0.42257  1.0000
  S   S81       1.0  0.71432  0.33330  0.48041  1.0000
  H   H338      1.0  0.61289  0.53703  0.48430  1.0000
  H   H339      1.0  0.59940  0.56349  0.42199  1.0000
  H   H340      1.0  0.59104  0.37391  0.46632  1.0000
  Fe  Fe41      1.0  0.68928  0.35779  0.53216  1.0000
  H   H341      1.0  0.57491  0.47843  0.43273  1.0000
  Fe  Fe42      1.0  0.75837  0.37309  0.48851  1.0000
  S   S82       1.0  0.65266  0.36872  0.40011  1.0000
  Fe  Fe43      1.0  0.68339  0.38083  0.45200  1.0000
  S   S83       1.0  0.73605  0.39330  0.54299  1.0000
  C   C211      1.0  0.61228  0.39789  0.39758  1.0000
  S   S84       1.0  0.70117  0.49324  0.53133  1.0000
  C   C212      1.0  0.69444  0.52437  0.49429  1.0000
  C   C213      1.0  0.70049  0.56148  0.49952  1.0000
  C   C214      1.0  0.67493  0.53824  0.43103  1.0000
  C   C215      1.0  0.68222  0.51258  0.45984  1.0000
  H   H342      1.0  0.66445  0.52928  0.40474  1.0000
  H   H343      1.0  0.67729  0.48394  0.45572  1.0000
  Fe  Fe44      1.0  0.70368  0.43577  0.50942  1.0000
  C   C216      1.0  0.61006  0.43140  0.41643  1.0000
  H   H344      1.0  0.63419  0.44072  0.43014  1.0000
  S   S85       1.0  0.72971  0.41863  0.45514  1.0000
  S   S86       1.0  0.65440  0.40222  0.50348  1.0000
  C   C217      1.0  0.57651  0.45281  0.41782  1.0000
  C   C218      1.0  0.58108  0.38619  0.37945  1.0000
  H   H345      1.0  0.58272  0.36039  0.36464  1.0000
  C   C219      1.0  0.84004  0.36427  0.57687  1.0000
  C   C220      1.0  0.57001  0.56840  0.43080  1.0000
  H   H346      1.0  0.81324  0.35870  0.56372  1.0000
  H   H347      1.0  0.56324  0.37422  0.50751  1.0000
  C   C221      1.0  0.56618  0.36267  0.47909  1.0000
  C   C222      1.0  0.68044  0.57555  0.43652  1.0000
  H   H348      1.0  0.80742  0.42512  0.54590  1.0000
  C   C223      1.0  0.98646  0.32634  0.15139  1.0000
  S   S87       1.0  0.66814  0.32586  0.58013  1.0000
  H   H349      1.0  0.86175  0.35954  0.55518  1.0000
  H   H350      1.0  0.86989  0.33445  0.42291  1.0000
  S   S88       1.0  0.81930  0.36099  0.47997  1.0000
  C   C224      1.0  0.83378  0.42886  0.56070  1.0000
  N   N21       1.0  0.56698  0.57515  0.47116  1.0000
  C   C225      1.0  0.62195  0.38977  0.79337  1.0000
  H   H351      1.0  0.60573  0.37168  0.68796  1.0000
  Fe  Fe45      1.0  0.74753  0.38061  0.76870  1.0000
  C   C226      1.0  0.65869  0.39872  0.78899  1.0000
  C   C227      1.0  0.60921  0.38136  0.65878  1.0000
  S   S89       1.0  0.75350  0.39265  0.70818  1.0000
  C   C228      1.0  0.66589  0.40893  0.67428  1.0000
  C   C229      1.0  0.59309  0.41703  0.78926  1.0000
  N   N22       1.0  0.62907  0.41562  0.65716  1.0000
  C   C230      1.0  0.63339  0.42712  0.61796  1.0000
  C   C231      1.0  0.66660  0.43512  0.78082  1.0000
  C   C232      1.0  0.60093  0.45349  0.78157  1.0000
  H   H352      1.0  0.64388  0.49074  0.77132  1.0000
  C   C233      1.0  0.60783  0.44497  0.67769  1.0000
  H   H353      1.0  0.60601  0.43245  0.60431  1.0000
  C   C234      1.0  0.63772  0.46260  0.77759  1.0000
  H   H354      1.0  0.69493  0.44222  0.77733  1.0000
  H   H355      1.0  0.61574  0.36164  0.79958  1.0000
  S   S90       1.0  0.69427  0.36398  0.79344  1.0000
  H   H356      1.0  0.56473  0.40988  0.79249  1.0000
  S   S91       1.0  0.56473  0.48698  0.77389  1.0000
  H   H357      1.0  0.68124  0.43449  0.67473  1.0000
  S   S92       1.0  0.77845  0.42860  0.78668  1.0000
  H   H358      1.0  0.62437  0.35871  0.64329  1.0000
  H   H359      1.0  0.62235  0.47102  0.67790  1.0000
  H   H360      1.0  0.58116  0.38551  0.64634  1.0000
  H   H361      1.0  0.60351  0.43671  0.70711  1.0000
  H   H362      1.0  0.58005  0.45126  0.66530  1.0000
  H   H363      1.0  0.66369  0.39895  0.70354  1.0000
  C   C235      1.0  0.77540  0.52637  0.72959  1.0000
  S   S93       1.0  0.79639  0.33988  0.77112  1.0000
  H   H364      1.0  0.64853  0.45273  0.61556  1.0000
  H   H365      1.0  0.64912  0.40536  0.60171  1.0000
  H   H366      1.0  0.68314  0.38782  0.65875  1.0000
  H   H367      1.0  0.73175  0.55807  0.70129  1.0000
  C   C236      1.0  0.75032  0.55691  0.72469  1.0000
  H   H368      1.0  0.73668  0.54383  0.63491  1.0000
  C   C237      1.0  0.73797  0.55804  0.60742  1.0000
  H   H369      1.0  0.70951  0.56921  0.60038  1.0000
  H   H370      1.0  0.74598  0.53662  0.58645  1.0000
  S   S94       1.0  0.77874  0.49151  0.69615  1.0000
  Fe  Fe46      1.0  0.78901  0.43723  0.72588  1.0000
  C   C238      1.0  0.79562  0.55215  0.78741  1.0000
  H   H371      1.0  0.80099  0.55771  0.64598  1.0000
  C   C239      1.0  0.80140  0.57138  0.61809  1.0000
  C   C240      1.0  0.80890  0.40755  0.61890  1.0000
  C   C241      1.0  0.79780  0.52382  0.76116  1.0000
  H   H372      1.0  0.81713  0.50021  0.76519  1.0000
  Fe  Fe47      1.0  0.80522  0.35586  0.71195  1.0000
  Fe  Fe48      1.0  0.82841  0.38881  0.78402  1.0000
  S   S95       1.0  0.84196  0.40164  0.72445  1.0000
  H   H373      1.0  0.87975  0.38744  0.63359  1.0000
  H   H374      1.0  0.87528  0.43566  0.62198  1.0000
  C   C242      1.0  0.87487  0.40750  0.61021  1.0000
  H   H375      1.0  0.81277  0.38818  0.64283  1.0000
  H   H376      1.0  0.78173  0.40243  0.60651  1.0000
  H   H377      1.0  0.81305  0.55012  0.81175  1.0000
  H   H378      1.0  0.84551  0.34326  0.59918  1.0000
  H   H379      1.0  0.80705  0.43600  0.63023  1.0000
  H   H380      1.0  0.75201  0.37555  0.84560  1.0000
  C   C243      1.0  0.77032  0.36640  0.86909  1.0000
  H   H381      1.0  0.79921  0.36518  0.85856  1.0000
  H   H382      1.0  0.97365  0.34225  0.07935  1.0000
  H   H383      1.0  0.78234  0.34055  0.93830  1.0000
  H   H384      1.0  0.76780  0.38828  0.89049  1.0000
  H   H385      1.0  0.89853  0.40350  0.59055  1.0000
  H   H386      1.0  0.81161  0.55019  0.59779  1.0000
  H   H387      1.0  0.96073  0.35122  0.87010  1.0000
  H   H388      1.0  0.99480  0.36882  0.83975  1.0000
  H   H389      1.0  0.00378  0.36443  0.88875  1.0000
  C   C244      1.0  0.88698  0.33868  0.88795  1.0000
  H   H390      1.0  0.88688  0.36259  0.90563  1.0000
  C   C245      1.0  0.87766  0.34298  0.85041  1.0000
  N   N23       1.0  0.83936  0.40209  0.59165  1.0000
  H   H391      1.0  0.71678  0.35433  0.91839  1.0000
  S   S96       1.0  0.86790  0.38736  0.83209  1.0000
  C   C246      1.0  0.99101  0.35112  0.86469  1.0000
  H   H392      1.0  0.70256  0.34102  0.87305  1.0000
  C   C247      1.0  0.72152  0.33309  0.89655  1.0000
  N   N24       1.0  0.76052  0.33032  0.88414  1.0000
  C   C248      1.0  0.76814  0.77386  0.27256  1.0000
  H   H393      1.0  0.77499  0.74505  0.26355  1.0000
  H   H394      1.0  0.73771  0.77965  0.27008  1.0000
  C   C249      1.0  0.78046  0.79708  0.21098  1.0000
  H   H395      1.0  0.78878  0.76900  0.20069  1.0000
  H   H396      1.0  0.75043  0.80265  0.20546  1.0000
  N   N25       1.0  0.78882  0.80054  0.25088  1.0000
  H   H397      1.0  0.77482  0.77501  0.30256  1.0000
  H   H398      1.0  0.83817  0.76434  0.24877  1.0000
  C   C250      1.0  0.82891  0.79288  0.25693  1.0000
  H   H399      1.0  0.83636  0.79607  0.28663  1.0000
  C   C251      1.0  0.68209  0.67914  0.58011  1.0000
  H   H400      1.0  0.84533  0.81210  0.24045  1.0000
  H   H401      1.0  0.79554  0.81703  0.19390  1.0000
  H   H402      1.0  0.67509  0.76714  0.55906  1.0000
  C   C252      1.0  0.79630  0.75587  0.37885  1.0000
  H   H403      1.0  0.58286  0.81296  0.53635  1.0000
  H   H404      1.0  0.57567  0.63289  0.46513  1.0000
  H   H405      1.0  0.61672  0.60412  0.47286  1.0000
  C   C253      1.0  0.69430  0.58690  0.47044  1.0000
  H   H406      1.0  0.67198  0.66782  0.55489  1.0000
  S   S97       1.0  0.74157  0.69928  0.53944  1.0000
  Fe  Fe49      1.0  0.67409  0.66513  0.42404  1.0000
  S   S98       1.0  0.65300  0.67839  0.48115  1.0000
  S   S99       1.0  0.64819  0.71679  0.39805  1.0000
  Fe  Fe50      1.0  0.70669  0.70473  0.48792  1.0000
  S   S100      1.0  0.72968  0.68763  0.43234  1.0000
  Fe  Fe51      1.0  0.63216  0.73204  0.45618  1.0000
  Fe  Fe52      1.0  0.70187  0.74096  0.41194  1.0000
  S   S101      1.0  0.68374  0.76020  0.46847  1.0000
  S   S102      1.0  0.72397  0.78316  0.37336  1.0000
  S   S103      1.0  0.57649  0.75540  0.47457  1.0000
  C   C254      1.0  0.77183  0.78712  0.37558  1.0000
  S   S104      1.0  0.66621  0.60838  0.40269  1.0000
  H   H407      1.0  0.69999  0.61532  0.47444  1.0000
  H   H408      1.0  0.57402  0.69955  0.41811  1.0000
  H   H409      1.0  0.58535  0.61415  0.51062  1.0000
  H   H410      1.0  0.57573  0.75037  0.55843  1.0000
  C   C255      1.0  0.58698  0.60800  0.48045  1.0000
  H   H411      1.0  0.78571  0.72910  0.38374  1.0000
  H   H412      1.0  0.78529  0.62738  0.56979  1.0000
  C   C256      1.0  0.76582  0.60487  0.57059  1.0000
  H   H413      1.0  0.62741  0.79897  0.51813  1.0000
  H   H414      1.0  0.62090  0.73480  0.54259  1.0000
  H   H415      1.0  0.73831  0.61762  0.56224  1.0000
  C   C257      1.0  0.61278  0.80953  0.54349  1.0000
  C   C258      1.0  0.78566  0.82158  0.36878  1.0000
  H   H416      1.0  0.77474  0.58454  0.54892  1.0000
  C   C259      1.0  0.82366  0.82472  0.36390  1.0000
  C   C260      1.0  0.99950  0.80004  0.32610  1.0000
  H   H417      1.0  0.04179  0.75299  0.36841  1.0000
  S   S105      1.0  0.89429  0.79638  0.35120  1.0000
  H   H418      1.0  0.01351  0.78321  0.39747  1.0000
  H   H419      1.0  0.00182  0.77157  0.31493  1.0000
  H   H420      1.0  0.85312  0.73457  0.37408  1.0000
  H   H421      1.0  0.97409  0.80255  0.34367  1.0000
  C   C261      1.0  0.03796  0.78183  0.37853  1.0000
  C   C262      1.0  0.84794  0.79332  0.36471  1.0000
  C   C263      1.0  0.83440  0.75897  0.37323  1.0000
  N   N26       1.0  0.03274  0.80837  0.34735  1.0000
  C   C264      1.0  0.60546  0.74779  0.56637  1.0000
  N   N27       1.0  0.61933  0.78400  0.57532  1.0000
  H   H422      1.0  0.55844  0.59254  0.41441  1.0000
  C   C265      1.0  0.71590  0.69555  0.58031  1.0000
  H   H423      1.0  0.99501  0.81924  0.30206  1.0000
  Fe  Fe53      1.0  0.67887  0.69950  0.73859  1.0000
  S   S106      1.0  0.66924  0.66136  0.78635  1.0000
  S   S107      1.0  0.74018  0.69931  0.74740  1.0000
  C   C266      1.0  0.67505  0.69012  0.64612  1.0000
  S   S108      1.0  0.64850  0.68714  0.68643  1.0000
  H   H424      1.0  0.72883  0.60891  0.74688  1.0000
  C   C267      1.0  0.66173  0.67634  0.61300  1.0000
  H   H425      1.0  0.75583  0.72141  0.61381  1.0000
  C   C268      1.0  0.78223  0.80758  0.82469  1.0000
  H   H426      1.0  0.63565  0.66340  0.61283  1.0000
  C   C269      1.0  0.70906  0.70620  0.64649  1.0000
  C   C270      1.0  0.72961  0.70870  0.61359  1.0000
  H   H427      1.0  0.71925  0.71732  0.67189  1.0000
  Fe  Fe54      1.0  0.72648  0.74792  0.78426  1.0000
  H   H428      1.0  0.59841  0.77159  0.80365  1.0000
  S   S109      1.0  0.66599  0.75148  0.77029  1.0000
  H   H429      1.0  0.57595  0.58037  0.77649  1.0000
  C   C271      1.0  0.77100  0.58303  0.78218  1.0000
  S   S110      1.0  0.76292  0.79612  0.78197  1.0000
  Fe  Fe55      1.0  0.72933  0.66552  0.79805  1.0000
  H   H430      1.0  0.60821  0.72845  0.59044  1.0000
  C   C272      1.0  0.74828  0.58538  0.75079  1.0000
  H   H431      1.0  0.66516  0.76128  0.60753  1.0000
  Fe  Fe56      1.0  0.66056  0.71325  0.81901  1.0000
  H   H432      1.0  0.60417  0.78035  0.63299  1.0000
  H   H433      1.0  0.67109  0.80643  0.58897  1.0000
  C   C273      1.0  0.75210  0.61569  0.63527  1.0000
  H   H434      1.0  0.81862  0.68681  0.90677  1.0000
  H   H435      1.0  0.57355  0.65096  0.85083  1.0000
  C   C274      1.0  0.80757  0.69423  0.87873  1.0000
  C   C275      1.0  0.55725  0.65346  0.77782  1.0000
  H   H436      1.0  0.75331  0.60461  0.66408  1.0000
  H   H437      1.0  0.78859  0.67272  0.87076  1.0000
  H   H438      1.0  0.58536  0.64698  0.76604  1.0000
  H   H439      1.0  0.72312  0.62629  0.63016  1.0000
  H   H440      1.0  0.56927  0.80247  0.60360  1.0000
  C   C276      1.0  0.59964  0.79903  0.60844  1.0000
  N   N28       1.0  0.76432  0.58747  0.60783  1.0000
  H   H441      1.0  0.76970  0.63969  0.63430  1.0000
  S   S111      1.0  0.76909  0.61853  0.81495  1.0000
  H   H442      1.0  0.60277  0.61789  0.82622  1.0000
  C   C277      1.0  0.57268  0.76340  0.81513  1.0000
  H   H443      1.0  0.55745  0.68126  0.79057  1.0000
  H   H444      1.0  0.84638  0.75337  0.86456  1.0000
  C   C278      1.0  0.57395  0.62408  0.83628  1.0000
  H   H445      1.0  0.87175  0.65305  0.87586  1.0000
  H   H446      1.0  0.84141  0.63911  0.84008  1.0000
  H   H447      1.0  0.87411  0.71994  0.89071  1.0000
  C   C279      1.0  0.86195  0.72607  0.86282  1.0000
  H   H448      1.0  0.80371  0.68559  0.80441  1.0000
  H   H449      1.0  0.84337  0.71063  0.79312  1.0000
  C   C280      1.0  0.82159  0.70711  0.81446  1.0000
  H   H450      1.0  0.80416  0.73334  0.81554  1.0000
  H   H451      1.0  0.88505  0.72908  0.84280  1.0000
  H   H452      1.0  0.88190  0.66253  0.82785  1.0000
  N   N29       1.0  0.83761  0.69721  0.85118  1.0000
  C   C281      1.0  0.85923  0.66143  0.84866  1.0000
  H   H453      1.0  0.82187  0.59290  0.61914  1.0000
  H   H454      1.0  0.79064  0.72074  0.88130  1.0000
  C   C282      1.0  0.57271  0.73746  0.84405  1.0000
  S   S112      1.0  0.61408  0.71555  0.86054  1.0000
  S   S113      1.0  0.72002  0.71376  0.83578  1.0000
  C   C283      1.0  0.78340  0.80334  0.89191  1.0000
  H   H455      1.0  0.74023  0.78383  0.85788  1.0000
  H   H456      1.0  0.77104  0.79445  0.91763  1.0000
  C   C284      1.0  0.76613  0.79691  0.85806  1.0000
  C   C285      1.0  0.81661  0.82095  0.89263  1.0000
  H   H457      1.0  0.56774  0.60268  0.85728  1.0000
  C   C286      1.0  0.65940  0.77956  0.58304  1.0000
  H   H458      1.0  0.79271  0.85925  0.24700  1.0000
  H   H459      1.0  0.78416  0.84211  0.29295  1.0000
  H   H460      1.0  0.74767  0.84504  0.25943  1.0000
  C   C287      1.0  0.77783  0.83839  0.26308  1.0000
  H   H461      1.0  0.92289  0.07086  0.27535  1.0000
  H   H462      1.0  0.02136  0.85805  0.10348  1.0000
  S   S114      1.0  0.94163  0.88783  0.32712  1.0000
  H   H463      1.0  0.02557  0.06048  0.27878  1.0000
  S   S115      1.0  0.92005  0.92576  0.24566  1.0000
  Fe  Fe57      1.0  0.88155  0.88027  0.23936  1.0000
  Fe  Fe58      1.0  0.95939  0.88108  0.26777  1.0000
  S   S116      1.0  0.01757  0.87300  0.24687  1.0000
  S   S117      1.0  0.85593  0.88691  0.29562  1.0000
  C   C288      1.0  0.86337  0.01336  0.26778  1.0000
  H   H464      1.0  0.87100  0.98734  0.25494  1.0000
  C   C289      1.0  0.87848  0.87668  0.15048  1.0000
  C   C290      1.0  0.86526  0.87770  0.11401  1.0000
  C   C291      1.0  0.94026  0.88544  0.12746  1.0000
  C   C292      1.0  0.03509  0.92689  0.29529  1.0000
  C   C293      1.0  0.85374  0.04435  0.24548  1.0000
  H   H465      1.0  0.85468  0.04216  0.21556  1.0000
  C   C294      1.0  0.92713  0.88725  0.09105  1.0000
  H   H466      1.0  0.96901  0.88867  0.13300  1.0000
  C   C295      1.0  0.91613  0.87976  0.15702  1.0000
  H   H467      1.0  0.83620  0.87499  0.10877  1.0000
  H   H468      1.0  0.92684  0.87786  0.18486  1.0000
  S   S118      1.0  0.84826  0.87252  0.18818  1.0000
  Fe  Fe59      1.0  0.89815  0.92841  0.30392  1.0000
  C   C296      1.0  0.86430  0.01660  0.30646  1.0000
  H   H469      1.0  0.02784  0.04693  0.32685  1.0000
  C   C297      1.0  0.04723  0.92523  0.10312  1.0000
  Fe  Fe60      1.0  0.90104  0.84584  0.31440  1.0000
  H   H470      1.0  0.00585  0.93067  0.30122  1.0000
  S   S119      1.0  0.92275  0.83526  0.25703  1.0000
  N   N30       1.0  0.97277  0.05412  0.30471  1.0000
  C   C298      1.0  0.01161  0.06420  0.30618  1.0000
  C   C299      1.0  0.04791  0.90113  0.26887  1.0000
  S   S120      1.0  0.88361  0.98070  0.33453  1.0000
  C   C300      1.0  0.97175  0.01477  0.29501  1.0000
  C   C301      1.0  0.85291  0.05014  0.32285  1.0000
  H   H471      1.0  0.98661  0.00839  0.26854  1.0000
  H   H472      1.0  0.62262  0.83726  0.54924  1.0000
  H   H473      1.0  0.01652  0.92534  0.10500  1.0000
  H   H474      1.0  0.02546  0.89007  0.16474  1.0000
  C   C302      1.0  0.95513  0.06052  0.34136  1.0000
  H   H475      1.0  0.94285  0.00681  0.29154  1.0000
  H   H476      1.0  0.98450  0.99657  0.31710  1.0000
  H   H477      1.0  0.92615  0.05214  0.34156  1.0000
  H   H478      1.0  0.96439  0.07232  0.24814  1.0000
  C   C303      1.0  0.02791  0.84617  0.36208  1.0000
  H   H479      1.0  0.97002  0.04428  0.36366  1.0000
  H   H480      1.0  0.05074  0.96608  0.33616  1.0000
  H   H481      1.0  0.02367  0.86674  0.33922  1.0000
  H   H482      1.0  0.76685  0.84586  0.36666  1.0000
  H   H483      1.0  0.00340  0.84941  0.38081  1.0000
  H   H484      1.0  0.85275  0.05260  0.35278  1.0000
  H   H485      1.0  0.83409  0.85150  0.35937  1.0000
  C   C304      1.0  0.05201  0.85873  0.10168  1.0000
  C   C305      1.0  0.88968  0.88275  0.08425  1.0000
  H   H486      1.0  0.60934  0.82638  0.61605  1.0000
  H   H487      1.0  0.82762  0.83434  0.79957  1.0000
  H   H488      1.0  0.74760  0.92650  0.83773  1.0000
  H   H489      1.0  0.77031  0.88817  0.86196  1.0000
  H   H490      1.0  0.73401  0.91538  0.88444  1.0000
  C   C306      1.0  0.75813  0.91687  0.86538  1.0000
  N   N31       1.0  0.78562  0.94131  0.88002  1.0000
  H   H491      1.0  0.75758  0.99076  0.85821  1.0000
  C   C307      1.0  0.76836  0.97890  0.88494  1.0000
  H   H492      1.0  0.74496  0.97905  0.90506  1.0000
  H   H493      1.0  0.77644  0.92426  0.93660  1.0000
  H   H494      1.0  0.78874  0.99788  0.89581  1.0000
  C   C308      1.0  0.79932  0.92686  0.91624  1.0000
  C   C309      1.0  0.81688  0.94267  0.85366  1.0000
  H   H495      1.0  0.81374  0.89911  0.91348  1.0000
  H   H496      1.0  0.81923  0.94528  0.92860  1.0000
  S   S121      1.0  0.87174  0.91078  0.98344  1.0000
  H   H497      1.0  0.80769  0.95396  0.82615  1.0000
  C   C310      1.0  0.83225  0.83278  0.85936  1.0000
  H   H498      1.0  0.99281  0.06555  0.00579  1.0000
  H   H499      1.0  0.99341  0.00677  0.92161  1.0000
  H   H500      1.0  0.04219  0.06455  0.00986  1.0000
  C   C311      1.0  0.04263  0.90174  0.92275  1.0000
  H   H501      1.0  0.02291  0.97206  0.97368  1.0000
  H   H502      1.0  0.96456  0.03279  0.95366  1.0000
  C   C312      1.0  0.01911  0.06408  0.98963  1.0000
  C   C313      1.0  0.91332  0.04723  0.02027  1.0000
  H   H503      1.0  0.92374  0.03688  0.04676  1.0000
  Fe  Fe61      1.0  0.95659  0.89384  0.91887  1.0000
  H   H504      1.0  0.83034  0.91471  0.84895  1.0000
  S   S122      1.0  0.89971  0.90575  0.89554  1.0000
  S   S123      1.0  0.01075  0.89175  0.88855  1.0000
  Fe  Fe62      1.0  0.89340  0.94833  0.94014  1.0000
  H   H505      1.0  0.87941  0.88334  0.05623  1.0000
  H   H506      1.0  0.99431  0.99780  0.00621  1.0000
  H   H507      1.0  0.85820  0.84586  0.85969  1.0000
  S   S124      1.0  0.95813  0.89557  0.05484  1.0000
  S   S125      1.0  0.95165  0.94002  0.95935  1.0000
  C   C314      1.0  0.02085  0.99762  0.99044  1.0000
  H   H508      1.0  0.01312  0.87516  0.96639  1.0000
  C   C315      1.0  0.99188  0.03173  0.93941  1.0000
  C   C316      1.0  0.89882  0.02292  0.99495  1.0000
  H   H509      1.0  0.83844  0.96045  0.86422  1.0000
  S   S126      1.0  0.93987  0.85083  0.95951  1.0000
  C   C317      1.0  0.03630  0.89119  0.95952  1.0000
  H   H510      1.0  0.89801  0.99400  0.00210  1.0000
  N   N32       1.0  0.02254  0.03070  0.96646  1.0000
  Fe  Fe63      1.0  0.88216  0.86699  0.94031  1.0000
  S   S127      1.0  0.86869  0.00536  0.92817  1.0000
  Fe  Fe64      1.0  0.93119  0.89804  0.99871  1.0000
  H   H511      1.0  0.04392  0.99541  0.01082  1.0000
  C   C318      1.0  0.88516  0.03606  0.96068  1.0000
  C   C319      1.0  0.81500  0.82612  0.82539  1.0000
  S   S128      1.0  0.83851  0.82596  0.93542  1.0000
  H   H512      1.0  0.99210  0.05635  0.92082  1.0000
  C   C320      1.0  0.88605  0.07362  0.95187  1.0000
