data_image0
_chemical_formula_structural       SHCSFeCH2SHFe2CSCH2SCH2SCHFeHCNSC4H3SHCFeSHFeH2NH3SH2C4HC2HCHFeC2HCSHCH7CSCSH3CHCH3C2HCNC3HCSCH6CHC2HCH3CHCH9CSH2NCHSC2H2C4H5C2H3FeCHCNH3CH2SH4SH4FeH4CFeCSCHC3HC3SHFeHSH2CS2HC2HSCFeH3SH2SH2C5HFeHSH2SHCFeC2H2NH3SCHFeHSH2C2SFeCH2CHCH2NH4CH4CSH4CHC2NC2H2C2HSHC2HC2HCHC2H6CHCH2FeS2FeHSFeHFeCS2FeCHFeS2FeCFeHSHC2H2SH3C4H4SCNSHCHC2H2NCHCHC2H4C4HCSH3CH9CHNH2CHCHC2HFeSHFeSHFeSFeSHSFeS2HSHFeSFeHS2H3S2CHC3H3CH2CH4C6H4NC3SH3FeHCH3C4H5CH2C2HCHS2CNCHSC5H3CNC2HCH2C2H5SH3CHCHCH3SCHC2HCHC3HC2HC2H4CH6SH2SH2C2H2CH4CNCFeS2FeSNFeSFeHS2FeSHFeS2FeHFeSHS2HCHC6H4CHSH2SHC2H3CHC2SHNHCH4C2HCH2CH3CHCH2CH4C2H6FeSCFeS2FeNFeSHSFeSCHSHFeSFeCSFeH2CSCHC6H5CHC2H7CSHC2H3SH3NC2H3CH2CH3CH2CNC2H3SH2CH2CHC2H3CNHC2H2C2HCH6SH2CSHSC2SH2FeHFeH2FeCHSNFeH4C3FeNH2C2SFeSCHCHCHSCSH2CHCFeCSCSH3SFeSCH3CSHCH2CH2CHCNHS2HCHCHC3SH5CHC2H3CSHNHCHCNHC2H9CH3C3HCH2C3HSH2CH3C2HNHSC2H4CHSH4C2H2FeNCHFeHCHSFeH2CNH3C2HCHSC2HSHSH2SC2FeC2H3C3FeSHC2S3HCHCFeHC2SH2CH2C2HSNHFe2HNH2CSNCH12SH
_chemical_formula_sum              "S128 H512 C320 Fe64 N32"
_cell_length_a       37.4992
_cell_length_b       28.5027
_cell_length_c       34.2911
_cell_angle_alpha    90.0637
_cell_angle_beta     90.3415
_cell_angle_gamma    89.4948

_space_group_name_H-M_alt    "P 1"
_space_group_IT_number       1

loop_
  _space_group_symop_operation_xyz
  'x, y, z'

loop_
  _atom_site_type_symbol
  _atom_site_label
  _atom_site_symmetry_multiplicity
  _atom_site_fract_x
  _atom_site_fract_y
  _atom_site_fract_z
  _atom_site_occupancy
  S   S1        1.0  0.27594  0.44254  0.42065  1.0000
  H   H1        1.0  0.24104  0.54599  0.23678  1.0000
  C   C1        1.0  0.16385  0.51634  0.51077  1.0000
  S   S2        1.0  0.26340  0.44032  0.51618  1.0000
  Fe  Fe1       1.0  0.30657  0.42037  0.47401  1.0000
  C   C2        1.0  0.14953  0.48634  0.48261  1.0000
  H   H2        1.0  0.30474  0.56714  0.23131  1.0000
  H   H3        1.0  0.33856  0.53065  0.25323  1.0000
  S   S3        1.0  0.17728  0.45763  0.44917  1.0000
  H   H4        1.0  0.11612  0.60283  0.44105  1.0000
  Fe  Fe2       1.0  0.30130  0.51242  0.43040  1.0000
  Fe  Fe3       1.0  0.23509  0.46837  0.46317  1.0000
  C   C3        1.0  0.12432  0.58622  0.41306  1.0000
  S   S4        1.0  0.18926  0.69142  0.14251  1.0000
  C   C4        1.0  0.33027  0.63069  0.48136  1.0000
  H   H5        1.0  0.26832  0.44613  0.22481  1.0000
  H   H6        1.0  0.27460  0.44657  0.29705  1.0000
  S   S5        1.0  0.33613  0.48823  0.47987  1.0000
  C   C5        1.0  0.31079  0.54398  0.25670  1.0000
  H   H7        1.0  0.15241  0.56491  0.55744  1.0000
  H   H8        1.0  0.22836  0.49644  0.26556  1.0000
  S   S6        1.0  0.33138  0.34845  0.47897  1.0000
  C   C6        1.0  0.24851  0.52460  0.26272  1.0000
  H   H9        1.0  0.29156  0.49744  0.32137  1.0000
  Fe  Fe4       1.0  0.29031  0.51022  0.51760  1.0000
  H   H10       1.0  0.19233  0.52011  0.51308  1.0000
  C   C7        1.0  0.27471  0.66450  0.45852  1.0000
  N   N1        1.0  0.28505  0.50514  0.25935  1.0000
  S   S7        1.0  0.25798  0.54027  0.46869  1.0000
  C   C8        1.0  0.27890  0.58501  0.36337  1.0000
  C   C9        1.0  0.14122  0.54145  0.53587  1.0000
  C   C10       1.0  0.21900  0.64284  0.55710  1.0000
  C   C11       1.0  0.33037  0.68884  0.43031  1.0000
  H   H11       1.0  0.23062  0.57067  0.54320  1.0000
  H   H12       1.0  0.30509  0.64210  0.33437  1.0000
  H   H13       1.0  0.14518  0.60870  0.39988  1.0000
  S   S8        1.0  0.17031  0.61333  0.20916  1.0000
  H   H14       1.0  0.31475  0.46062  0.22025  1.0000
  C   C12       1.0  0.26485  0.60421  0.08601  1.0000
  Fe  Fe5       1.0  0.18287  0.66808  0.25382  1.0000
  S   S9        1.0  0.17537  0.64820  0.31648  1.0000
  H   H15       1.0  0.24286  0.62845  0.09018  1.0000
  Fe  Fe6       1.0  0.14138  0.67138  0.17763  1.0000
  H   H16       1.0  0.18946  0.56690  0.36328  1.0000
  H   H17       1.0  0.32905  0.66090  0.40758  1.0000
  N   N2        1.0  0.31276  0.67388  0.46663  1.0000
  H   H18       1.0  0.24869  0.67729  0.30920  1.0000
  H   H19       1.0  0.24526  0.53152  0.38749  1.0000
  H   H20       1.0  0.28130  0.49640  0.19717  1.0000
  S   S10       1.0  0.26033  0.58380  0.16460  1.0000
  H   H21       1.0  0.31021  0.56632  0.28332  1.0000
  H   H22       1.0  0.19281  0.64241  0.54370  1.0000
  C   C13       1.0  0.21446  0.58400  0.35749  1.0000
  C   C14       1.0  0.29341  0.47633  0.29412  1.0000
  C   C15       1.0  0.21527  0.62477  0.33495  1.0000
  C   C16       1.0  0.24799  0.64551  0.32634  1.0000
  H   H23       1.0  0.34196  0.26654  0.10160  1.0000
  C   C17       1.0  0.30646  0.54668  0.11204  1.0000
  C   C18       1.0  0.27820  0.57835  0.11763  1.0000
  H   H24       1.0  0.31754  0.61819  0.50858  1.0000
  C   C19       1.0  0.24044  0.60227  0.55656  1.0000
  H   H25       1.0  0.12610  0.57403  0.33510  1.0000
  Fe  Fe7       1.0  0.21927  0.63886  0.17907  1.0000
  C   C20       1.0  0.24622  0.56393  0.37131  1.0000
  C   C21       1.0  0.27985  0.62575  0.34072  1.0000
  H   H26       1.0  0.26047  0.69645  0.44785  1.0000
  C   C22       1.0  0.10419  0.53640  0.53283  1.0000
  S   S11       1.0  0.31824  0.56051  0.38242  1.0000
  H   H27       1.0  0.10054  0.66230  0.54559  1.0000
  C   C23       1.0  0.28748  0.47568  0.22392  1.0000
  H   H28       1.0  0.24603  0.54797  0.28849  1.0000
  H   H29       1.0  0.27156  0.63683  0.43584  1.0000
  H   H30       1.0  0.26073  0.65233  0.48518  1.0000
  H   H31       1.0  0.32865  0.60167  0.45969  1.0000
  H   H32       1.0  0.13698  0.55180  0.42037  1.0000
  H   H33       1.0  0.32095  0.46158  0.29285  1.0000
  H   H34       1.0  0.13269  0.65842  0.08098  1.0000
  C   C24       1.0  0.27418  0.60231  0.57410  1.0000
  S   S12       1.0  0.30210  0.55270  0.57119  1.0000
  C   C25       1.0  0.11264  0.48042  0.48022  1.0000
  S   S13       1.0  0.23406  0.69008  0.22611  1.0000
  H   H35       1.0  0.10018  0.64804  0.35952  1.0000
  H   H36       1.0  0.11632  0.51943  0.35868  1.0000
  H   H37       1.0  0.31690  0.52657  0.13635  1.0000
  C   C26       1.0  0.10511  0.55459  0.35107  1.0000
  H   H38       1.0  0.10159  0.45621  0.45913  1.0000
  C   C27       1.0  0.23129  0.68360  0.57533  1.0000
  H   H39       1.0  0.33869  0.46419  0.57552  1.0000
  H   H40       1.0  0.33436  0.40177  0.57203  1.0000
  H   H41       1.0  0.34460  0.24071  0.45674  1.0000
  C   C28       1.0  0.10502  0.69947  0.55415  1.0000
  C   C29       1.0  0.12061  0.67987  0.05714  1.0000
  H   H42       1.0  0.10378  0.69666  0.98220  1.0000
  C   C30       1.0  0.28642  0.64300  0.59246  1.0000
  N   N3        1.0  0.32513  0.43008  0.62929  1.0000
  C   C31       1.0  0.26513  0.68371  0.59277  1.0000
  C   C32       1.0  0.32201  0.67292  0.95491  1.0000
  C   C33       1.0  0.34363  0.43069  0.59134  1.0000
  H   H43       1.0  0.32425  0.46992  0.68258  1.0000
  C   C34       1.0  0.12086  0.67648  0.61974  1.0000
  S   S14       1.0  0.32909  0.56137  0.99769  1.0000
  C   C35       1.0  0.30866  0.56695  0.04351  1.0000
  H   H44       1.0  0.26931  0.61755  0.02429  1.0000
  H   H45       1.0  0.30376  0.64559  0.96610  1.0000
  H   H46       1.0  0.31935  0.38328  0.67800  1.0000
  H   H47       1.0  0.12982  0.58928  0.03771  1.0000
  H   H48       1.0  0.27880  0.46663  0.60735  1.0000
  H   H49       1.0  0.31265  0.64337  0.60581  1.0000
  C   C36       1.0  0.33372  0.38579  0.64974  1.0000
  H   H50       1.0  0.34380  0.51694  0.07139  1.0000
  C   C37       1.0  0.34667  0.69175  0.01837  1.0000
  C   C38       1.0  0.27993  0.59818  0.04884  1.0000
  H   H51       1.0  0.27627  0.40384  0.60477  1.0000
  C   C39       1.0  0.11832  0.61245  0.01461  1.0000
  H   H52       1.0  0.14261  0.69630  0.04048  1.0000
  H   H53       1.0  0.14949  0.68414  0.61459  1.0000
  H   H54       1.0  0.31014  0.68679  0.92736  1.0000
  C   C40       1.0  0.28619  0.43356  0.62281  1.0000
  H   H55       1.0  0.32645  0.35465  0.63186  1.0000
  C   C41       1.0  0.33709  0.47010  0.65336  1.0000
  H   H56       1.0  0.10148  0.59026  0.99526  1.0000
  H   H57       1.0  0.33453  0.22539  0.03777  1.0000
  H   H58       1.0  0.27144  0.43332  0.65087  1.0000
  H   H59       1.0  0.33043  0.50424  0.63919  1.0000
  H   H60       1.0  0.34756  0.65488  0.94750  1.0000
  H   H61       1.0  0.11579  0.68120  0.65142  1.0000
  H   H62       1.0  0.14087  0.62585  0.99697  1.0000
  H   H63       1.0  0.33159  0.66300  0.03236  1.0000
  H   H64       1.0  0.11677  0.63874  0.61254  1.0000
  C   C42       1.0  0.32170  0.54108  0.07515  1.0000
  S   S15       1.0  0.34652  0.42926  0.01731  1.0000
  H   H65       1.0  0.34815  0.43745  0.81682  1.0000
  H   H66       1.0  0.32790  0.94599  0.13914  1.0000
  N   N4        1.0  0.30890  0.97096  0.54897  1.0000
  C   C43       1.0  0.29751  0.78670  0.11389  1.0000
  H   H67       1.0  0.14519  0.87730  0.16995  1.0000
  S   S16       1.0  0.21015  0.81589  0.17801  1.0000
  C   C44       1.0  0.24392  0.81894  0.14312  1.0000
  C   C45       1.0  0.26969  0.78330  0.14080  1.0000
  H   H68       1.0  0.31791  0.75963  0.11288  1.0000
  H   H69       1.0  0.26869  0.75366  0.16043  1.0000
  C   C46       1.0  0.29890  0.82492  0.08843  1.0000
  C   C47       1.0  0.31567  0.71136  0.49631  1.0000
  C   C48       1.0  0.29327  0.01786  0.55666  1.0000
  C   C49       1.0  0.33655  0.97480  0.51862  1.0000
  H   H70       1.0  0.32513  0.98747  0.49048  1.0000
  H   H71       1.0  0.28070  0.03296  0.52996  1.0000
  H   H72       1.0  0.13556  0.83409  0.20599  1.0000
  H   H73       1.0  0.22521  0.88461  0.11916  1.0000
  H   H74       1.0  0.29160  0.90302  0.52968  1.0000
  C   C50       1.0  0.27253  0.85987  0.08984  1.0000
  C   C51       1.0  0.12304  0.85759  0.18375  1.0000
  H   H75       1.0  0.31384  0.04302  0.56694  1.0000
  H   H76       1.0  0.10753  0.88336  0.11014  1.0000
  H   H77       1.0  0.26790  0.95169  0.50797  1.0000
  Fe  Fe8       1.0  0.19976  0.74061  0.19228  1.0000
  C   C52       1.0  0.12712  0.79759  0.13428  1.0000
  H   H78       1.0  0.31750  0.72091  0.41796  1.0000
  C   C53       1.0  0.24531  0.85722  0.11762  1.0000
  N   N5        1.0  0.10279  0.83049  0.15444  1.0000
  H   H79       1.0  0.14793  0.81644  0.11748  1.0000
  H   H80       1.0  0.10568  0.88321  0.19928  1.0000
  H   H81       1.0  0.14126  0.77436  0.15517  1.0000
  C   C54       1.0  0.28068  0.93885  0.53536  1.0000
  H   H82       1.0  0.11242  0.77455  0.11376  1.0000
  H   H83       1.0  0.30278  0.74454  0.48622  1.0000
  S   S17       1.0  0.14998  0.72392  0.22504  1.0000
  H   H84       1.0  0.13327  0.70781  0.54733  1.0000
  H   H85       1.0  0.34795  0.80988  0.52323  1.0000
  H   H86       1.0  0.34403  0.71915  0.50344  1.0000
  H   H87       1.0  0.25920  0.93544  0.55747  1.0000
  S   S18       1.0  0.20429  0.73418  0.57596  1.0000
  H   H88       1.0  0.30246  0.70112  0.52396  1.0000
  H   H89       1.0  0.34464  0.88913  0.12592  1.0000
  H   H90       1.0  0.18761  0.82849  0.04139  1.0000
  H   H91       1.0  0.12642  0.87511  0.80056  1.0000
  Fe  Fe9       1.0  0.22449  0.78556  0.62034  1.0000
  H   H92       1.0  0.17366  0.92183  0.85457  1.0000
  H   H93       1.0  0.32767  0.78749  0.58934  1.0000
  H   H94       1.0  0.20947  0.85027  0.84030  1.0000
  H   H95       1.0  0.26318  0.76218  0.75730  1.0000
  C   C55       1.0  0.13940  0.84687  0.01020  1.0000
  Fe  Fe10      1.0  0.29054  0.81977  0.66058  1.0000
  C   C56       1.0  0.23292  0.80683  0.79578  1.0000
  S   S19       1.0  0.26433  0.84027  0.60421  1.0000
  C   C57       1.0  0.13061  0.99861  0.70759  1.0000
  H   H96       1.0  0.26438  0.85344  0.88007  1.0000
  C   C58       1.0  0.29392  0.78147  0.80783  1.0000
  C   C59       1.0  0.10377  0.75684  0.60594  1.0000
  C   C60       1.0  0.29468  0.80794  0.84213  1.0000
  H   H97       1.0  0.33771  0.82717  0.74838  1.0000
  C   C61       1.0  0.26330  0.78172  0.78428  1.0000
  C   C62       1.0  0.26410  0.83260  0.85386  1.0000
  C   C63       1.0  0.23298  0.83117  0.83114  1.0000
  S   S20       1.0  0.18805  0.83588  0.65155  1.0000
  H   H98       1.0  0.27531  0.71538  0.60583  1.0000
  Fe  Fe11      1.0  0.22025  0.81641  0.70431  1.0000
  H   H99       1.0  0.11910  0.87869  0.87360  1.0000
  S   S21       1.0  0.19649  0.81210  0.76404  1.0000
  H   H100      1.0  0.25007  0.98615  0.81371  1.0000
  H   H101      1.0  0.20349  0.03996  0.78603  1.0000
  C   C64       1.0  0.12849  0.96223  0.68036  1.0000
  S   S22       1.0  0.33465  0.81334  0.86841  1.0000
  S   S23       1.0  0.25320  0.76122  0.67442  1.0000
  H   H102      1.0  0.27347  0.88944  0.07017  1.0000
  C   C65       1.0  0.19146  0.94771  0.78134  1.0000
  C   C66       1.0  0.17583  0.84992  0.01857  1.0000
  H   H103      1.0  0.33672  0.91659  0.58056  1.0000
  S   S24       1.0  0.11394  0.80629  0.03596  1.0000
  C   C67       1.0  0.32774  0.90624  0.78825  1.0000
  Fe  Fe12      1.0  0.34371  0.95628  0.95580  1.0000
  H   H104      1.0  0.27685  0.74309  0.97076  1.0000
  H   H105      1.0  0.10526  0.70881  0.07116  1.0000
  H   H106      1.0  0.32811  0.04487  0.00563  1.0000
  S   S25       1.0  0.26068  0.87261  0.69605  1.0000
  H   H107      1.0  0.34690  0.97860  0.07667  1.0000
  H   H108      1.0  0.29546  0.75889  0.01729  1.0000
  S   S26       1.0  0.28245  0.84818  0.95931  1.0000
  H   H109      1.0  0.22518  0.88362  0.00492  1.0000
  H   H110      1.0  0.31723  0.76166  0.79891  1.0000
  C   C68       1.0  0.18873  0.01940  0.68219  1.0000
  C   C69       1.0  0.18717  0.98147  0.65628  1.0000
  C   C70       1.0  0.16740  0.95862  0.84595  1.0000
  C   C71       1.0  0.19724  0.88082  0.99763  1.0000
  C   C72       1.0  0.14577  0.90596  0.95985  1.0000
  H   H111      1.0  0.23692  0.93585  0.84169  1.0000
  Fe  Fe13      1.0  0.32116  0.87363  0.00414  1.0000
  H   H112      1.0  0.20981  0.96093  0.75850  1.0000
  S   S27       1.0  0.33478  0.82968  0.05632  1.0000
  H   H113      1.0  0.18666  0.04830  0.83459  1.0000
  H   H114      1.0  0.13976  0.96015  0.83396  1.0000
  S   S28       1.0  0.30756  0.93850  0.90567  1.0000
  H   H115      1.0  0.23188  0.99333  0.86188  1.0000
  C   C73       1.0  0.15679  0.95354  0.65494  1.0000
  Fe  Fe14      1.0  0.32510  0.86446  0.91656  1.0000
  C   C74       1.0  0.18492  0.02567  0.80817  1.0000
  C   C75       1.0  0.16041  0.02792  0.70794  1.0000
  H   H116      1.0  0.15733  0.02944  0.79618  1.0000
  H   H117      1.0  0.15503  0.92507  0.63420  1.0000
  N   N6        1.0  0.19342  0.97617  0.81740  1.0000
  H   H118      1.0  0.13417  0.92773  0.93722  1.0000
  H   H119      1.0  0.16781  0.97994  0.87323  1.0000
  H   H120      1.0  0.21214  0.04128  0.68307  1.0000
  S   S29       1.0  0.30188  0.94836  0.00194  1.0000
  C   C76       1.0  0.22973  0.97278  0.83427  1.0000
  H   H121      1.0  0.16412  0.94837  0.76848  1.0000
  Fe  Fe15      1.0  0.23123  0.88829  0.64083  1.0000
  H   H122      1.0  0.19863  0.91037  0.78686  1.0000
  S   S30       1.0  0.22460  0.96502  0.62910  1.0000
  H   H123      1.0  0.16160  0.05708  0.72805  1.0000
  H   H124      1.0  0.30476  0.94909  0.60876  1.0000
  C   C77       1.0  0.12414  0.87534  0.98122  1.0000
  C   C78       1.0  0.18246  0.90814  0.96772  1.0000
  S   S31       1.0  0.21019  0.94347  0.93931  1.0000
  Fe  Fe16      1.0  0.26731  0.92396  0.95212  1.0000
  C   C79       1.0  0.29243  0.72957  0.99614  1.0000
  H   H125      1.0  0.13197  0.76674  0.60040  1.0000
  H   H126      1.0  0.33472  0.76412  0.94072  1.0000
  C   C80       1.0  0.10918  0.84361  0.80097  1.0000
  H   H127      1.0  0.27228  0.01628  0.57948  1.0000
  C   C81       1.0  0.32502  0.95217  0.58525  1.0000
  H   H128      1.0  0.27620  0.70229  0.01070  1.0000
  H   H129      1.0  0.12705  0.81227  0.80321  1.0000
  N   N7        1.0  0.32746  0.71062  0.98394  1.0000
  H   H130      1.0  0.30354  0.89232  0.77338  1.0000
  H   H131      1.0  0.12033  0.81577  0.87477  1.0000
  H   H132      1.0  0.32774  0.89243  0.81856  1.0000
  H   H133      1.0  0.32500  0.94505  0.79021  1.0000
  C   C82       1.0  0.10241  0.84683  0.87103  1.0000
  H   H134      1.0  0.33698  0.90353  0.71108  1.0000
  H   H135      1.0  0.10538  0.94001  0.67927  1.0000
  H   H136      1.0  0.32979  0.08271  0.07065  1.0000
  H   H137      1.0  0.34675  0.97507  0.59622  1.0000
  C   C83       1.0  0.43919  0.33593  0.15451  1.0000
  S   S32       1.0  0.39871  0.39782  0.11215  1.0000
  H   H138      1.0  0.38580  0.27930  0.11954  1.0000
  H   H139      1.0  0.41929  0.27279  0.47948  1.0000
  H   H140      1.0  0.46949  0.28286  0.18507  1.0000
  H   H141      1.0  0.39056  0.41138  0.48901  1.0000
  C   C84       1.0  0.49329  0.29956  0.12986  1.0000
  H   H142      1.0  0.41853  0.33801  0.17635  1.0000
  C   C85       1.0  0.57164  0.38294  0.11008  1.0000
  C   C86       1.0  0.43707  0.36411  0.12121  1.0000
  N   N8        1.0  0.39800  0.22197  0.43941  1.0000
  C   C87       1.0  0.46759  0.30404  0.15904  1.0000
  C   C88       1.0  0.38879  0.21872  0.39750  1.0000
  H   H143      1.0  0.43632  0.27667  0.43068  1.0000
  H   H144      1.0  0.41255  0.22437  0.37875  1.0000
  C   C89       1.0  0.39963  0.31126  0.56504  1.0000
  C   C90       1.0  0.42192  0.38269  0.53633  1.0000
  H   H145      1.0  0.55961  0.35497  0.12834  1.0000
  S   S33       1.0  0.52596  0.25550  0.13248  1.0000
  H   H146      1.0  0.35906  0.69669  0.43543  1.0000
  C   C91       1.0  0.49186  0.32910  0.09741  1.0000
  C   C92       1.0  0.39291  0.38361  0.51034  1.0000
  H   H147      1.0  0.43878  0.25233  0.08311  1.0000
  C   C93       1.0  0.41208  0.26915  0.44806  1.0000
  C   C94       1.0  0.37099  0.31169  0.53861  1.0000
  H   H148      1.0  0.44162  0.41018  0.53538  1.0000
  C   C95       1.0  0.36572  0.21392  0.46298  1.0000
  H   H149      1.0  0.54986  0.39883  0.09207  1.0000
  C   C96       1.0  0.46435  0.36221  0.09369  1.0000
  C   C97       1.0  0.36742  0.34814  0.51154  1.0000
  H   H150      1.0  0.36824  0.24539  0.38917  1.0000
  H   H151      1.0  0.58159  0.41059  0.13022  1.0000
  H   H152      1.0  0.39195  0.29703  0.44131  1.0000
  H   H153      1.0  0.35130  0.28417  0.53957  1.0000
  H   H154      1.0  0.56712  0.38691  0.56099  1.0000
  H   H155      1.0  0.53463  0.34294  0.57196  1.0000
  C   C98       1.0  0.42501  0.34686  0.56405  1.0000
  H   H156      1.0  0.37175  0.21582  0.49473  1.0000
  C   C99       1.0  0.36992  0.25320  0.10279  1.0000
  H   H157      1.0  0.37015  0.21988  0.11981  1.0000
  H   H158      1.0  0.35898  0.63643  0.48800  1.0000
  Fe  Fe17      1.0  0.47513  0.28869  0.73279  1.0000
  S   S34       1.0  0.42350  0.26191  0.75560  1.0000
  S   S35       1.0  0.52511  0.28461  0.76854  1.0000
  Fe  Fe18      1.0  0.44436  0.31302  0.65358  1.0000
  H   H159      1.0  0.45797  0.40207  0.79925  1.0000
  S   S36       1.0  0.46029  0.34736  0.59772  1.0000
  Fe  Fe19      1.0  0.39928  0.32482  0.72585  1.0000
  H   H160      1.0  0.53352  0.39791  0.59722  1.0000
  Fe  Fe20      1.0  0.41858  0.22800  0.69690  1.0000
  C   C100      1.0  0.35892  0.31053  0.85608  1.0000
  S   S37       1.0  0.45174  0.35472  0.70817  1.0000
  S   S38       1.0  0.47266  0.24933  0.67643  1.0000
  Fe  Fe21      1.0  0.36678  0.49934  0.99804  1.0000
  C   C101      1.0  0.35480  0.36455  0.80157  1.0000
  H   H161      1.0  0.35711  0.30657  0.03976  1.0000
  Fe  Fe22      1.0  0.44191  0.46225  0.98367  1.0000
  S   S39       1.0  0.42735  0.38975  0.00179  1.0000
  S   S40       1.0  0.49783  0.48036  0.96510  1.0000
  Fe  Fe23      1.0  0.37773  0.40114  0.96684  1.0000
  C   C102      1.0  0.35804  0.31875  0.81580  1.0000
  Fe  Fe24      1.0  0.39797  0.42485  0.05058  1.0000
  H   H162      1.0  0.36646  0.46896  0.65822  1.0000
  S   S41       1.0  0.39423  0.47163  0.94440  1.0000
  H   H163      1.0  0.53714  0.31579  0.95761  1.0000
  C   C103      1.0  0.50910  0.38012  0.85213  1.0000
  C   C104      1.0  0.51961  0.38773  0.96311  1.0000
  H   H164      1.0  0.46620  0.33980  0.79949  1.0000
  H   H165      1.0  0.49194  0.37862  0.96544  1.0000
  S   S42       1.0  0.41617  0.49709  0.03530  1.0000
  H   H166      1.0  0.42462  0.40791  0.87990  1.0000
  H   H167      1.0  0.42518  0.36296  0.81792  1.0000
  H   H168      1.0  0.58224  0.41687  0.64548  1.0000
  C   C105      1.0  0.59838  0.38868  0.63133  1.0000
  C   C106      1.0  0.55394  0.33003  0.75629  1.0000
  C   C107      1.0  0.52973  0.43483  0.96313  1.0000
  C   C108      1.0  0.54073  0.37510  0.74851  1.0000
  H   H169      1.0  0.55379  0.44578  0.73176  1.0000
  H   H170      1.0  0.51265  0.38271  0.75136  1.0000
  H   H171      1.0  0.53601  0.30308  0.63596  1.0000
  H   H172      1.0  0.52197  0.38404  0.88122  1.0000
  S   S43       1.0  0.36254  0.33745  0.93226  1.0000
  C   C109      1.0  0.55403  0.33092  0.64713  1.0000
  N   N9        1.0  0.57567  0.35102  0.61547  1.0000
  S   S44       1.0  0.38954  0.28847  0.66893  1.0000
  H   H173      1.0  0.52231  0.34996  0.83718  1.0000
  C   C110      1.0  0.59173  0.41031  0.95617  1.0000
  H   H174      1.0  0.57389  0.48241  0.95970  1.0000
  C   C111      1.0  0.42146  0.22777  0.06648  1.0000
  C   C112      1.0  0.56407  0.41087  0.73768  1.0000
  H   H175      1.0  0.47579  0.32982  0.90689  1.0000
  H   H176      1.0  0.40230  0.28299  0.58578  1.0000
  N   N10       1.0  0.47028  0.37275  0.85564  1.0000
  C   C113      1.0  0.46371  0.32880  0.87721  1.0000
  H   H177      1.0  0.47512  0.29785  0.86164  1.0000
  C   C114      1.0  0.59050  0.32093  0.75381  1.0000
  H   H178      1.0  0.45812  0.44643  0.86135  1.0000
  C   C115      1.0  0.45388  0.41262  0.87674  1.0000
  C   C116      1.0  0.38445  0.29119  0.04210  1.0000
  H   H179      1.0  0.46520  0.41637  0.90660  1.0000
  H   H180      1.0  0.59594  0.41982  0.04363  1.0000
  H   H181      1.0  0.53680  0.35817  0.66102  1.0000
  H   H182      1.0  0.43460  0.32261  0.88086  1.0000
  C   C117      1.0  0.36229  0.21202  0.04176  1.0000
  C   C118      1.0  0.56590  0.44600  0.95972  1.0000
  C   C119      1.0  0.54528  0.35213  0.95846  1.0000
  C   C120      1.0  0.55177  0.37060  0.58503  1.0000
  H   H183      1.0  0.51491  0.41231  0.83507  1.0000
  C   C121      1.0  0.45427  0.36931  0.81631  1.0000
  S   S45       1.0  0.35999  0.37569  0.75165  1.0000
  H   H184      1.0  0.37316  0.67686  0.01029  1.0000
  H   H185      1.0  0.39474  0.28711  0.01187  1.0000
  H   H186      1.0  0.56502  0.34317  0.03936  1.0000
  C   C122      1.0  0.58138  0.36335  0.95505  1.0000
  H   H187      1.0  0.57118  0.31531  0.67042  1.0000
  H   H188      1.0  0.35997  0.28959  0.79576  1.0000
  H   H189      1.0  0.40128  0.31745  0.05733  1.0000
  H   H190      1.0  0.36210  0.27510  0.86693  1.0000
  H   H191      1.0  0.46408  0.38588  0.06931  1.0000
  H   H192      1.0  0.36273  0.38324  0.65655  1.0000
  H   H193      1.0  0.41020  0.20919  0.62164  1.0000
  H   H194      1.0  0.43361  0.22244  0.03728  1.0000
  H   H195      1.0  0.37300  0.42659  0.59506  1.0000
  C   C123      1.0  0.58615  0.32808  0.05862  1.0000
  H   H196      1.0  0.58249  0.28447  0.58655  1.0000
  N   N11       1.0  0.38453  0.24604  0.06326  1.0000
  H   H197      1.0  0.51127  0.32555  0.07453  1.0000
  H   H198      1.0  0.57429  0.29827  0.07488  1.0000
  C   C124      1.0  0.35674  0.34812  0.88225  1.0000
  H   H199      1.0  0.34927  0.42279  0.88816  1.0000
  C   C125      1.0  0.35088  0.40198  0.82772  1.0000
  H   H200      1.0  0.37327  0.20452  0.01228  1.0000
  C   C126      1.0  0.35194  0.39377  0.86807  1.0000
  C   C127      1.0  0.59855  0.31397  0.59829  1.0000
  H   H201      1.0  0.56424  0.98072  0.46602  1.0000
  Fe  Fe25      1.0  0.43667  0.93550  0.50075  1.0000
  S   S46       1.0  0.42757  0.99101  0.45537  1.0000
  H   H202      1.0  0.56956  0.05544  0.27843  1.0000
  Fe  Fe26      1.0  0.49211  0.99199  0.54407  1.0000
  S   S47       1.0  0.48802  0.05248  0.50266  1.0000
  H   H203      1.0  0.34973  0.94033  0.51297  1.0000
  Fe  Fe27      1.0  0.42918  0.04080  0.50576  1.0000
  S   S48       1.0  0.39184  0.10201  0.51239  1.0000
  Fe  Fe28      1.0  0.48710  0.99723  0.45632  1.0000
  S   S49       1.0  0.51949  0.00428  0.40191  1.0000
  H   H204      1.0  0.40506  0.18964  0.55164  1.0000
  S   S50       1.0  0.49635  0.93704  0.49738  1.0000
  Fe  Fe29      1.0  0.46828  0.14595  0.22946  1.0000
  S   S51       1.0  0.45869  0.07779  0.19857  1.0000
  S   S52       1.0  0.45310  0.15918  0.29173  1.0000
  H   H205      1.0  0.45035  0.19155  0.43247  1.0000
  S   S53       1.0  0.49413  0.12777  0.12103  1.0000
  H   H206      1.0  0.36886  0.01468  0.13842  1.0000
  Fe  Fe30      1.0  0.44023  0.12290  0.14866  1.0000
  S   S54       1.0  0.38717  0.11224  0.11924  1.0000
  Fe  Fe31      1.0  0.51338  0.08865  0.17395  1.0000
  H   H207      1.0  0.43222  0.18662  0.48076  1.0000
  S   S55       1.0  0.43320  0.98507  0.55143  1.0000
  S   S56       1.0  0.52468  0.15309  0.20951  1.0000
  H   H208      1.0  0.40058  0.98359  0.16839  1.0000
  H   H209      1.0  0.57959  0.94763  0.39991  1.0000
  H   H210      1.0  0.58472  0.92923  0.48622  1.0000
  S   S57       1.0  0.55425  0.03062  0.17021  1.0000
  S   S58       1.0  0.44526  0.19024  0.18158  1.0000
  C   C128      1.0  0.57055  0.92746  0.57036  1.0000
  H   H211      1.0  0.57683  0.12439  0.15415  1.0000
  C   C129      1.0  0.39162  0.85148  0.54437  1.0000
  C   C130      1.0  0.41019  0.86708  0.57736  1.0000
  C   C131      1.0  0.41295  0.91288  0.11793  1.0000
  H   H212      1.0  0.56444  0.12717  0.31975  1.0000
  H   H213      1.0  0.57997  0.16232  0.28014  1.0000
  H   H214      1.0  0.42237  0.19344  0.08196  1.0000
  C   C132      1.0  0.42535  0.18611  0.44912  1.0000
  H   H215      1.0  0.40627  0.87911  0.10324  1.0000
  H   H216      1.0  0.43583  0.92843  0.10208  1.0000
  C   C133      1.0  0.35217  0.92319  0.13939  1.0000
  H   H217      1.0  0.41392  0.00736  0.12234  1.0000
  H   H218      1.0  0.42216  0.90453  0.14807  1.0000
  H   H219      1.0  0.54601  0.90922  0.56406  1.0000
  H   H220      1.0  0.43375  0.88823  0.57410  1.0000
  C   C134      1.0  0.50046  0.04687  0.37136  1.0000
  C   C135      1.0  0.47631  0.07996  0.38612  1.0000
  C   C136      1.0  0.46179  0.11444  0.36144  1.0000
  C   C137      1.0  0.47119  0.11562  0.32204  1.0000
  C   C138      1.0  0.49507  0.08221  0.30720  1.0000
  C   C139      1.0  0.50978  0.04791  0.33195  1.0000
  H   H221      1.0  0.46886  0.07903  0.41652  1.0000
  H   H222      1.0  0.44297  0.13986  0.37264  1.0000
  H   H223      1.0  0.50195  0.08259  0.27664  1.0000
  H   H224      1.0  0.52761  0.02137  0.32045  1.0000
  N   N12       1.0  0.38190  0.94518  0.11821  1.0000
  C   C140      1.0  0.39176  0.98952  0.13774  1.0000
  C   C141      1.0  0.39230  0.11712  0.56187  1.0000
  C   C142      1.0  0.59006  0.96554  0.47616  1.0000
  S   S59       1.0  0.40353  0.87044  0.49774  1.0000
  H   H225      1.0  0.35441  0.17853  0.45736  1.0000
  H   H226      1.0  0.35936  0.91608  0.17036  1.0000
  H   H227      1.0  0.58379  0.09183  0.23946  1.0000
  Fe  Fe32      1.0  0.50103  0.19152  0.15856  1.0000
  H   H228      1.0  0.37801  0.18353  0.38998  1.0000
  C   C143      1.0  0.59683  0.05494  0.16656  1.0000
  H   H229      1.0  0.41577  0.15010  0.44232  1.0000
  H   H230      1.0  0.35767  0.99998  0.52724  1.0000
  H   H231      1.0  0.59578  0.02923  0.41958  1.0000
  C   C144      1.0  0.36213  0.82228  0.54871  1.0000
  C   C145      1.0  0.59341  0.07151  0.26510  1.0000
  C   C146      1.0  0.58893  0.14063  0.30544  1.0000
  C   C147      1.0  0.40016  0.16300  0.57329  1.0000
  H   H232      1.0  0.48753  0.04321  0.71300  1.0000
  H   H233      1.0  0.48628  0.03528  0.66100  1.0000
  H   H234      1.0  0.39268  0.89177  0.81970  1.0000
  H   H235      1.0  0.55141  0.06493  0.70941  1.0000
  H   H236      1.0  0.52141  0.16559  0.70914  1.0000
  C   C148      1.0  0.48320  0.06166  0.68480  1.0000
  H   H237      1.0  0.36067  0.95308  0.73028  1.0000
  H   H238      1.0  0.55023  0.05671  0.65768  1.0000
  C   C149      1.0  0.50317  0.13518  0.71197  1.0000
  C   C150      1.0  0.36077  0.91412  0.72844  1.0000
  H   H239      1.0  0.56502  0.11141  0.67747  1.0000
  C   C151      1.0  0.35345  0.05364  0.01881  1.0000
  H   H240      1.0  0.36401  0.82298  0.79218  1.0000
  S   S60       1.0  0.40271  0.15287  0.69072  1.0000
  S   S61       1.0  0.52862  0.00066  0.59550  1.0000
  C   C152      1.0  0.38914  0.09395  0.62984  1.0000
  N   N13       1.0  0.50832  0.10091  0.68003  1.0000
  C   C153      1.0  0.50147  0.12395  0.64208  1.0000
  H   H241      1.0  0.38458  0.90294  0.71139  1.0000
  S   S62       1.0  0.36550  0.88323  0.96178  1.0000
  C   C154      1.0  0.36792  0.82764  0.61907  1.0000
  C   C155      1.0  0.35036  0.81024  0.58606  1.0000
  C   C156      1.0  0.40308  0.17412  0.61298  1.0000
  C   C157      1.0  0.38676  0.08267  0.59017  1.0000
  C   C158      1.0  0.54537  0.08277  0.68127  1.0000
  H   H242      1.0  0.39192  0.94670  0.79408  1.0000
  H   H243      1.0  0.44241  0.04923  0.00046  1.0000
  H   H244      1.0  0.35097  0.71946  0.04083  1.0000
  C   C159      1.0  0.39744  0.13966  0.64123  1.0000
  N   N14       1.0  0.36064  0.89227  0.76753  1.0000
  C   C160      1.0  0.36199  0.84066  0.76337  1.0000
  C   C161      1.0  0.41785  0.05669  0.01576  1.0000
  H   H245      1.0  0.38487  0.06723  0.65165  1.0000
  C   C162      1.0  0.56948  0.97219  0.58718  1.0000
  H   H246      1.0  0.41234  0.86804  0.64020  1.0000
  H   H247      1.0  0.41735  0.89785  0.77526  1.0000
  C   C163      1.0  0.39837  0.85512  0.61474  1.0000
  C   C164      1.0  0.38515  0.04388  0.99907  1.0000
  H   H248      1.0  0.47376  0.13816  0.64033  1.0000
  H   H249      1.0  0.37499  0.73497  0.95594  1.0000
  H   H250      1.0  0.36074  0.17810  0.05762  1.0000
  H   H251      1.0  0.50815  0.11896  0.74101  1.0000
  H   H252      1.0  0.50480  0.09875  0.61742  1.0000
  S   S63       1.0  0.38418  0.01369  0.95457  1.0000
  H   H253      1.0  0.51997  0.15360  0.63718  1.0000
  H   H254      1.0  0.38530  0.82895  0.74577  1.0000
  H   H255      1.0  0.38046  0.04736  0.58154  1.0000
  C   C165      1.0  0.39208  0.90794  0.79008  1.0000
  H   H256      1.0  0.45500  0.07431  0.68398  1.0000
  C   C166      1.0  0.38713  0.08686  0.07269  1.0000
  H   H257      1.0  0.47543  0.14931  0.71219  1.0000
  C   C167      1.0  0.41886  0.07781  0.05276  1.0000
  H   H258      1.0  0.35394  0.77708  0.98748  1.0000
  H   H259      1.0  0.36369  0.92234  0.06179  1.0000
  H   H260      1.0  0.44417  0.08678  0.06579  1.0000
  S   S64       1.0  0.35015  0.81862  0.66552  1.0000
  C   C168      1.0  0.35443  0.07533  0.05546  1.0000
  H   H261      1.0  0.39228  0.97237  0.06091  1.0000
  C   C169      1.0  0.34873  0.74836  0.96626  1.0000
  C   C170      1.0  0.37071  0.95507  0.07764  1.0000
  H   H262      1.0  0.82753  0.28408  0.19288  1.0000
  C   C171      1.0  0.70351  0.21982  0.56102  1.0000
  H   H263      1.0  0.73477  0.45017  0.15661  1.0000
  C   C172      1.0  0.80147  0.34969  0.13232  1.0000
  C   C173      1.0  0.84555  0.45416  0.44481  1.0000
  C   C174      1.0  0.62827  0.34222  0.11069  1.0000
  H   H264      1.0  0.61713  0.31321  0.12851  1.0000
  C   C175      1.0  0.83356  0.50637  0.39094  1.0000
  C   C176      1.0  0.75327  0.42198  0.14989  1.0000
  H   H265      1.0  0.64010  0.36839  0.13104  1.0000
  C   C177      1.0  0.78542  0.41798  0.17059  1.0000
  C   C178      1.0  0.74575  0.39075  0.11957  1.0000
  H   H266      1.0  0.82031  0.32216  0.12509  1.0000
  H   H267      1.0  0.61486  0.32789  0.57391  1.0000
  H   H268      1.0  0.65060  0.32750  0.09318  1.0000
  H   H269      1.0  0.83129  0.22497  0.17546  1.0000
  C   C179      1.0  0.83437  0.24756  0.20175  1.0000
  H   H270      1.0  0.81418  0.23644  0.22342  1.0000
  H   H271      1.0  0.83610  0.24558  0.09822  1.0000
  H   H272      1.0  0.83882  0.47940  0.36813  1.0000
  H   H273      1.0  0.81907  0.50126  0.11129  1.0000
  H   H274      1.0  0.81748  0.45546  0.45514  1.0000
  H   H275      1.0  0.79111  0.44216  0.19399  1.0000
  S   S65       1.0  0.83791  0.51805  0.19985  1.0000
  H   H276      1.0  0.80463  0.50575  0.39791  1.0000
  H   H277      1.0  0.79581  0.54059  0.07924  1.0000
  S   S66       1.0  0.70834  0.40060  0.09008  1.0000
  H   H278      1.0  0.76329  0.32905  0.08846  1.0000
  H   H279      1.0  0.62833  0.42948  0.08178  1.0000
  C   C180      1.0  0.76936  0.35382  0.11140  1.0000
  C   C181      1.0  0.80239  0.50290  0.08433  1.0000
  H   H280      1.0  0.83894  0.54103  0.37757  1.0000
  H   H281      1.0  0.82211  0.54085  0.46298  1.0000
  C   C182      1.0  0.80988  0.38255  0.16122  1.0000
  H   H282      1.0  0.77705  0.48430  0.09045  1.0000
  H   H283      1.0  0.69185  0.22766  0.53281  1.0000
  H   H284      1.0  0.84831  0.42401  0.42439  1.0000
  H   H285      1.0  0.84741  0.43001  0.08653  1.0000
  C   C183      1.0  0.84798  0.45225  0.55742  1.0000
  N   N15       1.0  0.60059  0.36388  0.08548  1.0000
  C   C184      1.0  0.81651  0.46175  0.57795  1.0000
  Fe  Fe33      1.0  0.74445  0.45351  0.64426  1.0000
  S   S67       1.0  0.76592  0.38006  0.63881  1.0000
  S   S68       1.0  0.77353  0.51743  0.62372  1.0000
  Fe  Fe34      1.0  0.67974  0.42255  0.69064  1.0000
  S   S69       1.0  0.69633  0.34708  0.68922  1.0000
  N   N16       1.0  0.82121  0.48200  0.05066  1.0000
  Fe  Fe35      1.0  0.75117  0.37405  0.70170  1.0000
  S   S70       1.0  0.78817  0.33955  0.74489  1.0000
  Fe  Fe36      1.0  0.70907  0.36115  0.62668  1.0000
  H   H286      1.0  0.61960  0.44551  0.80396  1.0000
  S   S71       1.0  0.73349  0.44877  0.70831  1.0000
  S   S72       1.0  0.68858  0.43522  0.62692  1.0000
  Fe  Fe37      1.0  0.71522  0.36568  0.03233  1.0000
  S   S73       1.0  0.76690  0.34915  0.00240  1.0000
  H   H287      1.0  0.79023  0.52025  0.00810  1.0000
  Fe  Fe38      1.0  0.66922  0.33252  0.96581  1.0000
  S   S74       1.0  0.71600  0.31228  0.92904  1.0000
  S   S75       1.0  0.62915  0.44654  0.71966  1.0000
  Fe  Fe39      1.0  0.73931  0.28287  0.98432  1.0000
  H   H288      1.0  0.83079  0.57641  0.60005  1.0000
  Fe  Fe40      1.0  0.73998  0.37977  0.94976  1.0000
  S   S76       1.0  0.76712  0.43146  0.91094  1.0000
  H   H289      1.0  0.64999  0.48818  0.82254  1.0000
  S   S77       1.0  0.69081  0.40294  0.98139  1.0000
  S   S78       1.0  0.69007  0.29659  0.01938  1.0000
  H   H290      1.0  0.70209  0.43936  0.80467  1.0000
  C   C185      1.0  0.67915  0.43245  0.87815  1.0000
  H   H291      1.0  0.70455  0.37902  0.81956  1.0000
  C   C186      1.0  0.78451  0.36548  0.79121  1.0000
  C   C187      1.0  0.78477  0.33727  0.82457  1.0000
  C   C188      1.0  0.78011  0.35751  0.86154  1.0000
  C   C189      1.0  0.77584  0.40610  0.86529  1.0000
  C   C190      1.0  0.77696  0.43452  0.83209  1.0000
  C   C191      1.0  0.78097  0.41418  0.79509  1.0000
  H   H292      1.0  0.78791  0.29963  0.82182  1.0000
  H   H293      1.0  0.78032  0.33545  0.88716  1.0000
  H   H294      1.0  0.77397  0.47216  0.83492  1.0000
  H   H295      1.0  0.78173  0.43631  0.76968  1.0000
  C   C192      1.0  0.61369  0.35640  0.74216  1.0000
  H   H296      1.0  0.67229  0.39780  0.78376  1.0000
  S   S79       1.0  0.61268  0.31805  0.94811  1.0000
  H   H297      1.0  0.61768  0.29921  0.62017  1.0000
  H   H298      1.0  0.84580  0.41608  0.03528  1.0000
  S   S80       1.0  0.69193  0.31256  0.57882  1.0000
  H   H299      1.0  0.72544  0.27247  0.64674  1.0000
  C   C193      1.0  0.68579  0.40795  0.81134  1.0000
  C   C194      1.0  0.70696  0.25543  0.58895  1.0000
  H   H300      1.0  0.66054  0.44163  0.90213  1.0000
  H   H301      1.0  0.63787  0.38894  0.04332  1.0000
  H   H302      1.0  0.79563  0.26727  0.04351  1.0000
  C   C195      1.0  0.60054  0.40138  0.73386  1.0000
  H   H303      1.0  0.77243  0.46410  0.02099  1.0000
  C   C196      1.0  0.82770  0.21920  0.07754  1.0000
  C   C197      1.0  0.80485  0.23149  0.04655  1.0000
  S   S81       1.0  0.76357  0.21069  0.98232  1.0000
  H   H304      1.0  0.60722  0.31343  0.03924  1.0000
  N   N17       1.0  0.65981  0.41776  0.84264  1.0000
  H   H305      1.0  0.61944  0.41932  0.95341  1.0000
  C   C198      1.0  0.72224  0.24524  0.62524  1.0000
  H   H306      1.0  0.83697  0.21692  0.71517  1.0000
  H   H307      1.0  0.80648  0.41150  0.06434  1.0000
  H   H308      1.0  0.64175  0.34884  0.74054  1.0000
  H   H309      1.0  0.69617  0.46356  0.87265  1.0000
  C   C199      1.0  0.79764  0.48353  0.01592  1.0000
  C   C200      1.0  0.83319  0.21231  0.68316  1.0000
  H   H310      1.0  0.69705  0.40393  0.88886  1.0000
  C   C201      1.0  0.63923  0.37494  0.85105  1.0000
  H   H311      1.0  0.84839  0.44417  0.75638  1.0000
  H   H312      1.0  0.82617  0.49561  0.73770  1.0000
  C   C202      1.0  0.81054  0.50624  0.59398  1.0000
  H   H313      1.0  0.65696  0.34550  0.86060  1.0000
  H   H314      1.0  0.81068  0.46736  0.98998  1.0000
  H   H315      1.0  0.61959  0.38101  0.87480  1.0000
  C   C203      1.0  0.83074  0.43274  0.05958  1.0000
  H   H316      1.0  0.81256  0.45410  0.67634  1.0000
  C   C204      1.0  0.61630  0.40230  0.06254  1.0000
  H   H317      1.0  0.61582  0.46486  0.85353  1.0000
  H   H318      1.0  0.83404  0.40238  0.69534  1.0000
  C   C205      1.0  0.83872  0.43563  0.67916  1.0000
  H   H319      1.0  0.60085  0.28618  0.76022  1.0000
  H   H320      1.0  0.61741  0.37489  0.65364  1.0000
  H   H321      1.0  0.84410  0.52875  0.67350  1.0000
  H   H322      1.0  0.84791  0.54633  0.03679  1.0000
  C   C206      1.0  0.63522  0.45578  0.83021  1.0000
  C   C207      1.0  0.83543  0.54179  0.58797  1.0000
  H   H323      1.0  0.80518  0.22285  0.67618  1.0000
  H   H324      1.0  0.61448  0.40525  0.60802  1.0000
  H   H325      1.0  0.62420  0.36281  0.82492  1.0000
  H   H326      1.0  0.79683  0.43472  0.58111  1.0000
  H   H327      1.0  0.84748  0.42627  0.64915  1.0000
  H   H328      1.0  0.83216  0.98918  0.34999  1.0000
  Fe  Fe41      1.0  0.71414  0.96535  0.54045  1.0000
  S   S82       1.0  0.69543  0.03963  0.53217  1.0000
  C   C208      1.0  0.63525  0.93027  0.56878  1.0000
  Fe  Fe42      1.0  0.79151  0.98943  0.52470  1.0000
  S   S83       1.0  0.77923  0.06548  0.51429  1.0000
  S   S84       1.0  0.84808  0.96299  0.52112  1.0000
  Fe  Fe43      1.0  0.74428  0.05803  0.56674  1.0000
  N   N18       1.0  0.61707  0.96596  0.44497  1.0000
  Fe  Fe44      1.0  0.73182  0.03909  0.48057  1.0000
  S   S85       1.0  0.71014  0.06075  0.42184  1.0000
  H   H329      1.0  0.66046  0.96964  0.48576  1.0000
  S   S86       1.0  0.74735  0.96335  0.48636  1.0000
  Fe  Fe45      1.0  0.81675  0.06695  0.23787  1.0000
  S   S87       1.0  0.77153  0.02207  0.21682  1.0000
  C   C209      1.0  0.60012  0.10315  0.16056  1.0000
  H   H330      1.0  0.70949  0.16945  0.10173  1.0000
  S   S88       1.0  0.78828  0.06435  0.12915  1.0000
  H   H331      1.0  0.64141  0.04403  0.31876  1.0000
  Fe  Fe46      1.0  0.75594  0.08524  0.18120  1.0000
  S   S89       1.0  0.70461  0.12602  0.17623  1.0000
  Fe  Fe47      1.0  0.80856  0.00540  0.16704  1.0000
  C   C210      1.0  0.64459  0.12119  0.27377  1.0000
  S   S90       1.0  0.79841  0.13105  0.20620  1.0000
  Fe  Fe48      1.0  0.83202  0.10526  0.15713  1.0000
  H   H332      1.0  0.60157  0.89870  0.42247  1.0000
  H   H333      1.0  0.66281  0.09285  0.26322  1.0000
  C   C211      1.0  0.63345  0.12431  0.16380  1.0000
  S   S91       1.0  0.83485  0.07541  0.30003  1.0000
  C   C212      1.0  0.60543  0.93546  0.41249  1.0000
  H   H334      1.0  0.60014  0.05901  0.34246  1.0000
  C   C213      1.0  0.74428  0.06921  0.38789  1.0000
  C   C214      1.0  0.77926  0.07717  0.40040  1.0000
  C   C215      1.0  0.80666  0.08163  0.37304  1.0000
  C   C216      1.0  0.79935  0.07685  0.33317  1.0000
  C   C217      1.0  0.76418  0.07035  0.32058  1.0000
  C   C218      1.0  0.73663  0.06677  0.34792  1.0000
  H   H335      1.0  0.78519  0.08027  0.43112  1.0000
  H   H336      1.0  0.83362  0.08821  0.38278  1.0000
  H   H337      1.0  0.75822  0.06760  0.28985  1.0000
  H   H338      1.0  0.70960  0.06095  0.33810  1.0000
  H   H339      1.0  0.71355  0.14684  0.54759  1.0000
  C   C219      1.0  0.65140  0.94826  0.46056  1.0000
  H   H340      1.0  0.63104  0.03804  0.45459  1.0000
  C   C220      1.0  0.66108  0.04858  0.17595  1.0000
  C   C221      1.0  0.66387  0.09721  0.17174  1.0000
  H   H341      1.0  0.83089  0.88310  0.41235  1.0000
  H   H342      1.0  0.68464  0.02750  0.18187  1.0000
  H   H343      1.0  0.63558  0.16193  0.16034  1.0000
  H   H344      1.0  0.67281  0.94937  0.43826  1.0000
  H   H345      1.0  0.62532  0.93483  0.38857  1.0000
  H   H346      1.0  0.66021  0.14381  0.29397  1.0000
  H   H347      1.0  0.64919  0.91149  0.47121  1.0000
  C   C222      1.0  0.83813  0.91594  0.42795  1.0000
  S   S92       1.0  0.67579  0.90710  0.55187  1.0000
  H   H348      1.0  0.62488  0.99003  0.17806  1.0000
  C   C223      1.0  0.71569  0.17414  0.56939  1.0000
  C   C224      1.0  0.62740  0.02742  0.17349  1.0000
  H   H349      1.0  0.64823  0.14784  0.08748  1.0000
  H   H350      1.0  0.63870  0.09552  0.34885  1.0000
  H   H351      1.0  0.69292  0.08390  0.09934  1.0000
  S   S93       1.0  0.81507  0.93430  0.13915  1.0000
  H   H352      1.0  0.60253  0.16430  0.32652  1.0000
  H   H353      1.0  0.83572  0.00953  0.43830  1.0000
  H   H354      1.0  0.61062  0.04247  0.25405  1.0000
  N   N19       1.0  0.61270  0.10181  0.29294  1.0000
  C   C225      1.0  0.60349  0.90620  0.56170  1.0000
  C   C226      1.0  0.62372  0.07385  0.32731  1.0000
  H   H355      1.0  0.63716  0.14281  0.24787  1.0000
  H   H356      1.0  0.60427  0.87186  0.54822  1.0000
  H   H357      1.0  0.64142  0.01613  0.40701  1.0000
  C   C227      1.0  0.62146  0.01450  0.43081  1.0000
  H   H358      1.0  0.81418  0.92837  0.44413  1.0000
  H   H359      1.0  0.79843  0.97734  0.38551  1.0000
  C   C228      1.0  0.82293  0.96282  0.37157  1.0000
  H   H360      1.0  0.59878  0.98635  0.50198  1.0000
  H   H361      1.0  0.81515  0.93098  0.35489  1.0000
  H   H362      1.0  0.84728  0.86038  0.09492  1.0000
  C   C229      1.0  0.83877  0.17255  0.08238  1.0000
  H   H363      1.0  0.60067  0.02950  0.60957  1.0000
  H   H364      1.0  0.82717  0.02409  0.58398  1.0000
  C   C230      1.0  0.82780  0.13839  0.05571  1.0000
  N   N20       1.0  0.69273  0.13127  0.05068  1.0000
  C   C231      1.0  0.71679  0.16460  0.07058  1.0000
  C   C232      1.0  0.73051  0.16403  0.60601  1.0000
  H   H365      1.0  0.68392  0.10420  0.99281  1.0000
  H   H366      1.0  0.78804  0.13949  0.68479  1.0000
  H   H367      1.0  0.67950  0.05801  0.05399  1.0000
  S   S94       1.0  0.74684  0.10787  0.61722  1.0000
  H   H368      1.0  0.74490  0.15196  0.07021  1.0000
  H   H369      1.0  0.83863  0.12230  0.61819  1.0000
  C   C233      1.0  0.81646  0.13135  0.69151  1.0000
  H   H370      1.0  0.69646  0.16481  0.99471  1.0000
  H   H371      1.0  0.72570  0.07095  0.06317  1.0000
  C   C234      1.0  0.60132  0.99508  0.59629  1.0000
  H   H372      1.0  0.83624  0.10232  0.05950  1.0000
  C   C235      1.0  0.80595  0.15092  0.02406  1.0000
  C   C236      1.0  0.69790  0.08391  0.06744  1.0000
  H   H373      1.0  0.82005  0.13351  0.72368  1.0000
  H   H374      1.0  0.74413  0.19179  0.66255  1.0000
  H   H375      1.0  0.82100  0.09422  0.68272  1.0000
  C   C237      1.0  0.70089  0.12989  0.00858  1.0000
  N   N21       1.0  0.84070  0.16345  0.67088  1.0000
  H   H376      1.0  0.72928  0.12007  0.00345  1.0000
  C   C238      1.0  0.63416  0.97427  0.58682  1.0000
  C   C239      1.0  0.73334  0.19951  0.63401  1.0000
  H   H377      1.0  0.80753  0.17008  0.61974  1.0000
  H   H378      1.0  0.65071  0.18244  0.04390  1.0000
  C   C240      1.0  0.83503  0.15916  0.62830  1.0000
  C   C241      1.0  0.65534  0.14667  0.05606  1.0000
  H   H379      1.0  0.82485  0.87363  0.63135  1.0000
  C   C242      1.0  0.79398  0.19732  0.01979  1.0000
  H   H380      1.0  0.63638  0.12240  0.04143  1.0000
  H   H381      1.0  0.84124  0.89314  0.58510  1.0000
  H   H382      1.0  0.83390  0.79076  0.60911  1.0000
  H   H383      1.0  0.65866  0.99229  0.59361  1.0000
  H   H384      1.0  0.79769  0.12446  0.00334  1.0000
  H   H385      1.0  0.71613  0.19972  0.05642  1.0000
  S   S95       1.0  0.75976  0.98345  0.57958  1.0000
  H   H386      1.0  0.91145  0.49074  0.44094  1.0000
  H   H387      1.0  0.89914  0.46681  0.39427  1.0000
  C   C243      1.0  0.95739  0.59254  0.34138  1.0000
  S   S96       1.0  0.90507  0.47013  0.24818  1.0000
  H   H388      1.0  0.05614  0.62398  0.35493  1.0000
  S   S97       1.0  0.99925  0.49994  0.21447  1.0000
  C   C244      1.0  0.92791  0.57967  0.31860  1.0000
  C   C245      1.0  0.89567  0.61813  0.08499  1.0000
  S   S98       1.0  0.90999  0.48307  0.15238  1.0000
  H   H389      1.0  0.07050  0.64749  0.40073  1.0000
  H   H390      1.0  0.05637  0.57209  0.43313  1.0000
  Fe  Fe49      1.0  0.94656  0.53929  0.52309  1.0000
  H   H391      1.0  0.98403  0.58341  0.33188  1.0000
  Fe  Fe50      1.0  0.87185  0.45302  0.19566  1.0000
  H   H392      1.0  0.89160  0.29513  0.17769  1.0000
  H   H393      1.0  0.07810  0.60946  0.07935  1.0000
  Fe  Fe51      1.0  0.87489  0.53824  0.24843  1.0000
  C   C246      1.0  0.88837  0.61560  0.36578  1.0000
  H   H394      1.0  0.06177  0.49938  0.50415  1.0000
  S   S99       1.0  0.91299  0.57583  0.20988  1.0000
  N   N22       1.0  0.09360  0.58043  0.38629  1.0000
  Fe  Fe52      1.0  0.94042  0.50611  0.20539  1.0000
  H   H395      1.0  0.93205  0.56030  0.29189  1.0000
  H   H396      1.0  0.93121  0.56099  0.09983  1.0000
  H   H397      1.0  0.86698  0.53360  0.48024  1.0000
  H   H398      1.0  0.90262  0.52895  0.40053  1.0000
  C   C247      1.0  0.89338  0.59112  0.33077  1.0000
  C   C248      1.0  0.96124  0.68544  0.20313  1.0000
  C   C249      1.0  0.87404  0.27608  0.25195  1.0000
  Fe  Fe53      1.0  0.95461  0.63900  0.54915  1.0000
  N   N23       1.0  0.87095  0.24444  0.21793  1.0000
  H   H399      1.0  0.91392  0.64582  0.41635  1.0000
  H   H400      1.0  0.98391  0.56570  0.15205  1.0000
  C   C250      1.0  0.02209  0.54892  0.19722  1.0000
  C   C251      1.0  0.05424  0.56141  0.21502  1.0000
  S   S100      1.0  0.97159  0.57093  0.57625  1.0000
  Fe  Fe54      1.0  0.87884  0.54969  0.16093  1.0000
  S   S101      1.0  0.85163  0.38035  0.18414  1.0000
  C   C252      1.0  0.00876  0.57542  0.16591  1.0000
  H   H401      1.0  0.08246  0.54927  0.33042  1.0000
  C   C253      1.0  0.06535  0.55384  0.40614  1.0000
  H   H402      1.0  0.90135  0.27488  0.26477  1.0000
  C   C254      1.0  0.89674  0.25856  0.18776  1.0000
  H   H403      1.0  0.85484  0.26652  0.27520  1.0000
  S   S102      1.0  0.99677  0.53959  0.48818  1.0000
  C   C255      1.0  0.92794  0.59324  0.08363  1.0000
  S   S103      1.0  0.07604  0.56960  0.56312  1.0000
  H   H404      1.0  0.89505  0.23551  0.16159  1.0000
  H   H405      1.0  0.06436  0.54128  0.23949  1.0000
  C   C256      1.0  0.06084  0.62554  0.16933  1.0000
  H   H406      1.0  0.88634  0.55973  0.56370  1.0000
  C   C257      1.0  0.02825  0.61367  0.15182  1.0000
  Fe  Fe55      1.0  0.02035  0.57764  0.53930  1.0000
  C   C258      1.0  0.90378  0.69118  0.17124  1.0000
  S   S104      1.0  0.91257  0.47518  0.52680  1.0000
  C   C259      1.0  0.85039  0.53804  0.45355  1.0000
  S   S105      1.0  0.00586  0.64909  0.51706  1.0000
  H   H407      1.0  0.94876  0.67925  0.23205  1.0000
  H   H408      1.0  0.85266  0.41762  0.54543  1.0000
  H   H409      1.0  0.07481  0.51819  0.41462  1.0000
  S   S106      1.0  0.92557  0.60704  0.49846  1.0000
  Fe  Fe56      1.0  0.97856  0.61069  0.46861  1.0000
  S   S107      1.0  0.98926  0.62880  0.40625  1.0000
  C   C260      1.0  0.95233  0.61565  0.37694  1.0000
  H   H410      1.0  0.92464  0.25682  0.19887  1.0000
  H   H411      1.0  0.96088  0.68798  0.12461  1.0000
  H   H412      1.0  0.01829  0.63346  0.12712  1.0000
  C   C261      1.0  0.09003  0.50533  0.50536  1.0000
  S   S108      1.0  0.86023  0.59777  0.11315  1.0000
  H   H413      1.0  0.88939  0.68524  0.19909  1.0000
  C   C262      1.0  0.87336  0.48739  0.55253  1.0000
  H   H414      1.0  0.04139  0.54973  0.38712  1.0000
  H   H415      1.0  0.90783  0.65635  0.15739  1.0000
  C   C263      1.0  0.07958  0.62710  0.37486  1.0000
  H   H416      1.0  0.96624  0.65043  0.18982  1.0000
  H   H417      1.0  0.09746  0.61010  0.21614  1.0000
  C   C264      1.0  0.91782  0.62723  0.38918  1.0000
  H   H418      1.0  0.86840  0.31320  0.24363  1.0000
  C   C265      1.0  0.07325  0.60007  0.20148  1.0000
  N   N24       1.0  0.85586  0.49867  0.42606  1.0000
  H   H419      1.0  0.85797  0.57213  0.44027  1.0000
  S   S109      1.0  0.08651  0.67130  0.15039  1.0000
  S   S110      1.0  0.85635  0.57309  0.30335  1.0000
  H   H420      1.0  0.86267  0.44637  0.47062  1.0000
  C   C266      1.0  0.89390  0.49613  0.41495  1.0000
  H   H421      1.0  0.86173  0.62513  0.37499  1.0000
  C   C267      1.0  0.86692  0.53233  0.56747  1.0000
  H   H422      1.0  0.04950  0.61052  0.03692  1.0000
  C   C268      1.0  0.89959  0.43994  0.70185  1.0000
  C   C269      1.0  0.05972  0.69557  0.60373  1.0000
  C   C270      1.0  0.06789  0.63194  0.05511  1.0000
  S   S111      1.0  0.98719  0.67226  0.01145  1.0000
  H   H423      1.0  0.06411  0.66109  0.98097  1.0000
  H   H424      1.0  0.98069  0.58995  0.05906  1.0000
  H   H425      1.0  0.88006  0.50192  0.64709  1.0000
  H   H426      1.0  0.05417  0.65796  0.59761  1.0000
  H   H427      1.0  0.90991  0.43095  0.67232  1.0000
  C   C271      1.0  0.08240  0.68118  0.00036  1.0000
  H   H428      1.0  0.86687  0.67957  0.06546  1.0000
  C   C272      1.0  0.95203  0.65170  0.03986  1.0000
  C   C273      1.0  0.89177  0.66015  0.06429  1.0000
  H   H429      1.0  0.88912  0.53314  0.69145  1.0000
  H   H430      1.0  0.87241  0.50798  0.06856  1.0000
  H   H431      1.0  0.92023  0.46142  0.71679  1.0000
  C   C274      1.0  0.95593  0.60963  0.06054  1.0000
  S   S112      1.0  0.93094  0.69325  0.58871  1.0000
  H   H432      1.0  0.05156  0.66042  0.06851  1.0000
  N   N25       1.0  0.09732  0.65133  0.03177  1.0000
  H   H433      1.0  0.89690  0.40654  0.71838  1.0000
  C   C275      1.0  0.92014  0.67731  0.04219  1.0000
  H   H434      1.0  0.87144  0.49922  0.75494  1.0000
  C   C276      1.0  0.86985  0.50924  0.67694  1.0000
  N   N26       1.0  0.86515  0.46539  0.69923  1.0000
  H   H435      1.0  0.86879  0.49430  0.01749  1.0000
  C   C277      1.0  0.85403  0.50872  0.04293  1.0000
  C   C278      1.0  0.85227  0.47662  0.73884  1.0000
  H   H436      1.0  0.85094  0.23754  0.66818  1.0000
  H   H437      1.0  0.07175  0.84333  0.10295  1.0000
  H   H438      1.0  0.08560  0.77895  0.19586  1.0000
  H   H439      1.0  0.93257  0.95109  0.08535  1.0000
  H   H440      1.0  0.01286  0.80963  0.53672  1.0000
  H   H441      1.0  0.90099  0.86880  0.56310  1.0000
  H   H442      1.0  0.98771  0.70181  0.20819  1.0000
  H   H443      1.0  0.90513  0.92688  0.40208  1.0000
  H   H444      1.0  0.91868  0.75647  0.22553  1.0000
  C   C279      1.0  0.07433  0.80376  0.17387  1.0000
  H   H445      1.0  0.93944  0.74429  0.12000  1.0000
  H   H446      1.0  0.87790  0.90239  0.36391  1.0000
  H   H447      1.0  0.89362  0.96157  0.36002  1.0000
  C   C280      1.0  0.87863  0.19565  0.23025  1.0000
  C   C281      1.0  0.86703  0.87314  0.11541  1.0000
  C   C282      1.0  0.88335  0.92430  0.16874  1.0000
  H   H448      1.0  0.93771  0.91784  0.18919  1.0000
  C   C283      1.0  0.91807  0.90538  0.16847  1.0000
  H   H449      1.0  0.05900  0.78231  0.15252  1.0000
  H   H450      1.0  0.87673  0.17090  0.20521  1.0000
  C   C284      1.0  0.85788  0.90869  0.14183  1.0000
  C   C285      1.0  0.97724  0.75735  0.55934  1.0000
  C   C286      1.0  0.92753  0.87119  0.14099  1.0000
  H   H451      1.0  0.88032  0.98842  0.44567  1.0000
  S   S113      1.0  0.86433  0.15626  0.12311  1.0000
  H   H452      1.0  0.87183  0.98627  0.09324  1.0000
  H   H453      1.0  0.05504  0.82747  0.18883  1.0000
  C   C287      1.0  0.90178  0.85457  0.11489  1.0000
  H   H454      1.0  0.88588  0.71184  0.15158  1.0000
  H   H455      1.0  0.92139  0.95057  0.54645  1.0000
  H   H456      1.0  0.85949  0.18358  0.25279  1.0000
  C   C288      1.0  0.90746  0.97160  0.56787  1.0000
  C   C289      1.0  0.00078  0.79510  0.56257  1.0000
  H   H457      1.0  0.87624  0.95050  0.19009  1.0000
  N   N27       1.0  0.93820  0.71484  0.17774  1.0000
  H   H458      1.0  0.08767  0.72191  0.53531  1.0000
  S   S114      1.0  0.97151  0.84940  0.13966  1.0000
  C   C290      1.0  0.87179  0.98466  0.56154  1.0000
  C   C291      1.0  0.95595  0.72196  0.13984  1.0000
  H   H459      1.0  0.85878  0.90687  0.45025  1.0000
  H   H460      1.0  0.97097  0.74295  0.53094  1.0000
  H   H461      1.0  0.92303  0.03753  0.08196  1.0000
  H   H462      1.0  0.91408  0.78346  0.17847  1.0000
  C   C292      1.0  0.93174  0.76067  0.19670  1.0000
  H   H463      1.0  0.06781  0.88809  0.13949  1.0000
  S   S115      1.0  0.85509  0.04536  0.19098  1.0000
  H   H464      1.0  0.95709  0.77996  0.20143  1.0000
  H   H465      1.0  0.90597  0.19203  0.24269  1.0000
  H   H466      1.0  0.90835  0.82697  0.09461  1.0000
  H   H467      1.0  0.98212  0.73953  0.14365  1.0000
  C   C293      1.0  0.08672  0.86294  0.12560  1.0000
  C   C294      1.0  0.88335  0.93494  0.38082  1.0000
  H   H468      1.0  0.86976  0.02326  0.40344  1.0000
  H   H469      1.0  0.85144  0.81099  0.56349  1.0000
  Fe  Fe57      1.0  0.98789  0.82741  0.07943  1.0000
  N   N28       1.0  0.85098  0.95223  0.40081  1.0000
  C   C295      1.0  0.85958  0.99528  0.42292  1.0000
  H   H470      1.0  0.96675  0.81431  0.92075  1.0000
  Fe  Fe58      1.0  0.05487  0.81423  0.03046  1.0000
  H   H471      1.0  0.94428  0.03849  0.03508  1.0000
  C   C296      1.0  0.84947  0.88250  0.61509  1.0000
  H   H472      1.0  0.04118  0.89078  0.85379  1.0000
  S   S116      1.0  0.02466  0.79284  0.97718  1.0000
  Fe  Fe59      1.0  0.99272  0.74978  0.01879  1.0000
  H   H473      1.0  0.06661  0.71084  0.01260  1.0000
  H   H474      1.0  0.85752  0.04581  0.64510  1.0000
  C   C297      1.0  0.99237  0.79607  0.63256  1.0000
  N   N29       1.0  0.90274  0.98744  0.04062  1.0000
  H   H475      1.0  0.99856  0.81051  0.66096  1.0000
  H   H476      1.0  0.85616  0.94776  0.05561  1.0000
  H   H477      1.0  0.09555  0.84169  0.77210  1.0000
  C   C298      1.0  0.00802  0.81474  0.59914  1.0000
  C   C299      1.0  0.96893  0.75827  0.62934  1.0000
  H   H478      1.0  0.88330  0.15322  0.71252  1.0000
  C   C300      1.0  0.06070  0.80309  0.83175  1.0000
  H   H479      1.0  0.91663  0.91439  0.04650  1.0000
  S   S117      1.0  0.97609  0.83954  0.78052  1.0000
  C   C301      1.0  0.92750  0.94971  0.05333  1.0000
  C   C302      1.0  0.96877  0.82539  0.85867  1.0000
  H   H480      1.0  0.95697  0.74368  0.65524  1.0000
  S   S118      1.0  0.02558  0.76741  0.07111  1.0000
  H   H481      1.0  0.97067  0.78837  0.85188  1.0000
  S   S119      1.0  0.03596  0.86318  0.60280  1.0000
  H   H482      1.0  0.90451  0.80010  0.65516  1.0000
  H   H483      1.0  0.91694  0.70961  0.02599  1.0000
  S   S120      1.0  0.95157  0.80563  0.03068  1.0000
  C   C303      1.0  0.96119  0.73916  0.59272  1.0000
  C   C304      1.0  0.96685  0.84006  0.89765  1.0000
  Fe  Fe60      1.0  0.98680  0.85096  0.99422  1.0000
  C   C305      1.0  0.85433  0.01280  0.58893  1.0000
  C   C306      1.0  0.96911  0.85852  0.82857  1.0000
  H   H484      1.0  0.87782  0.01113  0.98735  1.0000
  H   H485      1.0  0.04100  0.80297  0.85588  1.0000
  H   H486      1.0  0.05251  0.70261  0.63463  1.0000
  C   C307      1.0  0.86838  0.98265  0.06110  1.0000
  C   C308      1.0  0.89682  0.98378  0.99806  1.0000
  C   C309      1.0  0.87809  0.15102  0.68058  1.0000
  Fe  Fe61      1.0  0.97357  0.97975  0.68858  1.0000
  S   S121      1.0  0.92755  0.02789  0.67443  1.0000
  H   H487      1.0  0.96499  0.93189  0.81443  1.0000
  C   C310      1.0  0.92504  0.98504  0.60242  1.0000
  C   C311      1.0  0.88454  0.82921  0.65468  1.0000
  S   S122      1.0  0.99569  0.97320  0.74936  1.0000
  S   S123      1.0  0.02050  0.87670  0.04388  1.0000
  S   S124      1.0  0.96638  0.90255  0.68027  1.0000
  H   H488      1.0  0.95250  0.97458  0.60745  1.0000
  C   C312      1.0  0.90742  0.85666  0.59318  1.0000
  H   H489      1.0  0.07698  0.77039  0.83405  1.0000
  C   C313      1.0  0.96582  0.90624  0.83746  1.0000
  Fe  Fe62      1.0  0.02184  0.90377  0.65658  1.0000
  H   H490      1.0  0.89624  0.85919  0.67100  1.0000
  C   C314      1.0  0.96453  0.88787  0.90653  1.0000
  C   C315      1.0  0.96339  0.92092  0.87641  1.0000
  S   S125      1.0  0.02698  0.98196  0.65971  1.0000
  H   H491      1.0  0.08645  0.78089  0.58840  1.0000
  H   H492      1.0  0.04437  0.88680  0.80186  1.0000
  C   C316      1.0  0.90700  0.01198  0.63034  1.0000
  H   H493      1.0  0.96122  0.95792  0.88317  1.0000
  H   H494      1.0  0.07639  0.92038  0.82859  1.0000
  C   C317      1.0  0.87176  0.02596  0.62336  1.0000
  C   C318      1.0  0.91828  0.03363  0.05001  1.0000
  H   H495      1.0  0.04528  0.80127  0.80389  1.0000
  S   S126      1.0  0.04799  0.88981  0.71417  1.0000
  N   N30       1.0  0.87499  0.84265  0.61430  1.0000
  H   H496      1.0  0.09815  0.76417  0.63719  1.0000
  Fe  Fe63      1.0  0.99289  0.89567  0.73861  1.0000
  Fe  Fe64      1.0  0.04871  0.96815  0.71979  1.0000
  H   H497      1.0  0.95366  0.95215  0.03826  1.0000
  N   N31       1.0  0.08322  0.84537  0.83325  1.0000
  H   H498      1.0  0.90024  0.06293  0.04088  1.0000
  H   H499      1.0  0.92153  0.88555  0.60846  1.0000
  C   C319      1.0  0.06041  0.88772  0.82927  1.0000
  S   S127      1.0  0.96420  0.90671  0.95516  1.0000
  N   N32       1.0  0.09735  0.70711  0.59592  1.0000
  C   C320      1.0  0.85861  0.80223  0.59419  1.0000
  H   H500      1.0  0.92221  0.98788  0.98173  1.0000
  H   H501      1.0  0.87725  0.77150  0.59339  1.0000
  H   H502      1.0  0.92667  0.82707  0.59059  1.0000
  H   H503      1.0  0.88478  0.11451  0.67143  1.0000
  H   H504      1.0  0.86083  0.81733  0.67119  1.0000
  H   H505      1.0  0.89722  0.17454  0.66572  1.0000
  H   H506      1.0  0.88598  0.94883  0.98985  1.0000
  H   H507      1.0  0.08349  0.84727  0.89600  1.0000
  H   H508      1.0  0.86144  0.91391  0.62928  1.0000
  H   H509      1.0  0.09586  0.87339  0.97505  1.0000
  H   H510      1.0  0.85387  0.18136  0.61171  1.0000
  H   H511      1.0  0.84874  0.00994  0.05175  1.0000
  S   S128      1.0  0.09724  0.00489  0.74285  1.0000
  H   H512      1.0  0.04135  0.71666  0.58514  1.0000
