data_image0
_chemical_formula_structural       FeCSFeCSC3HSC2H4SFeC2HCH2SCHC2H2SNHSC6H5CHCH3FeC2SCH2FeHNHCH2CNHSH11CFeS2HSHCFeH3C6H4C2H3CFeNSC3S2H2CH5SHCSH5CH6SC2FeSFeSC4HCFeH4CSCHC2HNH3FeH2CH4CS2C3H2SH2NFeC2HCHCH5S2H2C2HC2SHC7HFeH5SHSCSHNH2CSH9SCHCFeCH2SH2CHCH2CH2SFeHSFe2HS3CHCHCHCHC6H5SH2CH3CHC2H3NHFeHN2H2CHCFeS2FeS2FeH2S2HC2SCH2C2HC4H6CHC2H2CHFeHSCHC2HC2H4CH2SHFe2S2FeSCFeSFeS3FeHSFeSC3S2H3NCH4C6H6C4H3CH2NHCSHC2HSHS2H3FeHNH3NCHCHCH6C3SH3CH3CHC2HC2HCH4NHFeH4CNH2Fe2HS2C2NCHCSH2SC2HC3SNSCH2SCHCSC2HC2FeH2C2H3CFeCNH2SCH2CH7FeHCHC2HFeH2SH2CH5C2H2NH5SH2CFeHFeS2CS2FeSFeSH2CSHCHC3H2C9H9CHSHNHCHCH2CHC3FeH5C3SC2SCH4SH2CHCH2CSH3CNCHSCHFeHC6H3FeSH2SFeSNH3CH2CH2FeHCHCH3CH4CH5CH3CH3CHC2SHSC6H5C2H2NSH2CH7NCH2CH3FeCFeH4CH2NH10FeH3CHC2H3SHSNCHCFeSCSFeSFeS2H3C6HFeSHSCH3CNHCHSCH2CHCH2CSFeS2CSHFeHCSHSCHCHC6H8CH2CHSH5FeCSH3C3H3NC3HC2NC2HCSH2FeCH3FeS2FeS2H2FeSHSNH6SHS2C6HSH2CFeC5H3CHS2FeC2H3FeHSHC2HCH4C3H6CH3CHSH5NH2CH2C2HSNH2C2FeC2FeHFeH2C2HSH2SC2H3CNSCH2SC2H2SCHCH2C3H4SH2C2H4CNCH2CH2C2S2C3HFeC2H8FeCSFeH3FeHC3SH2CNHC2H5SCHC2FeS2FeH2FeSFeHS2H3C3H2C2H2C5HCHSH2CHSH3SH2NH2CHC2H7CH5CHCH2C4HC2H3NHCH8S2C2SHCHC2HFeC2H2CH3CHC2HN2H2NCH4SCHCSC2H3CH4C2SCH4SHC2H3FeS2H4C3H2CH5Fe2NHCSHCH3CHSH2SFeHSCH2C3H2CH2SH4CSH2C2FeH4NCNH2SHCHCH2C7HCH2CHS2HCHCHSH2FeHSH6CHCSCSCFeSHSHS2FeSFeSCHC6H5C2H2CHSHCH6FeHCHC2HSH4FeH3CHFeS3FeHFeSFeS2HSFeH2FeHFeS3HC6H4C6HCH8CH3FeH3C2HCNHCHCSHC3NCH2FeSH3SCNC3H2C2HNH3CHSHCHCH3C2SCH3SHSHC2SHFeSFeSHS2H3CHC2H2SCH2C2FeC3NH4CHCSCHCH4C2H3CNHCHFeHCNHCHSCH2CFeCH4C2HSH4C2HCH2CHSCHC2HC2HC2H3CHCFeH5CHFeC2NCHNC2H2CFeSFeCSHCS2C3SHSCH3SCNHCH3CH5C3HSHC2H5SH4NC6H3CHCH2NC2SH3C3H7CHFeHSCSH9CFeH3C2H2CH3C2FeCSH2CH2CS2C7H7CS2H5NHNHSH4CFeHC2HSH2SHSH2FeCSH2FeHSH2SCH2SCH2SFeSH3FeC6H4CNCH2CH2C2FeH3CH2NCHCH2CH4CHCHFeSFeSHSFeS2FeS2Fe2S2H2SHC6H3C2NHC3H2CNCHC4H3CHCSHFeHCHSH2SHCH2CFeSCSFeHSFeHNHNS2H2SH2FeHFeH3C4HCH4C6H3SH3C3HSHFeHSHCH2FeCSH2C2H4CS2H4CH
_chemical_formula_sum              "Fe128 C640 S256 H1024 N64"
_cell_length_a       40.587
_cell_length_b       49.3851
_cell_length_c       46.3983
_cell_angle_alpha    88.3097
_cell_angle_beta     90.7284
_cell_angle_gamma    90.9919

_space_group_name_H-M_alt    "P 1"
_space_group_IT_number       1

loop_
  _space_group_symop_operation_xyz
  'x, y, z'

loop_
  _atom_site_type_symbol
  _atom_site_label
  _atom_site_symmetry_multiplicity
  _atom_site_fract_x
  _atom_site_fract_y
  _atom_site_fract_z
  _atom_site_occupancy
  Fe  Fe1       1.0  0.48116  0.29864  0.25423  1.0000
  C   C1        1.0  0.35836  0.21137  0.17024  1.0000
  S   S1        1.0  0.52130  0.27737  0.27931  1.0000
  Fe  Fe2       1.0  0.41259  0.29952  0.22688  1.0000
  C   C2        1.0  0.55712  0.27494  0.25878  1.0000
  S   S2        1.0  0.36834  0.27360  0.21631  1.0000
  C   C3        1.0  0.55511  0.26741  0.22998  1.0000
  C   C4        1.0  0.47007  0.31660  0.34143  1.0000
  C   C5        1.0  0.32617  0.21673  0.12642  1.0000
  H   H1        1.0  0.49860  0.27170  0.39235  1.0000
  S   S3        1.0  0.43072  0.30069  0.27271  1.0000
  C   C6        1.0  0.36047  0.32629  0.34243  1.0000
  C   C7        1.0  0.30011  0.20070  0.17036  1.0000
  H   H2        1.0  0.45667  0.25035  0.36016  1.0000
  H   H3        1.0  0.30066  0.15709  0.54545  1.0000
  H   H4        1.0  0.30263  0.18872  0.19094  1.0000
  H   H5        1.0  0.34554  0.32695  0.12748  1.0000
  S   S4        1.0  0.15331  0.22258  0.15426  1.0000
  Fe  Fe3       1.0  0.18615  0.24162  0.12070  1.0000
  C   C8        1.0  0.11470  0.23807  0.15453  1.0000
  C   C9        1.0  0.26637  0.11831  0.12510  1.0000
  H   H6        1.0  0.23581  0.14232  0.15167  1.0000
  C   C10       1.0  0.56914  0.32495  0.51395  1.0000
  H   H7        1.0  0.36051  0.17070  0.13319  1.0000
  H   H8        1.0  0.50720  0.30724  0.38883  1.0000
  S   S5        1.0  0.46281  0.29279  0.20900  1.0000
  C   C11       1.0  0.24947  0.14172  0.13181  1.0000
  H   H9        1.0  0.38188  0.21108  0.15821  1.0000
  C   C12       1.0  0.44197  0.29789  0.38325  1.0000
  C   C13       1.0  0.23025  0.08741  0.60140  1.0000
  H   H10       1.0  0.34050  0.15874  0.16567  1.0000
  H   H11       1.0  0.28109  0.28457  0.59327  1.0000
  S   S6        1.0  0.24126  0.23880  0.12259  1.0000
  N   N1        1.0  0.28881  0.32096  0.56740  1.0000
  H   H12       1.0  0.23644  0.15008  0.48771  1.0000
  S   S7        1.0  0.26389  0.08971  0.14810  1.0000
  C   C14       1.0  0.34314  0.28688  0.18849  1.0000
  C   C15       1.0  0.35570  0.30510  0.16753  1.0000
  C   C16       1.0  0.33561  0.31361  0.14418  1.0000
  C   C17       1.0  0.30304  0.30395  0.14183  1.0000
  C   C18       1.0  0.29041  0.28618  0.16310  1.0000
  C   C19       1.0  0.31043  0.27765  0.18634  1.0000
  H   H13       1.0  0.28105  0.18409  0.52547  1.0000
  H   H14       1.0  0.13373  0.27844  0.14606  1.0000
  H   H15       1.0  0.26500  0.27936  0.16195  1.0000
  H   H16       1.0  0.30050  0.26402  0.20286  1.0000
  H   H17       1.0  0.53152  0.26177  0.22060  1.0000
  C   C20       1.0  0.30119  0.29912  0.58693  1.0000
  H   H18       1.0  0.29384  0.22175  0.17590  1.0000
  C   C21       1.0  0.11188  0.26599  0.14920  1.0000
  H   H19       1.0  0.44719  0.31672  0.39521  1.0000
  H   H20       1.0  0.48903  0.31357  0.32472  1.0000
  H   H21       1.0  0.55898  0.32430  0.22813  1.0000
  Fe  Fe4       1.0  0.36774  0.31629  0.44155  1.0000
  C   C22       1.0  0.57612  0.31756  0.48584  1.0000
  C   C23       1.0  0.08635  0.22222  0.15966  1.0000
  S   S8        1.0  0.41682  0.30805  0.51322  1.0000
  C   C24       1.0  0.45865  0.26857  0.34556  1.0000
  H   H22       1.0  0.37658  0.33176  0.29851  1.0000
  H   H23       1.0  0.27080  0.11218  0.55162  1.0000
  Fe  Fe5       1.0  0.12104  0.20539  0.60970  1.0000
  H   H24       1.0  0.08843  0.20068  0.16406  1.0000
  N   N2        1.0  0.46760  0.29304  0.36172  1.0000
  H   H25       1.0  0.44027  0.28094  0.39955  1.0000
  C   C25       1.0  0.49970  0.28909  0.37652  1.0000
  H   H26       1.0  0.51951  0.28512  0.36086  1.0000
  H   H27       1.0  0.29347  0.29818  0.52915  1.0000
  C   C26       1.0  0.33759  0.17192  0.14594  1.0000
  N   N3        1.0  0.33055  0.20016  0.15323  1.0000
  H   H28       1.0  0.35404  0.23276  0.17566  1.0000
  S   S9        1.0  0.13631  0.24574  0.59021  1.0000
  H   H29       1.0  0.31728  0.16296  0.13283  1.0000
  H   H30       1.0  0.27866  0.19217  0.15832  1.0000
  H   H31       1.0  0.38110  0.31197  0.16892  1.0000
  H   H32       1.0  0.32052  0.23815  0.13116  1.0000
  H   H33       1.0  0.12007  0.10338  0.60066  1.0000
  H   H34       1.0  0.58194  0.26170  0.19084  1.0000
  H   H35       1.0  0.47734  0.26444  0.32891  1.0000
  H   H36       1.0  0.23289  0.17956  0.55982  1.0000
  H   H37       1.0  0.43450  0.27093  0.33416  1.0000
  H   H38       1.0  0.22437  0.17888  0.50756  1.0000
  H   H39       1.0  0.34368  0.30972  0.33760  1.0000
  C   C27       1.0  0.23735  0.15742  0.56028  1.0000
  Fe  Fe6       1.0  0.18138  0.22431  0.57593  1.0000
  S   S10       1.0  0.20270  0.23045  0.53158  1.0000
  S   S11       1.0  0.16315  0.18339  0.59114  1.0000
  H   H40       1.0  0.57598  0.31888  0.19315  1.0000
  S   S12       1.0  0.27857  0.31347  0.11183  1.0000
  H   H41       1.0  0.36198  0.19988  0.19101  1.0000
  C   C28       1.0  0.28301  0.16167  0.52747  1.0000
  Fe  Fe7       1.0  0.43501  0.30682  0.46786  1.0000
  H   H42       1.0  0.25454  0.15283  0.57860  1.0000
  H   H43       1.0  0.22984  0.10829  0.53749  1.0000
  H   H44       1.0  0.20254  0.14725  0.51234  1.0000
  C   C29       1.0  0.31415  0.24408  0.52821  1.0000
  C   C30       1.0  0.29459  0.24955  0.50376  1.0000
  C   C31       1.0  0.26031  0.24522  0.50489  1.0000
  C   C32       1.0  0.24557  0.23584  0.53054  1.0000
  C   C33       1.0  0.26533  0.23030  0.55483  1.0000
  C   C34       1.0  0.29952  0.23411  0.55358  1.0000
  H   H45       1.0  0.30586  0.25713  0.48402  1.0000
  H   H46       1.0  0.24520  0.24941  0.48594  1.0000
  H   H47       1.0  0.25457  0.22241  0.57444  1.0000
  H   H48       1.0  0.31466  0.22967  0.57245  1.0000
  C   C35       1.0  0.25397  0.11883  0.53372  1.0000
  C   C36       1.0  0.22746  0.15648  0.50897  1.0000
  H   H49       1.0  0.29409  0.15486  0.50717  1.0000
  H   H50       1.0  0.41721  0.29996  0.37292  1.0000
  H   H51       1.0  0.24269  0.32252  0.58964  1.0000
  C   C37       1.0  0.51787  0.30996  0.47614  1.0000
  Fe  Fe8       1.0  0.37399  0.28318  0.49732  1.0000
  N   N4        1.0  0.25048  0.14860  0.53260  1.0000
  S   S13       1.0  0.39500  0.27835  0.45335  1.0000
  C   C38       1.0  0.19962  0.09966  0.60343  1.0000
  C   C39       1.0  0.51078  0.31751  0.50420  1.0000
  C   C40       1.0  0.55060  0.30981  0.46709  1.0000
  S   S14       1.0  0.48636  0.30244  0.45127  1.0000
  S   S15       1.0  0.35672  0.25014  0.52811  1.0000
  H   H52       1.0  0.21343  0.14712  0.56522  1.0000
  H   H53       1.0  0.26396  0.11129  0.51331  1.0000
  C   C41       1.0  0.24910  0.16394  0.11230  1.0000
  H   H54       1.0  0.23502  0.18154  0.11714  1.0000
  H   H55       1.0  0.55626  0.30407  0.44540  1.0000
  H   H56       1.0  0.48564  0.31781  0.51132  1.0000
  H   H57       1.0  0.25426  0.29424  0.54639  1.0000
  H   H58       1.0  0.44629  0.32002  0.32994  1.0000
  S   S16       1.0  0.34187  0.31782  0.39846  1.0000
  H   H59       1.0  0.34872  0.21698  0.11303  1.0000
  C   C42       1.0  0.27450  0.30904  0.54114  1.0000
  S   S17       1.0  0.34285  0.31867  0.48440  1.0000
  H   H60       1.0  0.33652  0.32852  0.54875  1.0000
  H   H61       1.0  0.17866  0.09174  0.59156  1.0000
  H   H62       1.0  0.26431  0.32483  0.52609  1.0000
  H   H63       1.0  0.32068  0.28731  0.57646  1.0000
  H   H64       1.0  0.30557  0.20871  0.11288  1.0000
  C   C43       1.0  0.53643  0.32480  0.52319  1.0000
  H   H65       1.0  0.15048  0.12828  0.11127  1.0000
  H   H66       1.0  0.53090  0.33062  0.54488  1.0000
  H   H67       1.0  0.31194  0.30745  0.60710  1.0000
  H   H68       1.0  0.11407  0.13766  0.61160  1.0000
  H   H69       1.0  0.11923  0.09738  0.68075  1.0000
  H   H70       1.0  0.14296  0.09171  0.64919  1.0000
  S   S18       1.0  0.14519  0.21216  0.65257  1.0000
  C   C44       1.0  0.19656  0.12282  0.61993  1.0000
  C   C45       1.0  0.25756  0.09788  0.61632  1.0000
  Fe  Fe9       1.0  0.18873  0.19317  0.63259  1.0000
  S   S19       1.0  0.22035  0.16235  0.65527  1.0000
  Fe  Fe10      1.0  0.16420  0.25094  0.63189  1.0000
  S   S20       1.0  0.16162  0.29109  0.65378  1.0000
  C   C46       1.0  0.20031  0.30742  0.65731  1.0000
  C   C47       1.0  0.26013  0.30645  0.65601  1.0000
  C   C48       1.0  0.22376  0.13312  0.63514  1.0000
  C   C49       1.0  0.22946  0.29299  0.65500  1.0000
  H   H71       1.0  0.22852  0.27135  0.65321  1.0000
  C   C50       1.0  0.25416  0.12039  0.63365  1.0000
  Fe  Fe11      1.0  0.23579  0.22468  0.07742  1.0000
  H   H72       1.0  0.12784  0.10074  0.07085  1.0000
  H   H73       1.0  0.24991  0.32512  0.05393  1.0000
  H   H74       1.0  0.27525  0.12836  0.64535  1.0000
  H   H75       1.0  0.13668  0.12565  0.66071  1.0000
  C   C51       1.0  0.12460  0.10535  0.65859  1.0000
  S   S21       1.0  0.26552  0.19044  0.06170  1.0000
  C   C52       1.0  0.28379  0.13984  0.08002  1.0000
  H   H76       1.0  0.16331  0.16582  0.04135  1.0000
  C   C53       1.0  0.26629  0.16302  0.08642  1.0000
  C   C54       1.0  0.20171  0.32232  0.95065  1.0000
  H   H77       1.0  0.21631  0.11749  0.08220  1.0000
  N   N5        1.0  0.09431  0.10691  0.64060  1.0000
  H   H78       1.0  0.28254  0.29510  0.65424  1.0000
  H   H79       1.0  0.24020  0.29391  0.96054  1.0000
  H   H80       1.0  0.09252  0.29922  0.66915  1.0000
  Fe  Fe12      1.0  0.18514  0.26702  0.06090  1.0000
  H   H81       1.0  0.17324  0.13274  0.62097  1.0000
  H   H82       1.0  0.14349  0.10596  0.03532  1.0000
  C   C55       1.0  0.15359  0.31860  0.98115  1.0000
  H   H83       1.0  0.12962  0.32576  0.98704  1.0000
  H   H84       1.0  0.11862  0.13156  0.05073  1.0000
  H   H85       1.0  0.20405  0.15988  0.05510  1.0000
  H   H86       1.0  0.29710  0.13907  0.06000  1.0000
  C   C56       1.0  0.18142  0.14968  0.04660  1.0000
  S   S22       1.0  0.14926  0.28516  0.02881  1.0000
  S   S23       1.0  0.24011  0.26612  0.05693  1.0000
  C   C57       1.0  0.16852  0.29786  0.99752  1.0000
  C   C58       1.0  0.19934  0.28848  0.98958  1.0000
  C   C59       1.0  0.21592  0.30066  0.96610  1.0000
  H   H87       1.0  0.18824  0.14015  0.02611  1.0000
  H   H88       1.0  0.28128  0.08843  0.61467  1.0000
  S   S24       1.0  0.18066  0.22397  0.07697  1.0000
  H   H89       1.0  0.21047  0.27185  0.00151  1.0000
  H   H90       1.0  0.19913  0.09743  0.05403  1.0000
  N   N6        1.0  0.16812  0.12942  0.06769  1.0000
  Fe  Fe13      1.0  0.24117  0.28057  0.10224  1.0000
  C   C60       1.0  0.13809  0.11646  0.05563  1.0000
  C   C61       1.0  0.19302  0.10848  0.07380  1.0000
  H   H91       1.0  0.14129  0.15893  0.09090  1.0000
  C   C62       1.0  0.28370  0.11744  0.09929  1.0000
  H   H92       1.0  0.29708  0.09946  0.09419  1.0000
  C   C63       1.0  0.16006  0.14297  0.09466  1.0000
  H   H93       1.0  0.18428  0.09309  0.09011  1.0000
  H   H94       1.0  0.20784  0.32367  0.04141  1.0000
  H   H95       1.0  0.09488  0.31534  0.70316  1.0000
  H   H96       1.0  0.09651  0.30904  0.06292  1.0000
  H   H97       1.0  0.18219  0.15310  0.10416  1.0000
  S   S25       1.0  0.18634  0.28492  0.10472  1.0000
  S   S26       1.0  0.21044  0.23251  0.61605  1.0000
  H   H98       1.0  0.08628  0.25982  0.06367  1.0000
  H   H99       1.0  0.22930  0.32693  0.79014  1.0000
  C   C64       1.0  0.17019  0.33082  0.95775  1.0000
  C   C65       1.0  0.10265  0.11701  0.61123  1.0000
  H   H100      1.0  0.50022  0.39296  0.11742  1.0000
  C   C66       1.0  0.56223  0.33341  0.20613  1.0000
  C   C67       1.0  0.40776  0.37629  0.12942  1.0000
  S   S27       1.0  0.47139  0.48292  0.14934  1.0000
  H   H101      1.0  0.54516  0.47595  0.15448  1.0000
  C   C68       1.0  0.40079  0.42460  0.12324  1.0000
  C   C69       1.0  0.48396  0.39185  0.16144  1.0000
  C   C70       1.0  0.49198  0.40475  0.13519  1.0000
  C   C71       1.0  0.48839  0.43275  0.13151  1.0000
  C   C72       1.0  0.47734  0.44803  0.15422  1.0000
  C   C73       1.0  0.47047  0.43525  0.18088  1.0000
  C   C74       1.0  0.47336  0.40705  0.18440  1.0000
  H   H102      1.0  0.32744  0.34915  0.57864  1.0000
  Fe  Fe14      1.0  0.38733  0.34332  0.49713  1.0000
  H   H103      1.0  0.46199  0.44703  0.19856  1.0000
  H   H104      1.0  0.46708  0.39711  0.20476  1.0000
  H   H105      1.0  0.55366  0.37544  0.41505  1.0000
  H   H106      1.0  0.33706  0.41197  0.13211  1.0000
  H   H107      1.0  0.38720  0.36394  0.39847  1.0000
  S   S28       1.0  0.40926  0.34445  0.45308  1.0000
  H   H108      1.0  0.53618  0.40282  0.48641  1.0000
  S   S29       1.0  0.42659  0.37429  0.29958  1.0000
  C   C75       1.0  0.40372  0.36919  0.35470  1.0000
  S   S30       1.0  0.48760  0.34353  0.24873  1.0000
  H   H109      1.0  0.25253  0.35220  0.56774  1.0000
  N   N7        1.0  0.51872  0.39116  0.44456  1.0000
  H   H110      1.0  0.35894  0.38302  0.60480  1.0000
  H   H111      1.0  0.56774  0.39153  0.46301  1.0000
  C   C76       1.0  0.52773  0.37210  0.42209  1.0000
  S   S31       1.0  0.52826  0.54010  0.60247  1.0000
  H   H112      1.0  0.52548  0.35074  0.43019  1.0000
  H   H113      1.0  0.42030  0.38589  0.35946  1.0000
  H   H114      1.0  0.55661  0.37070  0.24654  1.0000
  H   H115      1.0  0.51139  0.37418  0.40275  1.0000
  H   H116      1.0  0.30837  0.35593  0.54406  1.0000
  H   H117      1.0  0.58093  0.57290  0.54684  1.0000
  H   H118      1.0  0.53733  0.33523  0.19626  1.0000
  H   H119      1.0  0.34208  0.37599  0.13649  1.0000
  H   H120      1.0  0.51446  0.43410  0.44938  1.0000
  S   S32       1.0  0.48603  0.35660  0.16437  1.0000
  C   C77       1.0  0.38451  0.56778  0.60603  1.0000
  H   H121      1.0  0.40894  0.42786  0.14591  1.0000
  C   C78       1.0  0.26323  0.33615  0.58216  1.0000
  Fe  Fe15      1.0  0.56962  0.51787  0.58294  1.0000
  C   C79       1.0  0.40097  0.36005  0.32647  1.0000
  H   H122      1.0  0.37322  0.44395  0.60897  1.0000
  H   H123      1.0  0.50359  0.42235  0.41415  1.0000
  S   S33       1.0  0.55330  0.47706  0.60041  1.0000
  H   H124      1.0  0.53971  0.36761  0.47961  1.0000
  H   H125      1.0  0.38390  0.44130  0.11684  1.0000
  C   C80       1.0  0.48465  0.38512  0.45399  1.0000
  H   H126      1.0  0.47639  0.39994  0.46988  1.0000
  C   C81       1.0  0.52085  0.41925  0.43275  1.0000
  H   H127      1.0  0.27353  0.34628  0.60147  1.0000
  H   H128      1.0  0.53917  0.58196  0.53911  1.0000
  C   C82       1.0  0.38532  0.35655  0.37686  1.0000
  H   H129      1.0  0.36148  0.39838  0.16155  1.0000
  H   H130      1.0  0.40445  0.43663  0.52745  1.0000
  S   S34       1.0  0.38377  0.38095  0.52284  1.0000
  Fe  Fe16      1.0  0.52460  0.47418  0.55892  1.0000
  H   H131      1.0  0.55940  0.37353  0.16643  1.0000
  S   S35       1.0  0.52505  0.43537  0.53487  1.0000
  Fe  Fe17      1.0  0.50147  0.53218  0.56098  1.0000
  Fe  Fe18      1.0  0.43570  0.34536  0.26421  1.0000
  H   H132      1.0  0.53551  0.38199  0.21419  1.0000
  S   S36       1.0  0.54446  0.51324  0.54010  1.0000
  S   S37       1.0  0.47898  0.49253  0.57572  1.0000
  S   S38       1.0  0.41318  0.34469  0.21971  1.0000
  C   C83       1.0  0.42432  0.39073  0.60197  1.0000
  H   H133      1.0  0.42524  0.56752  0.12241  1.0000
  C   C84       1.0  0.31643  0.33949  0.55937  1.0000
  H   H134      1.0  0.47048  0.57033  0.59835  1.0000
  C   C85       1.0  0.39118  0.43086  0.59821  1.0000
  H   H135      1.0  0.37159  0.55160  0.59385  1.0000
  C   C86       1.0  0.35499  0.39596  0.13834  1.0000
  H   H136      1.0  0.48250  0.36454  0.46441  1.0000
  C   C87       1.0  0.42302  0.39616  0.52548  1.0000
  C   C88       1.0  0.45125  0.38028  0.52579  1.0000
  C   C89       1.0  0.48251  0.39239  0.52910  1.0000
  C   C90       1.0  0.48567  0.42048  0.53163  1.0000
  C   C91       1.0  0.45748  0.43639  0.53091  1.0000
  C   C92       1.0  0.42617  0.42422  0.52817  1.0000
  H   H137      1.0  0.44906  0.35860  0.52401  1.0000
  H   H138      1.0  0.50421  0.37994  0.52977  1.0000
  H   H139      1.0  0.45977  0.45815  0.53158  1.0000
  H   H140      1.0  0.44633  0.40282  0.59479  1.0000
  H   H141      1.0  0.41295  0.44384  0.59236  1.0000
  S   S39       1.0  0.47351  0.56444  0.53655  1.0000
  H   H142      1.0  0.46685  0.38587  0.43555  1.0000
  H   H143      1.0  0.49419  0.44236  0.11107  1.0000
  C   C93       1.0  0.54163  0.38819  0.46943  1.0000
  H   H144      1.0  0.41520  0.37816  0.15249  1.0000
  H   H145      1.0  0.31914  0.57482  0.60255  1.0000
  H   H146      1.0  0.37954  0.42397  0.57775  1.0000
  C   C94       1.0  0.37922  0.33865  0.32034  1.0000
  H   H147      1.0  0.57298  0.39881  0.22551  1.0000
  C   C95       1.0  0.56034  0.37870  0.22410  1.0000
  C   C96       1.0  0.56752  0.48809  0.14833  1.0000
  H   H148      1.0  0.56312  0.50932  0.15454  1.0000
  H   H149      1.0  0.41284  0.38177  0.58247  1.0000
  H   H150      1.0  0.55656  0.44535  0.11420  1.0000
  N   N8        1.0  0.57966  0.35983  0.20718  1.0000
  H   H151      1.0  0.57347  0.42101  0.57613  1.0000
  Fe  Fe19      1.0  0.46485  0.33819  0.20507  1.0000
  H   H152      1.0  0.54621  0.42442  0.42526  1.0000
  N   N9        1.0  0.38465  0.39776  0.12014  1.0000
  N   N10       1.0  0.57408  0.48654  0.11714  1.0000
  H   H153      1.0  0.43072  0.37720  0.11652  1.0000
  H   H154      1.0  0.39663  0.35571  0.12716  1.0000
  C   C97       1.0  0.36382  0.33494  0.37082  1.0000
  H   H155      1.0  0.47639  0.33558  0.35272  1.0000
  C   C98       1.0  0.12937  0.36690  0.74775  1.0000
  Fe  Fe20      1.0  0.24639  0.42867  0.70805  1.0000
  S   S40       1.0  0.26979  0.39095  0.72574  1.0000
  S   S41       1.0  0.19409  0.43858  0.71844  1.0000
  Fe  Fe21      1.0  0.31025  0.44979  0.68154  1.0000
  S   S42       1.0  0.33917  0.41395  0.69761  1.0000
  S   S43       1.0  0.33193  0.48257  0.65259  1.0000
  Fe  Fe22      1.0  0.29489  0.39006  0.68316  1.0000
  H   H156      1.0  0.11055  0.41252  0.86613  1.0000
  H   H157      1.0  0.35227  0.40349  0.63529  1.0000
  S   S44       1.0  0.26776  0.42544  0.66396  1.0000
  S   S45       1.0  0.28629  0.45663  0.72387  1.0000
  H   H158      1.0  0.36274  0.37422  0.08636  1.0000
  C   C99       1.0  0.14015  0.41529  0.74378  1.0000
  C   C100      1.0  0.19678  0.37683  0.04274  1.0000
  S   S46       1.0  0.48702  0.48992  0.65951  1.0000
  C   C101      1.0  0.56106  0.54217  0.03710  1.0000
  H   H159      1.0  0.20035  0.38067  0.71132  1.0000
  H   H160      1.0  0.17857  0.36589  0.02893  1.0000
  C   C102      1.0  0.17826  0.38426  0.72327  1.0000
  C   C103      1.0  0.37476  0.48615  0.65601  1.0000
  H   H161      1.0  0.09950  0.48135  0.80891  1.0000
  C   C104      1.0  0.08954  0.38982  0.96673  1.0000
  C   C105      1.0  0.44378  0.49018  0.65898  1.0000
  C   C106      1.0  0.42609  0.47883  0.68224  1.0000
  C   C107      1.0  0.39152  0.47700  0.68086  1.0000
  H   H162      1.0  0.43917  0.47103  0.70111  1.0000
  H   H163      1.0  0.37795  0.46810  0.69880  1.0000
  H   H164      1.0  0.43996  0.51080  0.61767  1.0000
  H   H165      1.0  0.17976  0.34662  0.66420  1.0000
  H   H166      1.0  0.47406  0.57161  0.01614  1.0000
  H   H167      1.0  0.26046  0.35034  0.77707  1.0000
  C   C108      1.0  0.35335  0.55675  0.64896  1.0000
  H   H168      1.0  0.13309  0.43581  0.74806  1.0000
  C   C109      1.0  0.15833  0.36231  0.73270  1.0000
  C   C110      1.0  0.19077  0.36382  0.81363  1.0000
  H   H169      1.0  0.33719  0.56419  0.66611  1.0000
  H   H170      1.0  0.22453  0.35182  0.99866  1.0000
  C   C111      1.0  0.54581  0.49746  0.10052  1.0000
  H   H171      1.0  0.18659  0.37713  0.06488  1.0000
  Fe  Fe23      1.0  0.31139  0.41849  0.73871  1.0000
  H   H172      1.0  0.37688  0.37376  0.63926  1.0000
  S   S47       1.0  0.30014  0.35136  0.65979  1.0000
  C   C112      1.0  0.12044  0.39339  0.75344  1.0000
  H   H173      1.0  0.53241  0.56175  0.06894  1.0000
  C   C113      1.0  0.25279  0.37895  0.06095  1.0000
  C   C114      1.0  0.08766  0.46306  0.81915  1.0000
  H   H174      1.0  0.23388  0.37034  0.66652  1.0000
  C   C115      1.0  0.39238  0.49821  0.63320  1.0000
  C   C116      1.0  0.16920  0.41077  0.72888  1.0000
  H   H175      1.0  0.42291  0.42684  0.10937  1.0000
  H   H176      1.0  0.09865  0.39707  0.76567  1.0000
  H   H177      1.0  0.18513  0.34267  0.82124  1.0000
  H   H178      1.0  0.35790  0.41029  0.08180  1.0000
  C   C117      1.0  0.23401  0.34838  0.78312  1.0000
  H   H179      1.0  0.15793  0.42955  0.83658  1.0000
  H   H180      1.0  0.39849  0.42929  0.65630  1.0000
  S   S48       1.0  0.10482  0.33941  0.75979  1.0000
  H   H181      1.0  0.24193  0.37592  0.84921  1.0000
  Fe  Fe24      1.0  0.50898  0.49884  0.61592  1.0000
  Fe  Fe25      1.0  0.22200  0.44102  0.90523  1.0000
  S   S49       1.0  0.19227  0.45922  0.93967  1.0000
  S   S50       1.0  0.24159  0.46914  0.87078  1.0000
  Fe  Fe26      1.0  0.21308  0.38443  0.92982  1.0000
  S   S51       1.0  0.18298  0.39779  0.96685  1.0000
  C   C118      1.0  0.09386  0.42425  0.85142  1.0000
  Fe  Fe27      1.0  0.15785  0.42389  0.93323  1.0000
  S   S52       1.0  0.10359  0.42995  0.92599  1.0000
  Fe  Fe28      1.0  0.22045  0.43141  0.96965  1.0000
  S   S53       1.0  0.24020  0.44613  0.01202  1.0000
  S   S54       1.0  0.18536  0.40801  0.89590  1.0000
  S   S55       1.0  0.25295  0.41583  0.93550  1.0000
  Fe  Fe29      1.0  0.41968  0.47982  0.04988  1.0000
  H   H182      1.0  0.34551  0.50526  0.90025  1.0000
  S   S56       1.0  0.39487  0.44397  0.02936  1.0000
  Fe  Fe30      1.0  0.48192  0.51559  0.04631  1.0000
  S   S57       1.0  0.52773  0.52490  0.02083  1.0000
  C   C119      1.0  0.29685  0.45366  0.80192  1.0000
  C   C120      1.0  0.13966  0.44004  0.82230  1.0000
  C   C121      1.0  0.32012  0.50541  0.90905  1.0000
  S   S58       1.0  0.43124  0.51944  0.02695  1.0000
  S   S59       1.0  0.47053  0.53673  0.08669  1.0000
  H   H183      1.0  0.27645  0.50795  0.95234  1.0000
  H   H184      1.0  0.32164  0.44396  0.94389  1.0000
  H   H185      1.0  0.21626  0.40074  0.77626  1.0000
  N   N11       1.0  0.22585  0.36732  0.80597  1.0000
  C   C122      1.0  0.31017  0.42842  0.80907  1.0000
  H   H186      1.0  0.43786  0.43118  0.63909  1.0000
  H   H187      1.0  0.34950  0.45740  0.91715  1.0000
  H   H188      1.0  0.11564  0.38656  0.96838  1.0000
  H   H189      1.0  0.33541  0.51548  0.96447  1.0000
  C   C123      1.0  0.28319  0.44533  0.01691  1.0000
  C   C124      1.0  0.30207  0.42651  0.00279  1.0000
  C   C125      1.0  0.33632  0.42608  0.00708  1.0000
  C   C126      1.0  0.35192  0.44481  0.02502  1.0000
  C   C127      1.0  0.33312  0.46373  0.03908  1.0000
  C   C128      1.0  0.29873  0.46376  0.03527  1.0000
  H   H190      1.0  0.29040  0.41201  0.98886  1.0000
  H   H191      1.0  0.35083  0.41134  0.99626  1.0000
  H   H192      1.0  0.34500  0.47826  0.05296  1.0000
  H   H193      1.0  0.28420  0.47835  0.04629  1.0000
  H   H194      1.0  0.30263  0.46362  0.78158  1.0000
  H   H195      1.0  0.26610  0.35373  0.01197  1.0000
  C   C129      1.0  0.30376  0.41621  0.83609  1.0000
  C   C130      1.0  0.28241  0.42848  0.85515  1.0000
  C   C131      1.0  0.26866  0.45354  0.84765  1.0000
  C   C132      1.0  0.27639  0.46634  0.82129  1.0000
  H   H196      1.0  0.16527  0.34182  0.72808  1.0000
  H   H197      1.0  0.31449  0.39686  0.84184  1.0000
  H   H198      1.0  0.27661  0.41848  0.87551  1.0000
  C   C133      1.0  0.20207  0.33530  0.66202  1.0000
  H   H199      1.0  0.22727  0.41043  0.81226  1.0000
  H   H200      1.0  0.54938  0.49584  0.07687  1.0000
  N   N12       1.0  0.11076  0.44845  0.83870  1.0000
  H   H201      1.0  0.25801  0.39852  0.78862  1.0000
  C   C134      1.0  0.37096  0.39121  0.62444  1.0000
  S   S60       1.0  0.33192  0.41074  0.78343  1.0000
  H   H202      1.0  0.13231  0.42597  0.80499  1.0000
  C   C135      1.0  0.26181  0.33438  0.66001  1.0000
  C   C136      1.0  0.28264  0.48742  0.94502  1.0000
  H   H203      1.0  0.52270  0.48638  0.10626  1.0000
  S   S61       1.0  0.22483  0.34083  0.92499  1.0000
  H   H204      1.0  0.27752  0.36951  0.06134  1.0000
  S   S62       1.0  0.47179  0.47399  0.06494  1.0000
  S   S63       1.0  0.40308  0.49828  0.09072  1.0000
  H   H205      1.0  0.39694  0.39557  0.07528  1.0000
  H   H206      1.0  0.27887  0.47304  0.96361  1.0000
  H   H207      1.0  0.24220  0.34073  0.84072  1.0000
  Fe  Fe31      1.0  0.41888  0.53758  0.06915  1.0000
  H   H208      1.0  0.36606  0.49383  0.95018  1.0000
  N   N13       1.0  0.22926  0.36375  0.04269  1.0000
  H   H209      1.0  0.31461  0.52657  0.91475  1.0000
  H   H210      1.0  0.15259  0.45779  0.81189  1.0000
  H   H211      1.0  0.26436  0.48194  0.92801  1.0000
  N   N14       1.0  0.31672  0.48657  0.93424  1.0000
  C   C137      1.0  0.55669  0.55918  0.06034  1.0000
  H   H212      1.0  0.43311  0.37361  0.61601  1.0000
  C   C138      1.0  0.34003  0.49458  0.95734  1.0000
  H   H213      1.0  0.13425  0.48514  0.85320  1.0000
  C   C139      1.0  0.10512  0.35250  0.66122  1.0000
  H   H214      1.0  0.30282  0.49972  0.89125  1.0000
  H   H215      1.0  0.08444  0.41050  0.83450  1.0000
  H   H216      1.0  0.19850  0.39820  0.03440  1.0000
  H   H217      1.0  0.10064  0.47268  0.87523  1.0000
  H   H218      1.0  0.33776  0.48082  0.97669  1.0000
  H   H219      1.0  0.30684  0.45217  0.90804  1.0000
  C   C140      1.0  0.32400  0.45879  0.92547  1.0000
  C   C141      1.0  0.57896  0.45799  0.10976  1.0000
  C   C142      1.0  0.37507  0.39423  0.08960  1.0000
  S   S64       1.0  0.39140  0.57654  0.06796  1.0000
  H   H220      1.0  0.26605  0.48585  0.81552  1.0000
  H   H221      1.0  0.24433  0.37931  0.08367  1.0000
  H   H222      1.0  0.24407  0.38426  0.00343  1.0000
  C   C143      1.0  0.24673  0.36160  0.83171  1.0000
  H   H223      1.0  0.54191  0.51914  0.10508  1.0000
  H   H224      1.0  0.33951  0.54026  0.63796  1.0000
  H   H225      1.0  0.12078  0.35568  0.68075  1.0000
  C   C144      1.0  0.23199  0.39547  0.79538  1.0000
  H   H226      1.0  0.42482  0.40068  0.65820  1.0000
  C   C145      1.0  0.24158  0.36340  0.01288  1.0000
  C   C146      1.0  0.41623  0.41761  0.64380  1.0000
  H   H227      1.0  0.11939  0.33970  0.64660  1.0000
  C   C147      1.0  0.12176  0.46647  0.86196  1.0000
  C   C148      1.0  0.23277  0.34875  0.66340  1.0000
  H   H228      1.0  0.37519  0.54743  0.65983  1.0000
  C   C149      1.0  0.42672  0.50068  0.63493  1.0000
  H   H229      1.0  0.15871  0.34703  0.94533  1.0000
  H   H230      1.0  0.27338  0.36342  0.82642  1.0000
  H   H231      1.0  0.13946  0.45617  0.87698  1.0000
  H   H232      1.0  0.18402  0.37753  0.83114  1.0000
  N   N15       1.0  0.36321  0.57875  0.62836  1.0000
  H   H233      1.0  0.25582  0.40033  0.05298  1.0000
  Fe  Fe32      1.0  0.45626  0.49549  0.10420  1.0000
  H   H234      1.0  0.21916  0.35236  0.76317  1.0000
  H   H235      1.0  0.17436  0.36825  0.79474  1.0000
  H   H236      1.0  0.10176  0.37261  0.65025  1.0000
  H   H237      1.0  0.21754  0.33513  0.07699  1.0000
  C   C150      1.0  0.22591  0.33568  0.05422  1.0000
  N   N16       1.0  0.40070  0.40759  0.61711  1.0000
  H   H238      1.0  0.37947  0.50529  0.61398  1.0000
  H   H239      1.0  0.40728  0.55886  0.61570  1.0000
  Fe  Fe33      1.0  0.24842  0.82259  0.20149  1.0000
  Fe  Fe34      1.0  0.31650  0.80421  0.18507  1.0000
  H   H240      1.0  0.12662  0.74459  0.38084  1.0000
  S   S65       1.0  0.33936  0.78501  0.14697  1.0000
  S   S66       1.0  0.21340  0.78006  0.43248  1.0000
  C   C151      1.0  0.12482  0.81184  0.39425  1.0000
  C   C152      1.0  0.11398  0.80872  0.23255  1.0000
  N   N17       1.0  0.56952  0.61426  0.55538  1.0000
  C   C153      1.0  0.16818  0.81269  0.21133  1.0000
  H   H241      1.0  0.12984  0.81039  0.41789  1.0000
  C   C154      1.0  0.28069  0.82428  0.31661  1.0000
  S   S67       1.0  0.27397  0.78290  0.20714  1.0000
  H   H242      1.0  0.15253  0.81580  0.51551  1.0000
  H   H243      1.0  0.44464  0.72555  0.19971  1.0000
  S   S68       1.0  0.26938  0.82334  0.45682  1.0000
  C   C155      1.0  0.31979  0.78904  0.40101  1.0000
  C   C156      1.0  0.23887  0.79823  0.35652  1.0000
  H   H244      1.0  0.41332  0.68471  0.21725  1.0000
  C   C157      1.0  0.15696  0.77813  0.24839  1.0000
  C   C158      1.0  0.56050  0.60813  0.58567  1.0000
  C   C159      1.0  0.36377  0.75736  0.40965  1.0000
  S   S69       1.0  0.53241  0.71765  0.13132  1.0000
  N   N18       1.0  0.33750  0.76602  0.38919  1.0000
  S   S70       1.0  0.12928  0.77918  0.47185  1.0000
  C   C160      1.0  0.33333  0.77269  0.56673  1.0000
  H   H245      1.0  0.45786  0.59875  0.15294  1.0000
  H   H246      1.0  0.35348  0.71686  0.19358  1.0000
  S   S71       1.0  0.29516  0.77731  0.28971  1.0000
  C   C161      1.0  0.35226  0.77446  0.36131  1.0000
  H   H247      1.0  0.32661  0.72533  0.37621  1.0000
  C   C162      1.0  0.25428  0.78329  0.33541  1.0000
  S   S72       1.0  0.34067  0.81891  0.22580  1.0000
  C   C163      1.0  0.17883  0.79099  0.22895  1.0000
  C   C164      1.0  0.37881  0.72587  0.19306  1.0000
  H   H248      1.0  0.20400  0.78433  0.22791  1.0000
  C   C165      1.0  0.31410  0.74319  0.38484  1.0000
  C   C166      1.0  0.38176  0.78945  0.14179  1.0000
  Fe  Fe35      1.0  0.45457  0.70125  0.59562  1.0000
  H   H249      1.0  0.14842  0.81778  0.38361  1.0000
  H   H250      1.0  0.55889  0.68080  0.60257  1.0000
  C   C167      1.0  0.43664  0.80265  0.15815  1.0000
  C   C168      1.0  0.40231  0.80189  0.16212  1.0000
  H   H251      1.0  0.38207  0.80975  0.56462  1.0000
  H   H252      1.0  0.22231  0.78813  0.37149  1.0000
  H   H253      1.0  0.55432  0.64117  0.52052  1.0000
  C   C169      1.0  0.13556  0.82115  0.21273  1.0000
  Fe  Fe36      1.0  0.29586  0.80053  0.24731  1.0000
  C   C170      1.0  0.27520  0.79629  0.31543  1.0000
  N   N19       1.0  0.40209  0.70812  0.17864  1.0000
  H   H254      1.0  0.38664  0.72970  0.21566  1.0000
  H   H255      1.0  0.16532  0.76155  0.26224  1.0000
  S   S73       1.0  0.47306  0.65559  0.14633  1.0000
  C   C171      1.0  0.10483  0.78880  0.35212  1.0000
  H   H256      1.0  0.16768  0.82149  0.28830  1.0000
  H   H257      1.0  0.24960  0.76171  0.33426  1.0000
  C   C172      1.0  0.30002  0.81082  0.57835  1.0000
  H   H258      1.0  0.36549  0.75753  0.35151  1.0000
  H   H259      1.0  0.45271  0.81133  0.17435  1.0000
  H   H260      1.0  0.37703  0.74590  0.18164  1.0000
  H   H261      1.0  0.37968  0.67146  0.19598  1.0000
  H   H262      1.0  0.42129  0.66796  0.18436  1.0000
  H   H263      1.0  0.38854  0.72265  0.13607  1.0000
  H   H264      1.0  0.12766  0.79379  0.33989  1.0000
  Fe  Fe37      1.0  0.23370  0.83130  0.49186  1.0000
  H   H265      1.0  0.43446  0.74097  0.16531  1.0000
  C   C173      1.0  0.39036  0.70332  0.14891  1.0000
  H   H266      1.0  0.40741  0.68993  0.13752  1.0000
  C   C174      1.0  0.40414  0.68195  0.19482  1.0000
  C   C175      1.0  0.43505  0.72134  0.17770  1.0000
  H   H267      1.0  0.10710  0.82856  0.39034  1.0000
  Fe  Fe38      1.0  0.49328  0.68836  0.11711  1.0000
  H   H268      1.0  0.39194  0.81019  0.18122  1.0000
  H   H269      1.0  0.34016  0.60707  0.59875  1.0000
  S   S74       1.0  0.09831  0.77333  0.27680  1.0000
  H   H270      1.0  0.57584  0.59159  0.59530  1.0000
  H   H271      1.0  0.56270  0.82637  0.12976  1.0000
  C   C176      1.0  0.12466  0.78729  0.25048  1.0000
  H   H272      1.0  0.33309  0.78121  0.34541  1.0000
  H   H273      1.0  0.30044  0.79659  0.38577  1.0000
  H   H274      1.0  0.37007  0.79165  0.36382  1.0000
  H   H275      1.0  0.30739  0.78306  0.42151  1.0000
  H   H276      1.0  0.30220  0.73656  0.40548  1.0000
  C   C177      1.0  0.35666  0.81798  0.56442  1.0000
  C   C178      1.0  0.44479  0.60660  0.13410  1.0000
  H   H277      1.0  0.32494  0.77409  0.54382  1.0000
  H   H278      1.0  0.35843  0.76385  0.56712  1.0000
  N   N20       1.0  0.33353  0.79952  0.58002  1.0000
  H   H279      1.0  0.09427  0.76976  0.34323  1.0000
  H   H280      1.0  0.38111  0.77436  0.41462  1.0000
  H   H281      1.0  0.56120  0.78230  0.15611  1.0000
  H   H282      1.0  0.45080  0.61747  0.52100  1.0000
  H   H283      1.0  0.45329  0.70836  0.16718  1.0000
  S   S75       1.0  0.43232  0.74202  0.60135  1.0000
  H   H284      1.0  0.08437  0.77698  0.42229  1.0000
  H   H285      1.0  0.37838  0.74063  0.40101  1.0000
  C   C179      1.0  0.46349  0.58917  0.58783  1.0000
  Fe  Fe39      1.0  0.18202  0.79277  0.46888  1.0000
  H   H286      1.0  0.39233  0.58385  0.59007  1.0000
  Fe  Fe40      1.0  0.25474  0.77978  0.46513  1.0000
  S   S76       1.0  0.29119  0.74586  0.46830  1.0000
  S   S77       1.0  0.50109  0.76697  0.57318  1.0000
  C   C180      1.0  0.13572  0.76435  0.38903  1.0000
  S   S78       1.0  0.46982  0.70964  0.54975  1.0000
  S   S79       1.0  0.19580  0.83094  0.18920  1.0000
  Fe  Fe41      1.0  0.51717  0.72404  0.57005  1.0000
  S   S80       1.0  0.56684  0.71573  0.55178  1.0000
  Fe  Fe42      1.0  0.45206  0.75167  0.55724  1.0000
  S   S81       1.0  0.42596  0.78067  0.52693  1.0000
  H   H287      1.0  0.53421  0.60149  0.58732  1.0000
  H   H288      1.0  0.14080  0.76141  0.41257  1.0000
  C   C181      1.0  0.45015  0.79108  0.13383  1.0000
  S   S82       1.0  0.22186  0.78772  0.50233  1.0000
  H   H289      1.0  0.33677  0.80637  0.40554  1.0000
  C   C182      1.0  0.10837  0.79913  0.49612  1.0000
  H   H290      1.0  0.35327  0.74977  0.43045  1.0000
  C   C183      1.0  0.44450  0.63533  0.59101  1.0000
  C   C184      1.0  0.44334  0.63766  0.56092  1.0000
  C   C185      1.0  0.45202  0.61569  0.54430  1.0000
  H   H291      1.0  0.29411  0.74890  0.36936  1.0000
  H   H292      1.0  0.43493  0.65617  0.55042  1.0000
  C   C186      1.0  0.54811  0.63583  0.54330  1.0000
  C   C187      1.0  0.46226  0.59148  0.55773  1.0000
  C   C188      1.0  0.44731  0.63413  0.12637  1.0000
  C   C189      1.0  0.32889  0.75512  0.48458  1.0000
  C   C190      1.0  0.34819  0.73549  0.49886  1.0000
  C   C191      1.0  0.37840  0.74291  0.51185  1.0000
  C   C192      1.0  0.38956  0.76986  0.50989  1.0000
  C   C193      1.0  0.37077  0.78919  0.49482  1.0000
  C   C194      1.0  0.34040  0.78191  0.48250  1.0000
  H   H293      1.0  0.33958  0.71463  0.50025  1.0000
  H   H294      1.0  0.39299  0.72787  0.52336  1.0000
  H   H295      1.0  0.37956  0.80999  0.49302  1.0000
  H   H296      1.0  0.32632  0.79705  0.47100  1.0000
  H   H297      1.0  0.15961  0.76928  0.37840  1.0000
  H   H298      1.0  0.29128  0.81340  0.55555  1.0000
  H   H299      1.0  0.31654  0.75806  0.57816  1.0000
  H   H300      1.0  0.28182  0.79737  0.58974  1.0000
  H   H301      1.0  0.55059  0.65474  0.55566  1.0000
  C   C195      1.0  0.39531  0.77876  0.11716  1.0000
  H   H302      1.0  0.20061  0.83086  0.26452  1.0000
  S   S83       1.0  0.49284  0.78763  0.13070  1.0000
  H   H303      1.0  0.56390  0.62619  0.59922  1.0000
  N   N21       1.0  0.11149  0.78594  0.38346  1.0000
  H   H304      1.0  0.36554  0.69337  0.14871  1.0000
  C   C196      1.0  0.42933  0.77998  0.11298  1.0000
  H   H305      1.0  0.52165  0.62947  0.54375  1.0000
  C   C197      1.0  0.56507  0.58958  0.53840  1.0000
  H   H306      1.0  0.08909  0.81585  0.23395  1.0000
  H   H307      1.0  0.08683  0.80511  0.34721  1.0000
  C   C198      1.0  0.12589  0.81591  0.51495  1.0000
  H   H308      1.0  0.34908  0.82101  0.54144  1.0000
  C   C199      1.0  0.45465  0.61108  0.60446  1.0000
  C   C200      1.0  0.42650  0.58891  0.11674  1.0000
  C   C201      1.0  0.24439  0.82622  0.35769  1.0000
  Fe  Fe43      1.0  0.22525  0.82430  0.42722  1.0000
  H   H309      1.0  0.57126  0.59343  0.51534  1.0000
  H   H310      1.0  0.45660  0.80532  0.60526  1.0000
  H   H311      1.0  0.20780  0.82972  0.30264  1.0000
  H   H312      1.0  0.29926  0.83108  0.58819  1.0000
  H   H313      1.0  0.57891  0.74789  0.60642  1.0000
  C   C202      1.0  0.10890  0.83286  0.53321  1.0000
  C   C203      1.0  0.34422  0.79658  0.61052  1.0000
  C   C204      1.0  0.41004  0.59888  0.09208  1.0000
  S   S84       1.0  0.43185  0.66207  0.61196  1.0000
  C   C205      1.0  0.34559  0.81026  0.04725  1.0000
  C   C206      1.0  0.42053  0.83187  0.62222  1.0000
  S   S85       1.0  0.48969  0.78109  0.65460  1.0000
  C   C207      1.0  0.50178  0.63684  0.00920  1.0000
  H   H314      1.0  0.43199  0.66541  0.09593  1.0000
  H   H315      1.0  0.39883  0.76893  0.01440  1.0000
  H   H316      1.0  0.52832  0.63309  0.01373  1.0000
  H   H317      1.0  0.49841  0.63949  0.98546  1.0000
  S   S86       1.0  0.50336  0.71266  0.61538  1.0000
  H   H318      1.0  0.34835  0.80208  0.06977  1.0000
  H   H319      1.0  0.43953  0.77228  0.09354  1.0000
  C   C208      1.0  0.45813  0.80485  0.65174  1.0000
  H   H320      1.0  0.34768  0.80589  0.98921  1.0000
  C   C209      1.0  0.43019  0.64420  0.10208  1.0000
  H   H321      1.0  0.32243  0.80150  0.03810  1.0000
  H   H322      1.0  0.45308  0.80822  0.69762  1.0000
  C   C210      1.0  0.44438  0.81511  0.67657  1.0000
  S   S87       1.0  0.46045  0.71982  0.09774  1.0000
  H   H323      1.0  0.47941  0.82252  0.81532  1.0000
  H   H324      1.0  0.42682  0.81117  0.03039  1.0000
  H   H325      1.0  0.55127  0.77112  0.62205  1.0000
  C   C211      1.0  0.48611  0.61169  0.05244  1.0000
  N   N22       1.0  0.48067  0.61457  0.02096  1.0000
  C   C212      1.0  0.37815  0.77430  0.02856  1.0000
  H   H326      1.0  0.42185  0.75530  0.92834  1.0000
  S   S88       1.0  0.46081  0.70768  0.01538  1.0000
  C   C213      1.0  0.36956  0.81521  0.99996  1.0000
  H   H327      1.0  0.37945  0.76900  0.10158  1.0000
  Fe  Fe44      1.0  0.50177  0.74882  0.10810  1.0000
  H   H328      1.0  0.34431  0.81638  0.62137  1.0000
  C   C214      1.0  0.44459  0.78310  0.95776  1.0000
  C   C215      1.0  0.46057  0.78574  0.98450  1.0000
  C   C216      1.0  0.46590  0.76269  0.00245  1.0000
  C   C217      1.0  0.45527  0.73703  0.99359  1.0000
  C   C218      1.0  0.43934  0.73457  0.96688  1.0000
  C   C219      1.0  0.43416  0.75747  0.94900  1.0000
  H   H329      1.0  0.56243  0.78828  0.67083  1.0000
  H   H330      1.0  0.47822  0.76479  0.02305  1.0000
  H   H331      1.0  0.43105  0.71484  0.95991  1.0000
  Fe  Fe45      1.0  0.55430  0.71124  0.08795  1.0000
  S   S89       1.0  0.43677  0.81127  0.93479  1.0000
  H   H332      1.0  0.40446  0.59210  0.65414  1.0000
  H   H333      1.0  0.35552  0.76424  0.01991  1.0000
  S   S90       1.0  0.51758  0.67918  0.07566  1.0000
  Fe  Fe46      1.0  0.48807  0.71358  0.05712  1.0000
  S   S91       1.0  0.52692  0.74517  0.06558  1.0000
  N   N23       1.0  0.37440  0.80399  0.02957  1.0000
  H   H334      1.0  0.43872  0.64014  0.02487  1.0000
  H   H335      1.0  0.44061  0.62299  0.99141  1.0000
  H   H336      1.0  0.55743  0.78488  0.10266  1.0000
  C   C220      1.0  0.44603  0.81311  0.62456  1.0000
  H   H337      1.0  0.40814  0.80923  0.06514  1.0000
  H   H338      1.0  0.39808  0.63443  0.06635  1.0000
  C   C221      1.0  0.40437  0.81630  0.04245  1.0000
  H   H339      1.0  0.58043  0.58630  0.09022  1.0000
  H   H340      1.0  0.38341  0.76519  0.05030  1.0000
  Fe  Fe47      1.0  0.48280  0.75428  0.61674  1.0000
  H   H341      1.0  0.48474  0.59006  0.98358  1.0000
  C   C222      1.0  0.44572  0.62080  0.01496  1.0000
  H   H342      1.0  0.47908  0.63031  0.06355  1.0000
  C   C223      1.0  0.57765  0.76555  0.62069  1.0000
  H   H343      1.0  0.46935  0.80540  0.99113  1.0000
  H   H344      1.0  0.36639  0.60855  0.66127  1.0000
  H   H345      1.0  0.49568  0.65651  0.01881  1.0000
  C   C224      1.0  0.41103  0.62666  0.08528  1.0000
  H   H346      1.0  0.47102  0.59470  0.06191  1.0000
  H   H347      1.0  0.39130  0.81162  0.98626  1.0000
  H   H348      1.0  0.49023  0.81582  0.86784  1.0000
  H   H349      1.0  0.38872  0.61725  0.62914  1.0000
  C   C225      1.0  0.48906  0.58896  0.00730  1.0000
  H   H350      1.0  0.54708  0.74044  0.66520  1.0000
  H   H351      1.0  0.43310  0.81305  0.84985  1.0000
  H   H352      1.0  0.57541  0.71769  0.64961  1.0000
  H   H353      1.0  0.51238  0.60779  0.05791  1.0000
  H   H354      1.0  0.34230  0.83257  0.04846  1.0000
  C   C226      1.0  0.38146  0.60007  0.64394  1.0000
  H   H355      1.0  0.36971  0.78858  0.61241  1.0000
  H   H356      1.0  0.45575  0.60928  0.62774  1.0000
  H   H357      1.0  0.32769  0.78248  0.62293  1.0000
  C   C227      1.0  0.57375  0.73599  0.66290  1.0000
  H   H358      1.0  0.42902  0.60454  0.02377  1.0000
  H   H359      1.0  0.51541  0.58386  0.01108  1.0000
  H   H360      1.0  0.51538  0.83125  0.68534  1.0000
  C   C228      1.0  0.33350  0.59043  0.61447  1.0000
  H   H361      1.0  0.31687  0.59897  0.63066  1.0000
  C   C229      1.0  0.41827  0.83334  0.67420  1.0000
  C   C230      1.0  0.10567  0.93435  0.16784  1.0000
  S   S92       1.0  0.21098  0.95859  0.15056  1.0000
  H   H362      1.0  0.30977  0.93575  0.14216  1.0000
  S   S93       1.0  0.32116  0.89929  0.22401  1.0000
  C   C231      1.0  0.24084  0.94364  0.17316  1.0000
  C   C232      1.0  0.23673  0.91641  0.18141  1.0000
  C   C233      1.0  0.26056  0.90347  0.19851  1.0000
  C   C234      1.0  0.28920  0.91736  0.20691  1.0000
  C   C235      1.0  0.29300  0.94493  0.19953  1.0000
  C   C236      1.0  0.26872  0.95813  0.18264  1.0000
  H   H363      1.0  0.21570  0.90488  0.17377  1.0000
  H   H364      1.0  0.25677  0.88251  0.20469  1.0000
  H   H365      1.0  0.31494  0.95591  0.20627  1.0000
  H   H366      1.0  0.27167  0.97938  0.17688  1.0000
  H   H367      1.0  0.12105  0.85600  0.46842  1.0000
  C   C237      1.0  0.31603  0.91022  0.60337  1.0000
  C   C238      1.0  0.20988  0.88155  0.28298  1.0000
  H   H368      1.0  0.16699  0.86693  0.24182  1.0000
  H   H369      1.0  0.16179  0.91266  0.18434  1.0000
  N   N24       1.0  0.18023  0.86402  0.28676  1.0000
  S   S94       1.0  0.28026  0.01366  0.12465  1.0000
  H   H370      1.0  0.23473  0.88875  0.47577  1.0000
  H   H371      1.0  0.09940  0.05382  0.14618  1.0000
  C   C239      1.0  0.15621  0.87027  0.26339  1.0000
  H   H372      1.0  0.20399  0.90335  0.28479  1.0000
  H   H373      1.0  0.09802  0.86826  0.14987  1.0000
  H   H374      1.0  0.31304  0.88964  0.59445  1.0000
  H   H375      1.0  0.09267  0.86783  0.44112  1.0000
  H   H376      1.0  0.31318  0.96510  0.59911  1.0000
  H   H377      1.0  0.26982  0.86084  0.33868  1.0000
  H   H378      1.0  0.12324  0.91898  0.50943  1.0000
  N   N25       1.0  0.34833  0.90931  0.12990  1.0000
  C   C240      1.0  0.14164  0.89754  0.18068  1.0000
  H   H379      1.0  0.12255  0.84587  0.54764  1.0000
  H   H380      1.0  0.12956  0.89317  0.20175  1.0000
  C   C241      1.0  0.08971  0.88848  0.15652  1.0000
  H   H381      1.0  0.14817  0.89168  0.26381  1.0000
  H   H382      1.0  0.15798  0.89037  0.31675  1.0000
  H   H383      1.0  0.15320  0.87851  0.17380  1.0000
  Fe  Fe48      1.0  0.25332  0.05299  0.12200  1.0000
  C   C242      1.0  0.29200  0.95406  0.60926  1.0000
  Fe  Fe49      1.0  0.16447  0.98075  0.60534  1.0000
  H   H384      1.0  0.14131  0.88631  0.50586  1.0000
  H   H385      1.0  0.15490  0.92594  0.13145  1.0000
  H   H386      1.0  0.25956  0.94213  0.56011  1.0000
  H   H387      1.0  0.13847  0.93032  0.45875  1.0000
  C   C243      1.0  0.16539  0.86890  0.31503  1.0000
  H   H388      1.0  0.41198  0.83875  0.60116  1.0000
  H   H389      1.0  0.11883  0.96657  0.11336  1.0000
  N   N26       1.0  0.11774  0.90784  0.15890  1.0000
  H   H390      1.0  0.13379  0.85706  0.26516  1.0000
  H   H391      1.0  0.08661  0.94232  0.15252  1.0000
  H   H392      1.0  0.12607  0.94973  0.16866  1.0000
  H   H393      1.0  0.18309  0.86436  0.33305  1.0000
  H   H394      1.0  0.38694  0.89843  0.16011  1.0000
  H   H395      1.0  0.22098  0.87917  0.26139  1.0000
  H   H396      1.0  0.27799  0.90976  0.55556  1.0000
  H   H397      1.0  0.12413  0.90926  0.43020  1.0000
  H   H398      1.0  0.30319  0.94000  0.55487  1.0000
  H   H399      1.0  0.35695  0.92104  0.17367  1.0000
  Fe  Fe50      1.0  0.22968  0.99443  0.12423  1.0000
  H   H400      1.0  0.14299  0.85594  0.31855  1.0000
  H   H401      1.0  0.14409  0.89156  0.12356  1.0000
  H   H402      1.0  0.23493  0.92614  0.60640  1.0000
  C   C244      1.0  0.11816  0.89788  0.50261  1.0000
  H   H403      1.0  0.36619  0.95056  0.13038  1.0000
  C   C245      1.0  0.26520  0.83924  0.33764  1.0000
  C   C246      1.0  0.25742  0.91379  0.61019  1.0000
  H   H404      1.0  0.25243  0.89348  0.60116  1.0000
  H   H405      1.0  0.39430  0.92705  0.11548  1.0000
  H   H406      1.0  0.20559  0.93159  0.46446  1.0000
  S   S95       1.0  0.24381  0.85840  0.52897  1.0000
  H   H407      1.0  0.20735  0.89352  0.56459  1.0000
  S   S96       1.0  0.20332  0.03371  0.12633  1.0000
  N   N27       1.0  0.10647  0.89735  0.47233  1.0000
  C   C247      1.0  0.13220  0.90904  0.45320  1.0000
  H   H408      1.0  0.22919  0.87663  0.29946  1.0000
  C   C248      1.0  0.36032  0.90344  0.15958  1.0000
  Fe  Fe51      1.0  0.11785  0.02081  0.57797  1.0000
  S   S97       1.0  0.15245  0.03296  0.54221  1.0000
  C   C249      1.0  0.13397  0.91106  0.13063  1.0000
  S   S98       1.0  0.20332  0.98887  0.57244  1.0000
  Fe  Fe52      1.0  0.19114  0.03247  0.57719  1.0000
  S   S99       1.0  0.23534  0.06028  0.57865  1.0000
  Fe  Fe53      1.0  0.16173  0.98845  0.54051  1.0000
  S   S100      1.0  0.16781  0.96605  0.49978  1.0000
  S   S101      1.0  0.12369  0.97618  0.57296  1.0000
  H   H409      1.0  0.11637  0.91835  0.11359  1.0000
  H   H410      1.0  0.17787  0.93602  0.55327  1.0000
  H   H411      1.0  0.34669  0.88592  0.16965  1.0000
  C   C250      1.0  0.19009  0.93677  0.50815  1.0000
  C   C251      1.0  0.19081  0.92611  0.53643  1.0000
  C   C252      1.0  0.20746  0.90203  0.54286  1.0000
  C   C253      1.0  0.22330  0.88857  0.52101  1.0000
  C   C254      1.0  0.22235  0.89907  0.49269  1.0000
  C   C255      1.0  0.20593  0.92328  0.48631  1.0000
  H   H412      1.0  0.26984  0.96688  0.60609  1.0000
  Fe  Fe54      1.0  0.30871  0.85531  0.21859  1.0000
  S   S102      1.0  0.22487  0.84526  0.38359  1.0000
  H   H413      1.0  0.09438  0.93277  0.18960  1.0000
  S   S103      1.0  0.19092  0.83718  0.46139  1.0000
  C   C256      1.0  0.28170  0.92985  0.56553  1.0000
  H   H414      1.0  0.33783  0.86735  0.12183  1.0000
  H   H415      1.0  0.15530  0.89723  0.45501  1.0000
  H   H416      1.0  0.29790  0.90065  0.14147  1.0000
  C   C257      1.0  0.09935  0.86909  0.46436  1.0000
  N   N28       1.0  0.28680  0.92698  0.59707  1.0000
  H   H417      1.0  0.09949  0.88892  0.51756  1.0000
  C   C258      1.0  0.36782  0.93214  0.11721  1.0000
  H   H418      1.0  0.35804  0.83823  0.57434  1.0000
  S   S104      1.0  0.28894  0.84230  0.17580  1.0000
  C   C259      1.0  0.31320  0.91670  0.13047  1.0000
  H   H419      1.0  0.33878  0.91962  0.59406  1.0000
  H   H420      1.0  0.12711  0.83774  0.19901  1.0000
  C   C260      1.0  0.08502  0.04896  0.12636  1.0000
  H   H421      1.0  0.29742  0.83436  0.30164  1.0000
  C   C261      1.0  0.35203  0.88496  0.11251  1.0000
  H   H422      1.0  0.37829  0.87899  0.11130  1.0000
  H   H423      1.0  0.08447  0.02652  0.12472  1.0000
  C   C262      1.0  0.18948  0.83528  0.28557  1.0000
  S   S105      1.0  0.26634  0.83817  0.24361  1.0000
  Fe  Fe55      1.0  0.41512  0.93553  0.71082  1.0000
  S   S106      1.0  0.41121  0.89065  0.71787  1.0000
  S   S107      1.0  0.46287  0.95873  0.71112  1.0000
  C   C263      1.0  0.09394  0.02047  0.05522  1.0000
  S   S108      1.0  0.31092  0.97866  0.69477  1.0000
  H   H424      1.0  0.51179  0.84802  0.86821  1.0000
  Fe  Fe56      1.0  0.37389  0.89217  0.68184  1.0000
  H   H425      1.0  0.42685  0.05643  0.69661  1.0000
  C   C264      1.0  0.57521  0.88072  0.93005  1.0000
  S   S109      1.0  0.38196  0.93637  0.67214  1.0000
  H   H426      1.0  0.41738  0.99554  0.74500  1.0000
  S   S110      1.0  0.17326  0.94859  0.63937  1.0000
  C   C265      1.0  0.53136  0.84852  0.67782  1.0000
  H   H427      1.0  0.47504  0.86547  0.70041  1.0000
  C   C266      1.0  0.42192  0.01687  0.73745  1.0000
  H   H428      1.0  0.34306  0.03116  0.71710  1.0000
  C   C267      1.0  0.27117  0.97071  0.68228  1.0000
  C   C268      1.0  0.25445  0.98989  0.66517  1.0000
  C   C269      1.0  0.22412  0.98315  0.65241  1.0000
  C   C270      1.0  0.20992  0.95747  0.65735  1.0000
  C   C271      1.0  0.22607  0.93853  0.67530  1.0000
  C   C272      1.0  0.25698  0.94502  0.68745  1.0000
  H   H429      1.0  0.26540  0.00974  0.66099  1.0000
  H   H430      1.0  0.21193  0.99789  0.63858  1.0000
  H   H431      1.0  0.21508  0.91867  0.67924  1.0000
  H   H432      1.0  0.26969  0.93023  0.70090  1.0000
  H   H433      1.0  0.54702  0.91304  0.69858  1.0000
  H   H434      1.0  0.57720  0.86992  0.95141  1.0000
  H   H435      1.0  0.36578  0.83748  0.99998  1.0000
  H   H436      1.0  0.44333  0.88747  0.83565  1.0000
  C   C273      1.0  0.48615  0.94616  0.74039  1.0000
  H   H437      1.0  0.53210  0.88327  0.74000  1.0000
  H   H438      1.0  0.35736  0.00361  0.73933  1.0000
  C   C274      1.0  0.56556  0.85370  0.03715  1.0000
  H   H439      1.0  0.55833  0.86863  0.91622  1.0000
  S   S111      1.0  0.37415  0.86507  0.64374  1.0000
  H   H440      1.0  0.08735  0.01015  0.63452  1.0000
  H   H441      1.0  0.38914  0.98755  0.69844  1.0000
  H   H442      1.0  0.34295  0.88852  0.09004  1.0000
  H   H443      1.0  0.44648  0.01732  0.72695  1.0000
  H   H444      1.0  0.40650  0.83993  0.69342  1.0000
  Fe  Fe57      1.0  0.34202  0.94242  0.70396  1.0000
  C   C275      1.0  0.40654  0.84198  0.64702  1.0000
  S   S112      1.0  0.33045  0.89800  0.71037  1.0000
  H   H445      1.0  0.38341  0.06226  0.69255  1.0000
  H   H446      1.0  0.54451  0.90060  0.66259  1.0000
  H   H447      1.0  0.44994  0.88278  0.87350  1.0000
  C   C276      1.0  0.51994  0.95194  0.74233  1.0000
  C   C277      1.0  0.43128  0.83539  0.85163  1.0000
  C   C278      1.0  0.53473  0.86548  0.72607  1.0000
  H   H448      1.0  0.53147  0.96557  0.72664  1.0000
  H   H449      1.0  0.41857  0.00917  0.68051  1.0000
  H   H450      1.0  0.48850  0.89980  0.70594  1.0000
  N   N29       1.0  0.52708  0.87256  0.69556  1.0000
  C   C279      1.0  0.11172  0.98124  0.09689  1.0000
  C   C280      1.0  0.53905  0.93954  0.76423  1.0000
  C   C281      1.0  0.49263  0.88162  0.69292  1.0000
  H   H451      1.0  0.37490  0.01518  0.67629  1.0000
  C   C282      1.0  0.36351  0.02472  0.73190  1.0000
  C   C283      1.0  0.46031  0.87846  0.85211  1.0000
  N   N30       1.0  0.39570  0.02629  0.71730  1.0000
  C   C284      1.0  0.39459  0.00891  0.69192  1.0000
  C   C285      1.0  0.54959  0.89463  0.68551  1.0000
  H   H452      1.0  0.44513  0.92462  0.75990  1.0000
  C   C286      1.0  0.40277  0.05460  0.70781  1.0000
  S   S113      1.0  0.37590  0.94482  0.74208  1.0000
  H   H453      1.0  0.48589  0.88708  0.67017  1.0000
  H   H454      1.0  0.42370  0.02954  0.75685  1.0000
  Fe  Fe58      1.0  0.36862  0.89982  0.74606  1.0000
  C   C287      1.0  0.47130  0.92882  0.76093  1.0000
  H   H455      1.0  0.40282  0.83878  0.04260  1.0000
  H   H456      1.0  0.55729  0.84157  0.67872  1.0000
  H   H457      1.0  0.40381  0.06833  0.72641  1.0000
  Fe  Fe59      1.0  0.47823  0.89862  0.97873  1.0000
  S   S114      1.0  0.46843  0.88555  0.93367  1.0000
  S   S115      1.0  0.52937  0.91490  0.98673  1.0000
  Fe  Fe60      1.0  0.40733  0.88951  0.99665  1.0000
  S   S116      1.0  0.39152  0.87578  0.95294  1.0000
  S   S117      1.0  0.36757  0.88890  0.03022  1.0000
  H   H458      1.0  0.32006  0.98557  0.98961  1.0000
  H   H459      1.0  0.39365  0.97577  0.94422  1.0000
  Fe  Fe61      1.0  0.42293  0.91009  0.93605  1.0000
  S   S118      1.0  0.40890  0.93859  0.89971  1.0000
  H   H460      1.0  0.35626  0.86360  0.84855  1.0000
  S   S119      1.0  0.43492  0.92622  0.97950  1.0000
  N   N31       1.0  0.34098  0.97578  0.94899  1.0000
  H   H461      1.0  0.30433  0.90853  0.04729  1.0000
  H   H462      1.0  0.41335  0.84262  0.83483  1.0000
  H   H463      1.0  0.33649  0.00368  0.91273  1.0000
  H   H464      1.0  0.10509  0.92415  0.62354  1.0000
  H   H465      1.0  0.34318  0.94115  0.97812  1.0000
  H   H466      1.0  0.47886  0.90261  0.79799  1.0000
  S   S120      1.0  0.31804  0.00750  0.04838  1.0000
  H   H467      1.0  0.38004  0.98138  0.98011  1.0000
  S   S121      1.0  0.36361  0.87671  0.78843  1.0000
  S   S122      1.0  0.54854  0.90266  0.80885  1.0000
  C   C288      1.0  0.39475  0.92189  0.86903  1.0000
  C   C289      1.0  0.37908  0.89649  0.87148  1.0000
  C   C290      1.0  0.36865  0.88314  0.84661  1.0000
  C   C291      1.0  0.37455  0.89482  0.81924  1.0000
  C   C292      1.0  0.39044  0.92012  0.81691  1.0000
  C   C293      1.0  0.40006  0.93383  0.84175  1.0000
  H   H468      1.0  0.37468  0.88722  0.89246  1.0000
  S   S123      1.0  0.45176  0.86294  0.99967  1.0000
  H   H469      1.0  0.39617  0.92889  0.79607  1.0000
  H   H470      1.0  0.41260  0.95330  0.83977  1.0000
  C   C294      1.0  0.35389  0.92161  0.03693  1.0000
  Fe  Fe62      1.0  0.43823  0.85225  0.95439  1.0000
  C   C295      1.0  0.31015  0.95193  0.05001  1.0000
  C   C296      1.0  0.33171  0.97416  0.04639  1.0000
  C   C297      1.0  0.36441  0.96999  0.03871  1.0000
  C   C298      1.0  0.37554  0.94380  0.03421  1.0000
  C   C299      1.0  0.32123  0.92564  0.04516  1.0000
  H   H471      1.0  0.31769  0.01204  0.96267  1.0000
  H   H472      1.0  0.38121  0.98715  0.03620  1.0000
  H   H473      1.0  0.40104  0.94081  0.02904  1.0000
  C   C300      1.0  0.37438  0.98568  0.95693  1.0000
  H   H474      1.0  0.28474  0.95510  0.05566  1.0000
  S   S124      1.0  0.15579  0.04453  0.05550  1.0000
  S   S125      1.0  0.22612  0.99204  0.07601  1.0000
  Fe  Fe63      1.0  0.27440  0.01475  0.07643  1.0000
  C   C301      1.0  0.55583  0.89338  0.00636  1.0000
  C   C302      1.0  0.54371  0.87079  0.02198  1.0000
  H   H475      1.0  0.37708  0.00794  0.95302  1.0000
  H   H476      1.0  0.31369  0.93802  0.94921  1.0000
  H   H477      1.0  0.36321  0.03771  0.75107  1.0000
  Fe  Fe64      1.0  0.20315  0.03297  0.07819  1.0000
  H   H478      1.0  0.29072  0.98282  0.96071  1.0000
  S   S126      1.0  0.25108  0.05572  0.07376  1.0000
  H   H479      1.0  0.32044  0.90751  0.62705  1.0000
  C   C303      1.0  0.31626  0.98966  0.96615  1.0000
  C   C304      1.0  0.33473  0.98157  0.91797  1.0000
  H   H480      1.0  0.35690  0.93517  0.94231  1.0000
  C   C305      1.0  0.12634  0.01989  0.06608  1.0000
  H   H481      1.0  0.35295  0.97142  0.90436  1.0000
  H   H482      1.0  0.45909  0.85254  0.80207  1.0000
  H   H483      1.0  0.30981  0.97425  0.91120  1.0000
  H   H484      1.0  0.29727  0.95251  0.63282  1.0000
  C   C306      1.0  0.33854  0.94623  0.95492  1.0000
  C   C307      1.0  0.13508  0.00007  0.08670  1.0000
  C   C308      1.0  0.47633  0.84448  0.81902  1.0000
  H   H485      1.0  0.56315  0.90040  0.93375  1.0000
  H   H486      1.0  0.52487  0.85287  0.65478  1.0000
  H   H487      1.0  0.56051  0.85837  0.72877  1.0000
  H   H488      1.0  0.47811  0.84099  0.89230  1.0000
  H   H489      1.0  0.51756  0.86668  0.02279  1.0000
  H   H490      1.0  0.15985  0.99927  0.09520  1.0000
  C   C309      1.0  0.52437  0.92135  0.78411  1.0000
  H   H491      1.0  0.26062  0.91097  0.63394  1.0000
  H   H492      1.0  0.56510  0.94418  0.76581  1.0000
  H   H493      1.0  0.51806  0.84909  0.73453  1.0000
  C   C310      1.0  0.49038  0.91648  0.78275  1.0000
  H   H494      1.0  0.48443  0.88948  0.85027  1.0000
  S   S127      1.0  0.15566  0.02462  0.61339  1.0000
  H   H495      1.0  0.50068  0.85483  0.81566  1.0000
  H   H496      1.0  0.35874  0.93783  0.09524  1.0000
  H   H497      1.0  0.57584  0.88841  0.68721  1.0000
  H   H498      1.0  0.55614  0.83633  0.04941  1.0000
  H   H499      1.0  0.09610  0.06502  0.62955  1.0000
  N   N32       1.0  0.46376  0.84906  0.84822  1.0000
  H   H500      1.0  0.42056  0.83922  0.87311  1.0000
  H   H501      1.0  0.08711  0.03561  0.03901  1.0000
  C   C311      1.0  0.48709  0.83801  0.87007  1.0000
  H   H502      1.0  0.09897  0.05730  0.10749  1.0000
  H   H503      1.0  0.30289  0.92011  0.10835  1.0000
  C   C312      1.0  0.61406  0.27570  0.22481  1.0000
  C   C313      1.0  0.87841  0.30626  0.23794  1.0000
  H   H504      1.0  0.96116  0.08758  0.15807  1.0000
  S   S128      1.0  0.74112  0.29266  0.22865  1.0000
  N   N33       1.0  0.93063  0.09015  0.58716  1.0000
  H   H505      1.0  0.69759  0.22609  0.44940  1.0000
  H   H506      1.0  0.71523  0.29938  0.43467  1.0000
  C   C314      1.0  0.70726  0.25702  0.40034  1.0000
  C   C315      1.0  0.86129  0.29979  0.28750  1.0000
  Fe  Fe65      1.0  0.73771  0.32155  0.26491  1.0000
  C   C316      1.0  0.86323  0.27737  0.14428  1.0000
  C   C317      1.0  0.05307  0.08954  0.12981  1.0000
  Fe  Fe66      1.0  0.97975  0.24427  0.12952  1.0000
  H   H507      1.0  0.07865  0.29953  0.14456  1.0000
  Fe  Fe67      1.0  0.68959  0.30606  0.21788  1.0000
  H   H508      1.0  0.75099  0.28732  0.45371  1.0000
  H   H509      1.0  0.88867  0.27637  0.13773  1.0000
  C   C318      1.0  0.79739  0.28025  0.16129  1.0000
  C   C319      1.0  0.81819  0.30295  0.16354  1.0000
  H   H510      1.0  0.82571  0.25444  0.59225  1.0000
  S   S129      1.0  0.94580  0.21543  0.15337  1.0000
  H   H511      1.0  0.68142  0.25938  0.45228  1.0000
  H   H512      1.0  0.87090  0.27881  0.28865  1.0000
  S   S130      1.0  0.76213  0.31402  0.30811  1.0000
  C   C320      1.0  0.05232  0.26187  0.15260  1.0000
  C   C321      1.0  0.05518  0.23404  0.15835  1.0000
  H   H513      1.0  0.80472  0.13644  0.12922  1.0000
  H   H514      1.0  0.86743  0.31890  0.15716  1.0000
  H   H515      1.0  0.88846  0.28545  0.23737  1.0000
  C   C322      1.0  0.78906  0.28121  0.60775  1.0000
  N   N34       1.0  0.72594  0.25773  0.42790  1.0000
  S   S131      1.0  0.64848  0.27897  0.20220  1.0000
  C   C323      1.0  0.61617  0.28254  0.25383  1.0000
  H   H516      1.0  0.68477  0.26965  0.40107  1.0000
  H   H517      1.0  0.63966  0.28804  0.26330  1.0000
  S   S132      1.0  0.68479  0.33191  0.25651  1.0000
  C   C324      1.0  0.58780  0.28193  0.27086  1.0000
  C   C325      1.0  0.96230  0.11658  0.12248  1.0000
  H   H518      1.0  0.71720  0.24993  0.47310  1.0000
  H   H519      1.0  0.60119  0.31788  0.47839  1.0000
  S   S133      1.0  0.85563  0.22559  0.12471  1.0000
  C   C326      1.0  0.85118  0.30141  0.15527  1.0000
  H   H520      1.0  0.03335  0.22159  0.16190  1.0000
  C   C327      1.0  0.68720  0.32530  0.37924  1.0000
  H   H521      1.0  0.88583  0.10356  0.12092  1.0000
  H   H522      1.0  0.79286  0.23904  0.14745  1.0000
  C   C328      1.0  0.84213  0.25493  0.14112  1.0000
  C   C329      1.0  0.80929  0.25634  0.14987  1.0000
  C   C330      1.0  0.75521  0.24047  0.42643  1.0000
  H   H523      1.0  0.89890  0.32021  0.24430  1.0000
  H   H524      1.0  0.80262  0.28882  0.26341  1.0000
  H   H525      1.0  0.08030  0.11852  0.59713  1.0000
  H   H526      1.0  0.75280  0.29410  0.41570  1.0000
  S   S134      1.0  0.97704  0.14302  0.14364  1.0000
  H   H527      1.0  0.81486  0.29404  0.22652  1.0000
  H   H528      1.0  0.90888  0.14834  0.13544  1.0000
  C   C331      1.0  0.70466  0.24778  0.45171  1.0000
  C   C332      1.0  0.82402  0.28858  0.24861  1.0000
  H   H529      1.0  0.74811  0.21904  0.42242  1.0000
  H   H530      1.0  0.69906  0.23608  0.39528  1.0000
  H   H531      1.0  0.69267  0.30140  0.31136  1.0000
  H   H532      1.0  0.77186  0.28131  0.16758  1.0000
  C   C333      1.0  0.86188  0.10937  0.13027  1.0000
  N   N35       1.0  0.85041  0.30749  0.25790  1.0000
  C   C334      1.0  0.95677  0.09086  0.13518  1.0000
  H   H533      1.0  0.93186  0.12989  0.56695  1.0000
  H   H534      1.0  0.86162  0.10151  0.15299  1.0000
  C   C335      1.0  0.73332  0.31840  0.33546  1.0000
  H   H535      1.0  0.87076  0.31214  0.21549  1.0000
  H   H536      1.0  0.97033  0.11243  0.56669  1.0000
  C   C336      1.0  0.82568  0.14613  0.14094  1.0000
  C   C337      1.0  0.70039  0.31056  0.33126  1.0000
  S   S135      1.0  0.01326  0.27610  0.14768  1.0000
  S   S136      1.0  0.66962  0.30591  0.48600  1.0000
  C   C338      1.0  0.73672  0.28586  0.43321  1.0000
  C   C339      1.0  0.58366  0.26731  0.21319  1.0000
  C   C340      1.0  0.88455  0.15240  0.14485  1.0000
  H   H537      1.0  0.88215  0.10700  0.58520  1.0000
  Fe  Fe68      1.0  0.71834  0.32127  0.50252  1.0000
  C   C341      1.0  0.76247  0.29769  0.59991  1.0000
  C   C342      1.0  0.80557  0.26751  0.58645  1.0000
  H   H538      1.0  0.76968  0.24078  0.44702  1.0000
  H   H539      1.0  0.82420  0.13954  0.16405  1.0000
  H   H540      1.0  0.88544  0.14515  0.16777  1.0000
  H   H541      1.0  0.93731  0.10253  0.54281  1.0000
  H   H542      1.0  0.06565  0.09952  0.11107  1.0000
  H   H543      1.0  0.83276  0.26737  0.24824  1.0000
  H   H544      1.0  0.06661  0.09539  0.14975  1.0000
  H   H545      1.0  0.77187  0.24760  0.40879  1.0000
  Fe  Fe69      1.0  0.96562  0.18422  0.12430  1.0000
  C   C343      1.0  0.75268  0.30071  0.57089  1.0000
  S   S137      1.0  0.75795  0.29095  0.51294  1.0000
  Fe  Fe70      1.0  0.91028  0.22424  0.11704  1.0000
  H   H546      1.0  0.58951  0.28752  0.29322  1.0000
  H   H547      1.0  0.73202  0.31326  0.56517  1.0000
  H   H548      1.0  0.80868  0.25993  0.54104  1.0000
  Fe  Fe71      1.0  0.75718  0.32932  0.20236  1.0000
  H   H549      1.0  0.72223  0.26522  0.38199  1.0000
  C   C344      1.0  0.67743  0.31393  0.35313  1.0000
  C   C345      1.0  0.76941  0.28727  0.54954  1.0000
  C   C346      1.0  0.79578  0.27056  0.55742  1.0000
  S   S138      1.0  0.07032  0.18665  0.60912  1.0000
  H   H550      1.0  0.84046  0.30063  0.30293  1.0000
  H   H551      1.0  0.88181  0.17478  0.14466  1.0000
  C   C347      1.0  0.08073  0.27795  0.14864  1.0000
  N   N36       1.0  0.85765  0.13906  0.12852  1.0000
  H   H552      1.0  0.65206  0.30749  0.34987  1.0000
  C   C348      1.0  0.94312  0.10960  0.56489  1.0000
  C   C349      1.0  0.89450  0.08711  0.58391  1.0000
  H   H553      1.0  0.02805  0.09834  0.13089  1.0000
  H   H554      1.0  0.84207  0.09856  0.11815  1.0000
  H   H555      1.0  0.82197  0.16848  0.13975  1.0000
  H   H556      1.0  0.88114  0.31368  0.29532  1.0000
  H   H557      1.0  0.86544  0.32907  0.58716  1.0000
  S   S139      1.0  0.65815  0.32724  0.40684  1.0000
  C   C350      1.0  0.74321  0.32971  0.36160  1.0000
  H   H558      1.0  0.77984  0.12795  0.70020  1.0000
  C   C351      1.0  0.82428  0.32395  0.03395  1.0000
  C   C352      1.0  0.05285  0.28992  0.02404  1.0000
  Fe  Fe72      1.0  0.88264  0.22902  0.70593  1.0000
  S   S140      1.0  0.88479  0.27048  0.68515  1.0000
  S   S141      1.0  0.88394  0.21896  0.75350  1.0000
  Fe  Fe73      1.0  0.88117  0.20111  0.64849  1.0000
  H   H559      1.0  0.03551  0.33020  0.94379  1.0000
  H   H560      1.0  0.83832  0.13913  0.08511  1.0000
  Fe  Fe74      1.0  0.92122  0.25257  0.65566  1.0000
  S   S142      1.0  0.96895  0.27418  0.64583  1.0000
  Fe  Fe75      1.0  0.84677  0.25427  0.65426  1.0000
  H   H561      1.0  0.03006  0.20671  0.71358  1.0000
  S   S143      1.0  0.92216  0.21216  0.67888  1.0000
  S   S144      1.0  0.84133  0.21416  0.67769  1.0000
  H   H562      1.0  0.06348  0.11836  0.67545  1.0000
  H   H563      1.0  0.97542  0.23482  0.76796  1.0000
  H   H564      1.0  0.04500  0.24648  0.05921  1.0000
  C   C353      1.0  0.85997  0.08761  0.66516  1.0000
  C   C354      1.0  0.90593  0.24199  0.77497  1.0000
  C   C355      1.0  0.91581  0.26754  0.76405  1.0000
  H   H565      1.0  0.99540  0.21775  0.69206  1.0000
  H   H566      1.0  0.96003  0.29464  0.89110  1.0000
  C   C356      1.0  0.03330  0.25097  0.74683  1.0000
  C   C357      1.0  0.99684  0.25030  0.63418  1.0000
  H   H567      1.0  0.79571  0.16200  0.69480  1.0000
  H   H568      1.0  0.04467  0.30942  0.01389  1.0000
  C   C358      1.0  0.83475  0.16274  0.74166  1.0000
  C   C359      1.0  0.85956  0.10976  0.64563  1.0000
  C   C360      1.0  0.87509  0.13421  0.65273  1.0000
  C   C361      1.0  0.89027  0.13675  0.67977  1.0000
  C   C362      1.0  0.89015  0.11473  0.69957  1.0000
  H   H569      1.0  0.85619  0.17087  0.09588  1.0000
  C   C363      1.0  0.07105  0.12563  0.65356  1.0000
  H   H570      1.0  0.90239  0.15554  0.68535  1.0000
  S   S145      1.0  0.00296  0.21224  0.10378  1.0000
  H   H571      1.0  0.78654  0.31415  0.08054  1.0000
  H   H572      1.0  0.77023  0.17399  0.74118  1.0000
  C   C364      1.0  0.01633  0.22486  0.70580  1.0000
  H   H573      1.0  0.04841  0.12806  0.63998  1.0000
  S   S146      1.0  0.88369  0.24020  0.62260  1.0000
  H   H574      1.0  0.85604  0.32790  0.10182  1.0000
  H   H575      1.0  0.84060  0.16432  0.76506  1.0000
  H   H576      1.0  0.79639  0.28268  0.06429  1.0000
  S   S147      1.0  0.80198  0.27913  0.64412  1.0000
  H   H577      1.0  0.02527  0.26291  0.76545  1.0000
  H   H578      1.0  0.90844  0.27406  0.74259  1.0000
  N   N37       1.0  0.00470  0.24085  0.72999  1.0000
  H   H579      1.0  0.88224  0.14302  0.08779  1.0000
  H   H580      1.0  0.06767  0.31237  0.09159  1.0000
  C   C365      1.0  0.93538  0.28480  0.78099  1.0000
  H   H581      1.0  0.92831  0.08682  0.63346  1.0000
  C   C366      1.0  0.03059  0.25645  0.63433  1.0000
  C   C367      1.0  0.98349  0.22361  0.74891  1.0000
  H   H582      1.0  0.79514  0.10144  0.74444  1.0000
  H   H583      1.0  0.81400  0.29102  0.09854  1.0000
  H   H584      1.0  0.03309  0.23708  0.69156  1.0000
  H   H585      1.0  0.90206  0.11660  0.72043  1.0000
  H   H586      1.0  0.94281  0.30455  0.77246  1.0000
  H   H587      1.0  0.94918  0.31200  0.92289  1.0000
  H   H588      1.0  0.00033  0.27703  0.70324  1.0000
  C   C368      1.0  0.98562  0.26406  0.71848  1.0000
  H   H589      1.0  0.96313  0.25724  0.70659  1.0000
  H   H590      1.0  0.81558  0.30754  0.01958  1.0000
  H   H591      1.0  0.04962  0.26441  0.73338  1.0000
  H   H592      1.0  0.03930  0.27619  0.64063  1.0000
  H   H593      1.0  0.97733  0.27709  0.73595  1.0000
  C   C369      1.0  0.85861  0.14844  0.09798  1.0000
  H   H594      1.0  0.96077  0.21664  0.73738  1.0000
  C   C370      1.0  0.87512  0.09013  0.69218  1.0000
  H   H595      1.0  0.82918  0.18354  0.73333  1.0000
  H   H596      1.0  0.85761  0.15641  0.73093  1.0000
  C   C371      1.0  0.77708  0.15366  0.75020  1.0000
  C   C372      1.0  0.94728  0.24927  0.00922  1.0000
  C   C373      1.0  0.91417  0.24082  0.00933  1.0000
  C   C374      1.0  0.88993  0.25763  0.99698  1.0000
  H   H597      1.0  0.99658  0.20532  0.75718  1.0000
  C   C375      1.0  0.93182  0.29170  0.98590  1.0000
  C   C376      1.0  0.95610  0.27457  0.99721  1.0000
  H   H598      1.0  0.90735  0.22124  0.01874  1.0000
  H   H599      1.0  0.05026  0.30639  0.89911  1.0000
  H   H600      1.0  0.98152  0.28136  0.99761  1.0000
  N   N38       1.0  0.80698  0.14369  0.73641  1.0000
  H   H601      1.0  0.90739  0.21436  0.81175  1.0000
  C   C377      1.0  0.95597  0.12097  0.09308  1.0000
  H   H602      1.0  0.87005  0.28431  0.07978  1.0000
  H   H603      1.0  0.86436  0.25107  0.99689  1.0000
  H   H604      1.0  0.96932  0.28001  0.92613  1.0000
  H   H605      1.0  0.02777  0.27651  0.91114  1.0000
  H   H606      1.0  0.01450  0.29967  0.95598  1.0000
  H   H607      1.0  0.93877  0.31154  0.97763  1.0000
  H   H608      1.0  0.82276  0.13381  0.69403  1.0000
  H   H609      1.0  0.94227  0.24465  0.84150  1.0000
  S   S148      1.0  0.97756  0.22920  0.02567  1.0000
  S   S149      1.0  0.86849  0.30590  0.97355  1.0000
  C   C378      1.0  0.81506  0.11662  0.74876  1.0000
  C   C379      1.0  0.06999  0.31185  0.06772  1.0000
  S   S150      1.0  0.97230  0.29664  0.82924  1.0000
  H   H610      1.0  0.96091  0.14060  0.08301  1.0000
  C   C380      1.0  0.80098  0.14181  0.70502  1.0000
  H   H611      1.0  0.92854  0.12088  0.61890  1.0000
  C   C381      1.0  0.01444  0.29434  0.06284  1.0000
  C   C382      1.0  0.93481  0.25117  0.81996  1.0000
  H   H612      1.0  0.06275  0.33202  0.05855  1.0000
  Fe  Fe76      1.0  0.96326  0.22203  0.07163  1.0000
  C   C383      1.0  0.89875  0.28329  0.98569  1.0000
  C   C384      1.0  0.02544  0.29642  0.89947  1.0000
  H   H613      1.0  0.81913  0.11712  0.77249  1.0000
  H   H614      1.0  0.83797  0.10878  0.73936  1.0000
  C   C385      1.0  0.98570  0.22458  0.62621  1.0000
  H   H615      1.0  0.05689  0.26256  0.09199  1.0000
  H   H616      1.0  0.89564  0.32084  0.61476  1.0000
  H   H617      1.0  0.00560  0.31400  0.05352  1.0000
  C   C386      1.0  0.05985  0.26352  0.06817  1.0000
  H   H618      1.0  0.75564  0.13967  0.74687  1.0000
  C   C387      1.0  0.93874  0.10036  0.61609  1.0000
  C   C388      1.0  0.94538  0.27641  0.80878  1.0000
  H   H619      1.0  0.88287  0.30210  0.04732  1.0000
  N   N39       1.0  0.00095  0.31357  0.91315  1.0000
  N   N40       1.0  0.83505  0.31298  0.06245  1.0000
  H   H620      1.0  0.85225  0.27571  0.04562  1.0000
  H   H621      1.0  0.01831  0.29223  0.87675  1.0000
  N   N41       1.0  0.04929  0.28991  0.05570  1.0000
  C   C389      1.0  0.86121  0.29294  0.05869  1.0000
  H   H622      1.0  0.96582  0.10186  0.61976  1.0000
  H   H623      1.0  0.85514  0.30601  0.61621  1.0000
  H   H624      1.0  0.99814  0.27804  0.05431  1.0000
  H   H625      1.0  0.07897  0.28704  0.01795  1.0000
  S   S151      1.0  0.94230  0.25622  0.09576  1.0000
  C   C390      1.0  0.80670  0.29966  0.07706  1.0000
  H   H626      1.0  0.01091  0.29453  0.08660  1.0000
  C   C391      1.0  0.96850  0.29944  0.91334  1.0000
  S   S152      1.0  0.92766  0.19098  0.08937  1.0000
  C   C392      1.0  0.91505  0.23404  0.80312  1.0000
  C   C393      1.0  0.01158  0.31883  0.94307  1.0000
  H   H627      1.0  0.78088  0.15564  0.77386  1.0000
  H   H628      1.0  0.03795  0.27322  0.01448  1.0000
  H   H629      1.0  0.06614  0.32219  0.62717  1.0000
  C   C394      1.0  0.00832  0.20500  0.61850  1.0000
  H   H630      1.0  0.74941  0.30818  0.61630  1.0000
  H   H631      1.0  0.04846  0.23400  0.75563  1.0000
  H   H632      1.0  0.84675  0.10803  0.62518  1.0000
  H   H633      1.0  0.84774  0.32268  0.66531  1.0000
  C   C395      1.0  0.05322  0.23682  0.62685  1.0000
  C   C396      1.0  0.04209  0.21114  0.61873  1.0000
  S   S153      1.0  0.87633  0.16099  0.62723  1.0000
  C   C397      1.0  0.94429  0.09964  0.07633  1.0000
  H   H634      1.0  0.93982  0.10300  0.05345  1.0000
  H   H635      1.0  0.07928  0.24160  0.62741  1.0000
  H   H636      1.0  0.95961  0.21986  0.62552  1.0000
  H   H637      1.0  0.99328  0.33115  0.95425  1.0000
  S   S154      1.0  0.01170  0.32555  0.75835  1.0000
  H   H638      1.0  0.02895  0.32566  0.64735  1.0000
  C   C398      1.0  0.07923  0.31301  0.68344  1.0000
  C   C399      1.0  0.86908  0.32499  0.61069  1.0000
  H   H639      1.0  0.05578  0.30278  0.68993  1.0000
  H   H640      1.0  0.08230  0.14626  0.65559  1.0000
  H   H641      1.0  0.99961  0.18522  0.61208  1.0000
  Fe  Fe77      1.0  0.99289  0.33144  0.80280  1.0000
  S   S155      1.0  0.68539  0.40692  0.22799  1.0000
  S   S156      1.0  0.70610  0.34001  0.18778  1.0000
  H   H642      1.0  0.72763  0.34285  0.40314  1.0000
  H   H643      1.0  0.85687  0.35024  0.26442  1.0000
  H   H644      1.0  0.76044  0.51747  0.52845  1.0000
  H   H645      1.0  0.65934  0.40095  0.59448  1.0000
  C   C400      1.0  0.67785  0.42025  0.19334  1.0000
  C   C401      1.0  0.68493  0.44760  0.18731  1.0000
  C   C402      1.0  0.68181  0.45809  0.15909  1.0000
  H   H646      1.0  0.60106  0.52445  0.11462  1.0000
  H   H647      1.0  0.82175  0.40996  0.11410  1.0000
  C   C403      1.0  0.66652  0.40358  0.17132  1.0000
  H   H648      1.0  0.69397  0.46048  0.20428  1.0000
  H   H649      1.0  0.68850  0.47898  0.15449  1.0000
  H   H650      1.0  0.80707  0.43944  0.17000  1.0000
  H   H651      1.0  0.66078  0.38250  0.17593  1.0000
  H   H652      1.0  0.81803  0.35744  0.59822  1.0000
  Fe  Fe78      1.0  0.67561  0.33813  0.45131  1.0000
  Fe  Fe79      1.0  0.73779  0.53484  0.12989  1.0000
  N   N42       1.0  0.77867  0.41646  0.13946  1.0000
  H   H653      1.0  0.78187  0.52406  0.56171  1.0000
  C   C404      1.0  0.77807  0.56987  0.18327  1.0000
  S   S157      1.0  0.60109  0.33568  0.53692  1.0000
  H   H654      1.0  0.73842  0.41396  0.16904  1.0000
  C   C405      1.0  0.80687  0.39981  0.13142  1.0000
  H   H655      1.0  0.60025  0.40871  0.60442  1.0000
  H   H656      1.0  0.59863  0.35746  0.16433  1.0000
  H   H657      1.0  0.58735  0.38676  0.57592  1.0000
  C   C406      1.0  0.67052  0.44146  0.13707  1.0000
  H   H658      1.0  0.59524  0.42795  0.52616  1.0000
  S   S158      1.0  0.68322  0.52982  0.12495  1.0000
  H   H659      1.0  0.61196  0.45911  0.56435  1.0000
  H   H660      1.0  0.69083  0.54017  0.58711  1.0000
  S   S159      1.0  0.75712  0.35728  0.23936  1.0000
  Fe  Fe80      1.0  0.70466  0.36481  0.22730  1.0000
  H   H661      1.0  0.77477  0.39692  0.18142  1.0000
  S   S160      1.0  0.75694  0.53974  0.17495  1.0000
  C   C407      1.0  0.66248  0.41427  0.14321  1.0000
  H   H662      1.0  0.87422  0.37813  0.59675  1.0000
  H   H663      1.0  0.62560  0.49513  0.12253  1.0000
  C   C408      1.0  0.78868  0.57358  0.21171  1.0000
  C   C409      1.0  0.79082  0.44255  0.15073  1.0000
  C   C410      1.0  0.75940  0.40175  0.16195  1.0000
  H   H664      1.0  0.59973  0.44898  0.12243  1.0000
  H   H665      1.0  0.74915  0.38225  0.15405  1.0000
  C   C411      1.0  0.65203  0.39930  0.57140  1.0000
  H   H666      1.0  0.75535  0.44649  0.59827  1.0000
  H   H667      1.0  0.81808  0.47061  0.56634  1.0000
  S   S161      1.0  0.62106  0.53529  0.58091  1.0000
  H   H668      1.0  0.78430  0.55779  0.22795  1.0000
  H   H669      1.0  0.77004  0.45542  0.15730  1.0000
  H   H670      1.0  0.63768  0.42075  0.51921  1.0000
  H   H671      1.0  0.78452  0.48727  0.49320  1.0000
  C   C412      1.0  0.63261  0.44531  0.57008  1.0000
  S   S162      1.0  0.64924  0.36956  0.47565  1.0000
  H   H672      1.0  0.73613  0.43443  0.11908  1.0000
  H   H673      1.0  0.80508  0.45441  0.13420  1.0000
  C   C413      1.0  0.61231  0.35595  0.22099  1.0000
  C   C414      1.0  0.75749  0.42172  0.11380  1.0000
  Fe  Fe81      1.0  0.69905  0.37984  0.49364  1.0000
  H   H674      1.0  0.80983  0.53320  0.50132  1.0000
  H   H675      1.0  0.84916  0.51813  0.50901  1.0000
  H   H676      1.0  0.78930  0.46106  0.52035  1.0000
  H   H677      1.0  0.82431  0.47267  0.50010  1.0000
  N   N43       1.0  0.62394  0.41686  0.56378  1.0000
  C   C415      1.0  0.83019  0.48821  0.55512  1.0000
  N   N44       1.0  0.80858  0.49998  0.53231  1.0000
  H   H678      1.0  0.60891  0.39361  0.52732  1.0000
  H   H679      1.0  0.76406  0.49114  0.55564  1.0000
  S   S163      1.0  0.82941  0.55469  0.59811  1.0000
  H   H680      1.0  0.81207  0.39063  0.55110  1.0000
  C   C416      1.0  0.82537  0.52377  0.51867  1.0000
  H   H681      1.0  0.83096  0.53961  0.53479  1.0000
  C   C417      1.0  0.80141  0.47941  0.51047  1.0000
  H   H682      1.0  0.62619  0.37546  0.22262  1.0000
  H   H683      1.0  0.79842  0.37978  0.12349  1.0000
  C   C418      1.0  0.83766  0.33535  0.25756  1.0000
  C   C419      1.0  0.73991  0.42097  0.53234  1.0000
  C   C420      1.0  0.73614  0.43676  0.55651  1.0000
  C   C421      1.0  0.75935  0.43544  0.57903  1.0000
  C   C422      1.0  0.78730  0.41956  0.57673  1.0000
  C   C423      1.0  0.79069  0.40323  0.55285  1.0000
  C   C424      1.0  0.76668  0.40360  0.53084  1.0000
  H   H684      1.0  0.71505  0.44969  0.55806  1.0000
  C   C425      1.0  0.59501  0.40795  0.58086  1.0000
  H   H685      1.0  0.65439  0.45253  0.55751  1.0000
  H   H686      1.0  0.59635  0.39124  0.17757  1.0000
  C   C426      1.0  0.68158  0.52937  0.60604  1.0000
  H   H687      1.0  0.83659  0.50325  0.57178  1.0000
  S   S164      1.0  0.81930  0.42171  0.60232  1.0000
  S   S165      1.0  0.71094  0.42272  0.50427  1.0000
  H   H688      1.0  0.85369  0.48099  0.54625  1.0000
  C   C427      1.0  0.77738  0.50855  0.54507  1.0000
  H   H689      1.0  0.58859  0.48031  0.16157  1.0000
  C   C428      1.0  0.61611  0.41473  0.53272  1.0000
  H   H690      1.0  0.76934  0.39102  0.51232  1.0000
  S   S166      1.0  0.72619  0.35144  0.46586  1.0000
  H   H691      1.0  0.62757  0.34182  0.20870  1.0000
  H   H692      1.0  0.61000  0.34708  0.24325  1.0000
  Fe  Fe82      1.0  0.64769  0.33859  0.51164  1.0000
  H   H693      1.0  0.64578  0.37761  0.56763  1.0000
  S   S167      1.0  0.69579  0.35105  0.53165  1.0000
  H   H694      1.0  0.82356  0.39573  0.15022  1.0000
  H   H695      1.0  0.65388  0.40136  0.12614  1.0000
  H   H696      1.0  0.67401  0.40475  0.55822  1.0000
  H   H697      1.0  0.81648  0.33697  0.27244  1.0000
  H   H698      1.0  0.63853  0.44782  0.59336  1.0000
  H   H699      1.0  0.82897  0.34177  0.23558  1.0000
  C   C429      1.0  0.64778  0.52389  0.60851  1.0000
  H   H700      1.0  0.76859  0.33607  0.36481  1.0000
  C   C430      1.0  0.72004  0.33355  0.38330  1.0000
  S   S168      1.0  0.80325  0.33364  0.17580  1.0000
  C   C431      1.0  0.58374  0.37106  0.17754  1.0000
  S   S169      1.0  0.03070  0.39047  0.75720  1.0000
  C   C432      1.0  0.63585  0.51013  0.63312  1.0000
  Fe  Fe83      1.0  0.98654  0.36457  0.74754  1.0000
  S   S170      1.0  0.95686  0.37038  0.70701  1.0000
  H   H701      1.0  0.07225  0.42998  0.86441  1.0000
  S   S171      1.0  0.81148  0.52216  0.67642  1.0000
  H   H702      1.0  0.88862  0.33738  0.66443  1.0000
  S   S172      1.0  0.80120  0.45550  0.67645  1.0000
  S   S173      1.0  0.74347  0.56254  0.09096  1.0000
  Fe  Fe84      1.0  0.77105  0.49240  0.66616  1.0000
  S   S174      1.0  0.71891  0.49741  0.68071  1.0000
  Fe  Fe85      1.0  0.84300  0.48528  0.68209  1.0000
  S   S175      1.0  0.88092  0.47987  0.71742  1.0000
  C   C433      1.0  0.87895  0.41396  0.77683  1.0000
  H   H703      1.0  0.85389  0.35793  0.67232  1.0000
  C   C434      1.0  0.93766  0.40190  0.70788  1.0000
  C   C435      1.0  0.94911  0.42164  0.72673  1.0000
  C   C436      1.0  0.93271  0.44629  0.72830  1.0000
  C   C437      1.0  0.90422  0.45095  0.71170  1.0000
  C   C438      1.0  0.89317  0.43143  0.69238  1.0000
  C   C439      1.0  0.91004  0.40701  0.69039  1.0000
  H   H704      1.0  0.97062  0.41803  0.74010  1.0000
  H   H705      1.0  0.94197  0.46165  0.74257  1.0000
  H   H706      1.0  0.87123  0.43488  0.67944  1.0000
  H   H707      1.0  0.90124  0.39175  0.67592  1.0000
  H   H708      1.0  0.06562  0.46975  0.83095  1.0000
  C   C440      1.0  0.69168  0.50731  0.65270  1.0000
  C   C441      1.0  0.74979  0.57381  0.66743  1.0000
  H   H709      1.0  0.07779  0.35978  0.99987  1.0000
  H   H710      1.0  0.64404  0.55008  0.02947  1.0000
  C   C442      1.0  0.70345  0.52112  0.62807  1.0000
  H   H711      1.0  0.61009  0.50143  0.08665  1.0000
  S   S176      1.0  0.66759  0.45432  0.10168  1.0000
  H   H712      1.0  0.60970  0.50611  0.63532  1.0000
  C   C443      1.0  0.60399  0.50266  0.10994  1.0000
  H   H713      1.0  0.80698  0.33480  0.62760  1.0000
  H   H714      1.0  0.85912  0.39822  0.77889  1.0000
  H   H715      1.0  0.85318  0.45710  0.82728  1.0000
  H   H716      1.0  0.06946  0.36041  0.70860  1.0000
  H   H717      1.0  0.68524  0.57189  0.65383  1.0000
  H   H718      1.0  0.03081  0.34798  0.69438  1.0000
  Fe  Fe86      1.0  0.89057  0.34718  0.97902  1.0000
  H   H719      1.0  0.74736  0.40259  0.10490  1.0000
  C   C444      1.0  0.65779  0.50202  0.65528  1.0000
  H   H720      1.0  0.80399  0.33863  0.03584  1.0000
  C   C445      1.0  0.06803  0.37457  0.98451  1.0000
  C   C446      1.0  0.99836  0.33957  0.89669  1.0000
  H   H721      1.0  0.64851  0.49156  0.67442  1.0000
  S   S177      1.0  0.74863  0.49675  0.10705  1.0000
  H   H722      1.0  0.02246  0.35067  0.89586  1.0000
  H   H723      1.0  0.05045  0.37730  0.67812  1.0000
  H   H724      1.0  0.89087  0.42299  0.84861  1.0000
  H   H725      1.0  0.86948  0.34576  0.06987  1.0000
  Fe  Fe87      1.0  0.69450  0.49425  0.09837  1.0000
  H   H726      1.0  0.91395  0.46137  0.81987  1.0000
  H   H727      1.0  0.98996  0.33632  0.87408  1.0000
  H   H728      1.0  0.59615  0.52622  0.00790  1.0000
  C   C447      1.0  0.88871  0.41159  0.82829  1.0000
  H   H729      1.0  0.86925  0.39011  0.63233  1.0000
  Fe  Fe88      1.0  0.90802  0.40393  0.95788  1.0000
  S   S178      1.0  0.93413  0.41420  0.99923  1.0000
  S   S179      1.0  0.90512  0.43641  0.92303  1.0000
  S   S180      1.0  0.03774  0.35436  0.81803  1.0000
  Fe  Fe89      1.0  0.81500  0.45816  0.62987  1.0000
  H   H730      1.0  0.84426  0.49009  0.97576  1.0000
  Fe  Fe90      1.0  0.89084  0.39330  0.02037  1.0000
  S   S181      1.0  0.86664  0.40835  0.06015  1.0000
  Fe  Fe91      1.0  0.95533  0.37274  0.99647  1.0000
  S   S182      1.0  0.00741  0.36037  0.00564  1.0000
  S   S183      1.0  0.86295  0.38602  0.97927  1.0000
  H   H731      1.0  0.84613  0.45885  0.78893  1.0000
  S   S184      1.0  0.69615  0.51814  0.05681  1.0000
  Fe  Fe92      1.0  0.01032  0.39088  0.80187  1.0000
  H   H732      1.0  0.91211  0.40051  0.82578  1.0000
  H   H733      1.0  0.93361  0.43926  0.79567  1.0000
  Fe  Fe93      1.0  0.68931  0.55432  0.08408  1.0000
  H   H734      1.0  0.87273  0.49425  0.02492  1.0000
  Fe  Fe94      1.0  0.74990  0.52368  0.06746  1.0000
  S   S185      1.0  0.78698  0.51512  0.03351  1.0000
  S   S186      1.0  0.93279  0.36420  0.95334  1.0000
  S   S187      1.0  0.01023  0.43032  0.82435  1.0000
  H   H735      1.0  0.93142  0.46766  0.97186  1.0000
  C   C448      1.0  0.93529  0.43395  0.89650  1.0000
  C   C449      1.0  0.94787  0.45771  0.88335  1.0000
  C   C450      1.0  0.97141  0.45637  0.86165  1.0000
  C   C451      1.0  0.98171  0.43125  0.85234  1.0000
  C   C452      1.0  0.96873  0.40738  0.86504  1.0000
  C   C453      1.0  0.94575  0.40873  0.88736  1.0000
  H   H736      1.0  0.93967  0.47722  0.89013  1.0000
  H   H737      1.0  0.98131  0.47484  0.85177  1.0000
  H   H738      1.0  0.97643  0.38794  0.85765  1.0000
  H   H739      1.0  0.93532  0.39033  0.89679  1.0000
  C   C454      1.0  0.84284  0.43723  0.05313  1.0000
  C   C455      1.0  0.83880  0.45603  0.07478  1.0000
  C   C456      1.0  0.82075  0.47964  0.06914  1.0000
  C   C457      1.0  0.80659  0.48444  0.04184  1.0000
  C   C458      1.0  0.80992  0.46530  0.02048  1.0000
  C   C459      1.0  0.82819  0.44183  0.02603  1.0000
  H   H740      1.0  0.81878  0.49461  0.08556  1.0000
  C   C460      1.0  0.61557  0.56959  0.06147  1.0000
  H   H741      1.0  0.79827  0.46864  0.99960  1.0000
  H   H742      1.0  0.83058  0.42723  0.00939  1.0000
  H   H743      1.0  0.90541  0.46438  0.78185  1.0000
  H   H744      1.0  0.03329  0.42800  0.92974  1.0000
  H   H745      1.0  0.86806  0.53280  0.99094  1.0000
  H   H746      1.0  0.90223  0.40352  0.77192  1.0000
  H   H747      1.0  0.75987  0.56643  0.64693  1.0000
  H   H748      1.0  0.87261  0.42711  0.75773  1.0000
  C   C461      1.0  0.02153  0.39778  0.96265  1.0000
  H   H749      1.0  0.86955  0.46100  0.97124  1.0000
  H   H750      1.0  0.99531  0.40106  0.96103  1.0000
  H   H751      1.0  0.89134  0.53401  0.95821  1.0000
  Fe  Fe95      1.0  0.82411  0.51956  0.62967  1.0000
  H   H752      1.0  0.83002  0.43062  0.80999  1.0000
  H   H753      1.0  0.94895  0.49976  0.98163  1.0000
  H   H754      1.0  0.91200  0.53777  0.99246  1.0000
  C   C462      1.0  0.89586  0.48836  0.01430  1.0000
  C   C463      1.0  0.86859  0.48343  0.96812  1.0000
  H   H755      1.0  0.86945  0.48782  0.94446  1.0000
  C   C464      1.0  0.92763  0.48991  0.97057  1.0000
  N   N45       1.0  0.89598  0.49710  0.98354  1.0000
  H   H756      1.0  0.91676  0.49763  0.02647  1.0000
  C   C465      1.0  0.89172  0.52676  0.98115  1.0000
  H   H757      1.0  0.92845  0.49595  0.94728  1.0000
  C   C466      1.0  0.61981  0.55258  0.03832  1.0000
  S   S188      1.0  0.85916  0.48529  0.63601  1.0000
  H   H758      1.0  0.89779  0.46595  0.01699  1.0000
  C   C467      1.0  0.04305  0.41303  0.94492  1.0000
  C   C468      1.0  0.91004  0.44959  0.80000  1.0000
  C   C469      1.0  0.85153  0.44477  0.80760  1.0000
  N   N46       1.0  0.88232  0.42996  0.80319  1.0000
  C   C470      1.0  0.03407  0.37887  0.98279  1.0000
  H   H759      1.0  0.86856  0.39623  0.83119  1.0000
  H   H760      1.0  0.85059  0.45282  0.09561  1.0000
  Fe  Fe96      1.0  0.05415  0.35179  0.77225  1.0000
  S   S189      1.0  0.96375  0.36830  0.79094  1.0000
  H   H761      1.0  0.85188  0.56782  0.65539  1.0000
  H   H762      1.0  0.07842  0.44990  0.80159  1.0000
  H   H763      1.0  0.82899  0.35105  0.08303  1.0000
  S   S190      1.0  0.91494  0.35289  0.02191  1.0000
  C   C471      1.0  0.07714  0.40943  0.94729  1.0000
  N   N47       1.0  0.85782  0.34781  0.62776  1.0000
  C   C472      1.0  0.05520  0.35704  0.68834  1.0000
  C   C473      1.0  0.87732  0.37244  0.62001  1.0000
  C   C474      1.0  0.82256  0.35271  0.62153  1.0000
  H   H764      1.0  0.77130  0.43269  0.09629  1.0000
  H   H765      1.0  0.04837  0.35498  0.63075  1.0000
  C   C475      1.0  0.05329  0.33540  0.64236  1.0000
  C   C476      1.0  0.59262  0.53918  0.02599  1.0000
  H   H766      1.0  0.73650  0.55645  0.67823  1.0000
  N   N48       1.0  0.07319  0.33950  0.66884  1.0000
  H   H767      1.0  0.72925  0.52625  0.62632  1.0000
  H   H768      1.0  0.98044  0.35318  0.90662  1.0000
  H   H769      1.0  0.77126  0.57933  0.68138  1.0000
  C   C477      1.0  0.86228  0.34117  0.65883  1.0000
  H   H770      1.0  0.81341  0.37006  0.63376  1.0000
  S   S191      1.0  0.78149  0.49246  0.61911  1.0000
  H   H771      1.0  0.90405  0.36962  0.62459  1.0000
  C   C478      1.0  0.84790  0.33536  0.08011  1.0000
  H   H772      1.0  0.58498  0.45616  0.08654  1.0000
  C   C479      1.0  0.58388  0.57316  0.07228  1.0000
  H   H773      1.0  0.70823  0.58205  0.62237  1.0000
  H   H774      1.0  0.84482  0.33479  0.02265  1.0000
  H   H775      1.0  0.89765  0.82645  0.14056  1.0000
  C   C480      1.0  0.05697  0.81626  0.51392  1.0000
  C   C481      1.0  0.92137  0.78303  0.19230  1.0000
  S   S192      1.0  0.01807  0.79450  0.31506  1.0000
  C   C482      1.0  0.65397  0.63606  0.14417  1.0000
  H   H776      1.0  0.85555  0.69654  0.23243  1.0000
  H   H777      1.0  0.89625  0.69323  0.28660  1.0000
  H   H778      1.0  0.93720  0.80647  0.39933  1.0000
  S   S193      1.0  0.93110  0.79406  0.27833  1.0000
  H   H779      1.0  0.66900  0.59423  0.18070  1.0000
  S   S194      1.0  0.84449  0.69821  0.14239  1.0000
  H   H780      1.0  0.61203  0.62813  0.53164  1.0000
  C   C483      1.0  0.69086  0.72163  0.12414  1.0000
  C   C484      1.0  0.93394  0.71805  0.24608  1.0000
  S   S195      1.0  0.80311  0.72388  0.19573  1.0000
  H   H781      1.0  0.80479  0.63014  0.15368  1.0000
  Fe  Fe97      1.0  0.75910  0.72244  0.16605  1.0000
  S   S196      1.0  0.70765  0.73056  0.18019  1.0000
  Fe  Fe98      1.0  0.83036  0.73934  0.15661  1.0000
  S   S197      1.0  0.87097  0.77091  0.15502  1.0000
  H   H782      1.0  0.68224  0.64032  0.19688  1.0000
  S   S198      1.0  0.76735  0.68010  0.15257  1.0000
  S   S199      1.0  0.01952  0.81426  0.24639  1.0000
  H   H783      1.0  0.93992  0.66946  0.22209  1.0000
  H   H784      1.0  0.93718  0.78258  0.17371  1.0000
  H   H785      1.0  0.63589  0.63337  0.16189  1.0000
  C   C485      1.0  0.93497  0.78855  0.21952  1.0000
  H   H786      1.0  0.59961  0.79048  0.17391  1.0000
  C   C486      1.0  0.59529  0.70155  0.57631  1.0000
  C   C487      1.0  0.08049  0.77876  0.39850  1.0000
  H   H787      1.0  0.00630  0.82397  0.46721  1.0000
  H   H788      1.0  0.91932  0.69216  0.19702  1.0000
  S   S200      1.0  0.96745  0.81811  0.54319  1.0000
  C   C488      1.0  0.96108  0.81408  0.40628  1.0000
  H   H789      1.0  0.86971  0.72575  0.25126  1.0000
  H   H790      1.0  0.93777  0.73100  0.22632  1.0000
  C   C489      1.0  0.91474  0.78878  0.24369  1.0000
  C   C490      1.0  0.71011  0.63094  0.12911  1.0000
  Fe  Fe99      1.0  0.05572  0.80105  0.28070  1.0000
  C   C491      1.0  0.88753  0.77777  0.18917  1.0000
  C   C492      1.0  0.86724  0.77828  0.21324  1.0000
  C   C493      1.0  0.88086  0.78364  0.24046  1.0000
  N   N49       1.0  0.59993  0.79604  0.12778  1.0000
  H   H791      1.0  0.77653  0.58728  0.14021  1.0000
  H   H792      1.0  0.84099  0.77467  0.21090  1.0000
  H   H793      1.0  0.86509  0.78385  0.25909  1.0000
  H   H794      1.0  0.95787  0.70848  0.25176  1.0000
  C   C494      1.0  0.67979  0.72304  0.15239  1.0000
  H   H795      1.0  0.87805  0.72286  0.21349  1.0000
  C   C495      1.0  0.90095  0.73651  0.58625  1.0000
  S   S201      1.0  0.93841  0.80795  0.46149  1.0000
  C   C496      1.0  0.90324  0.68069  0.26814  1.0000
  H   H796      1.0  0.96114  0.79211  0.22184  1.0000
  C   C497      1.0  0.81005  0.61836  0.19859  1.0000
  H   H797      1.0  0.81275  0.60045  0.24140  1.0000
  H   H798      1.0  0.92629  0.66997  0.27429  1.0000
  H   H799      1.0  0.90341  0.72688  0.56501  1.0000
  H   H800      1.0  0.59883  0.70773  0.14074  1.0000
  C   C498      1.0  0.87638  0.71132  0.23439  1.0000
  C   C499      1.0  0.91642  0.68013  0.21755  1.0000
  H   H801      1.0  0.72398  0.63704  0.18531  1.0000
  H   H802      1.0  0.90490  0.68213  0.59168  1.0000
  H   H803      1.0  0.88342  0.66501  0.26526  1.0000
  C   C500      1.0  0.96871  0.81512  0.43575  1.0000
  N   N50       1.0  0.68713  0.62705  0.15339  1.0000
  H   H804      1.0  0.89699  0.66439  0.21365  1.0000
  C   C501      1.0  0.60438  0.62335  0.55419  1.0000
  H   H805      1.0  0.92786  0.73182  0.26381  1.0000
  Fe  Fe100     1.0  0.81352  0.68284  0.17896  1.0000
  H   H806      1.0  0.85160  0.70102  0.57496  1.0000
  C   C502      1.0  0.85037  0.71162  0.59573  1.0000
  N   N51       1.0  0.90755  0.69754  0.24156  1.0000
  H   H807      1.0  0.63793  0.71893  0.18031  1.0000
  C   C503      1.0  0.64646  0.71825  0.15833  1.0000
  H   H808      1.0  0.67642  0.58547  0.14409  1.0000
  S   S202      1.0  0.82882  0.64892  0.20892  1.0000
  C   C504      1.0  0.79979  0.61460  0.17000  1.0000
  H   H809      1.0  0.59099  0.78274  0.60972  1.0000
  H   H810      1.0  0.60872  0.64197  0.56670  1.0000
  C   C505      1.0  0.69878  0.64309  0.17805  1.0000
  Fe  Fe101     1.0  0.98257  0.81172  0.28202  1.0000
  C   C506      1.0  0.68566  0.59802  0.16211  1.0000
  H   H811      1.0  0.06023  0.78618  0.48136  1.0000
  H   H812      1.0  0.65427  0.65790  0.13743  1.0000
  H   H813      1.0  0.92612  0.74208  0.59412  1.0000
  H   H814      1.0  0.63717  0.71923  0.55422  1.0000
  C   C507      1.0  0.63620  0.79453  0.12598  1.0000
  C   C508      1.0  0.98383  0.82407  0.38583  1.0000
  H   H815      1.0  0.03040  0.81632  0.51339  1.0000
  S   S203      1.0  0.78527  0.74191  0.12822  1.0000
  H   H816      1.0  0.64437  0.77318  0.12496  1.0000
  H   H817      1.0  0.71650  0.72544  0.11961  1.0000
  H   H818      1.0  0.59529  0.75984  0.15431  1.0000
  H   H819      1.0  0.81465  0.65212  0.60529  1.0000
  C   C509      1.0  0.58480  0.68519  0.59966  1.0000
  C   C510      1.0  0.78392  0.59029  0.16232  1.0000
  H   H820      1.0  0.67816  0.69993  0.58881  1.0000
  C   C511      1.0  0.65215  0.69572  0.59187  1.0000
  H   H821      1.0  0.69972  0.66518  0.17240  1.0000
  H   H822      1.0  0.81366  0.60889  0.57956  1.0000
  C   C512      1.0  0.86411  0.81387  0.59121  1.0000
  H   H823      1.0  0.06146  0.79435  0.39433  1.0000
  S   S204      1.0  0.77651  0.75757  0.57303  1.0000
  C   C513      1.0  0.85866  0.80435  0.56343  1.0000
  H   H824      1.0  0.87604  0.80920  0.54652  1.0000
  C   C514      1.0  0.59000  0.82468  0.12854  1.0000
  C   C515      1.0  0.62426  0.71221  0.13590  1.0000
  H   H825      1.0  0.88744  0.75573  0.58239  1.0000
  C   C516      1.0  0.83102  0.78780  0.55765  1.0000
  C   C517      1.0  0.80886  0.78073  0.57963  1.0000
  H   H826      1.0  0.97756  0.82394  0.36309  1.0000
  C   C518      1.0  0.62898  0.70660  0.57230  1.0000
  C   C519      1.0  0.07390  0.79915  0.49583  1.0000
  H   H827      1.0  0.82719  0.77996  0.53630  1.0000
  H   H828      1.0  0.71044  0.59038  0.16861  1.0000
  H   H829      1.0  0.62107  0.60747  0.56328  1.0000
  C   C520      1.0  0.82222  0.60936  0.60173  1.0000
  H   H830      1.0  0.71106  0.65246  0.12126  1.0000
  C   C521      1.0  0.99976  0.82445  0.44462  1.0000
  Fe  Fe102     1.0  0.79711  0.69923  0.11719  1.0000
  H   H831      1.0  0.73563  0.62523  0.13553  1.0000
  H   H832      1.0  0.06999  0.75911  0.39126  1.0000
  H   H833      1.0  0.64447  0.62439  0.12552  1.0000
  H   H834      1.0  0.83556  0.73010  0.59178  1.0000
  H   H835      1.0  0.64864  0.80366  0.14495  1.0000
  C   C522      1.0  0.80481  0.59768  0.21932  1.0000
  H   H836      1.0  0.86189  0.83096  0.16200  1.0000
  Fe  Fe103     1.0  0.94847  0.83324  0.50015  1.0000
  C   C523      1.0  0.58853  0.78154  0.15423  1.0000
  C   C524      1.0  0.81385  0.79098  0.60715  1.0000
  N   N52       1.0  0.88353  0.71842  0.60718  1.0000
  C   C525      1.0  0.07441  0.83333  0.53241  1.0000
  H   H837      1.0  0.70273  0.61815  0.11068  1.0000
  N   N53       1.0  0.72788  0.59710  0.66215  1.0000
  C   C526      1.0  0.82264  0.63382  0.61634  1.0000
  C   C527      1.0  0.64166  0.67917  0.61504  1.0000
  H   H838      1.0  0.73070  0.63709  0.64284  1.0000
  H   H839      1.0  0.87147  0.78718  0.09146  1.0000
  C   C528      1.0  0.69174  0.79091  0.73539  1.0000
  Fe  Fe104     1.0  0.78917  0.69021  0.65343  1.0000
  S   S205      1.0  0.83291  0.66452  0.66415  1.0000
  Fe  Fe105     1.0  0.74784  0.73542  0.67641  1.0000
  C   C529      1.0  0.62699  0.75255  0.64688  1.0000
  S   S206      1.0  0.74192  0.76159  0.71465  1.0000
  H   H840      1.0  0.73596  0.61297  0.70435  1.0000
  C   C530      1.0  0.80358  0.78528  0.04787  1.0000
  S   S207      1.0  0.74520  0.69025  0.68201  1.0000
  S   S208      1.0  0.79500  0.73525  0.65211  1.0000
  C   C531      1.0  0.83352  0.63444  0.64506  1.0000
  C   C532      1.0  0.74657  0.61937  0.64762  1.0000
  C   C533      1.0  0.84438  0.61065  0.65897  1.0000
  S   S209      1.0  0.67037  0.66559  0.63960  1.0000
  H   H841      1.0  0.63860  0.74787  0.66830  1.0000
  S   S210      1.0  0.75990  0.68806  0.61232  1.0000
  C   C534      1.0  0.69719  0.79202  0.68350  1.0000
  H   H842      1.0  0.75225  0.80479  0.76976  1.0000
  H   H843      1.0  0.76243  0.82741  0.79838  1.0000
  H   H844      1.0  0.69884  0.62410  0.68649  1.0000
  S   S211      1.0  0.68099  0.82997  0.98726  1.0000
  C   C535      1.0  0.70767  0.78251  0.71076  1.0000
  N   N54       1.0  0.59183  0.75929  0.64958  1.0000
  H   H845      1.0  0.69955  0.78344  0.75650  1.0000
  C   C536      1.0  0.60802  0.67373  0.61883  1.0000
  H   H846      1.0  0.71041  0.78668  0.66452  1.0000
  H   H847      1.0  0.85472  0.78050  0.01261  1.0000
  H   H848      1.0  0.85311  0.61109  0.68110  1.0000
  C   C537      1.0  0.80760  0.83145  0.75563  1.0000
  H   H849      1.0  0.80011  0.80747  0.04521  1.0000
  H   H850      1.0  0.78581  0.77776  0.06447  1.0000
  H   H851      1.0  0.82441  0.74057  0.07630  1.0000
  H   H852      1.0  0.66308  0.81761  0.65988  1.0000
  H   H853      1.0  0.83537  0.73893  0.03924  1.0000
  C   C538      1.0  0.69976  0.58889  0.64363  1.0000
  C   C539      1.0  0.66861  0.71621  0.10166  1.0000
  C   C540      1.0  0.66556  0.80891  0.73285  1.0000
  H   H854      1.0  0.64551  0.80546  0.10627  1.0000
  S   S212      1.0  0.71506  0.73715  0.63711  1.0000
  H   H855      1.0  0.65354  0.81539  0.75205  1.0000
  C   C541      1.0  0.84338  0.58611  0.64453  1.0000
  C   C542      1.0  0.84135  0.74930  0.05970  1.0000
  H   H856      1.0  0.75875  0.82094  0.71833  1.0000
  H   H857      1.0  0.85867  0.81195  0.03093  1.0000
  H   H858      1.0  0.71010  0.81802  0.88801  1.0000
  H   H859      1.0  0.63013  0.73458  0.63332  1.0000
  H   H860      1.0  0.58381  0.73068  0.68472  1.0000
  S   S213      1.0  0.79499  0.68187  0.07303  1.0000
  H   H861      1.0  0.63506  0.64800  0.99898  1.0000
  H   H862      1.0  0.86761  0.71909  0.65119  1.0000
  H   H863      1.0  0.69401  0.65266  0.98431  1.0000
  H   H864      1.0  0.70869  0.67090  0.06072  1.0000
  N   N55       1.0  0.67508  0.66174  0.02596  1.0000
  C   C543      1.0  0.74623  0.73921  0.00782  1.0000
  C   C544      1.0  0.76609  0.71844  0.99838  1.0000
  C   C545      1.0  0.78036  0.70023  0.01845  1.0000
  C   C546      1.0  0.77471  0.70285  0.04789  1.0000
  C   C547      1.0  0.75368  0.72277  0.05713  1.0000
  C   C548      1.0  0.73931  0.74085  0.03712  1.0000
  H   H865      1.0  0.77121  0.71694  0.97564  1.0000
  H   H866      1.0  0.79651  0.68466  0.01122  1.0000
  H   H867      1.0  0.74842  0.72424  0.07968  1.0000
  C   C549      1.0  0.71541  0.60646  0.68987  1.0000
  H   H868      1.0  0.69305  0.70278  0.02124  1.0000
  C   C550      1.0  0.67058  0.80972  0.68090  1.0000
  H   H869      1.0  0.69013  0.63753  0.06276  1.0000
  H   H870      1.0  0.64668  0.62453  0.02755  1.0000
  N   N56       1.0  0.83787  0.77899  0.05637  1.0000
  C   C551      1.0  0.70087  0.65078  0.00758  1.0000
  C   C552      1.0  0.67009  0.69062  0.01809  1.0000
  S   S214      1.0  0.73108  0.76332  0.98297  1.0000
  H   H871      1.0  0.65075  0.69961  0.03145  1.0000
  H   H872      1.0  0.70513  0.62895  0.01283  1.0000
  H   H873      1.0  0.72481  0.66180  0.01057  1.0000
  C   C553      1.0  0.64383  0.64644  0.02177  1.0000
  C   C554      1.0  0.84598  0.79188  0.08398  1.0000
  C   C555      1.0  0.68556  0.65908  0.05651  1.0000
  H   H874      1.0  0.72255  0.75578  0.04439  1.0000
  H   H875      1.0  0.66622  0.66643  0.07103  1.0000
  H   H876      1.0  0.59107  0.76157  0.10130  1.0000
  H   H877      1.0  0.90492  0.73804  0.64393  1.0000
  H   H878      1.0  0.59988  0.77940  0.68965  1.0000
  H   H879      1.0  0.67727  0.71616  0.07971  1.0000
  H   H880      1.0  0.62402  0.65423  0.03560  1.0000
  C   C556      1.0  0.65495  0.81830  0.70563  1.0000
  H   H881      1.0  0.79652  0.77601  0.02705  1.0000
  Fe  Fe106     1.0  0.72264  0.80374  0.00236  1.0000
  H   H882      1.0  0.66246  0.69346  0.99510  1.0000
  S   S215      1.0  0.71485  0.81027  0.04935  1.0000
  C   C557      1.0  0.86049  0.78956  0.03383  1.0000
  S   S216      1.0  0.60790  0.70464  0.07896  1.0000
  H   H883      1.0  0.79617  0.78651  0.62389  1.0000
  H   H884      1.0  0.59316  0.79341  0.08189  1.0000
  H   H885      1.0  0.84384  0.81431  0.08211  1.0000
  H   H886      1.0  0.92739  0.69753  0.62078  1.0000
  H   H887      1.0  0.59991  0.66091  0.63679  1.0000
  H   H888      1.0  0.80698  0.81010  0.74842  1.0000
  H   H889      1.0  0.84538  0.81504  0.63439  1.0000
  H   H890      1.0  0.76755  0.62648  0.66128  1.0000
  H   H891      1.0  0.64136  0.76963  0.63675  1.0000
  C   C558      1.0  0.58874  0.78310  0.66785  1.0000
  Fe  Fe107     1.0  0.71605  0.69182  0.64075  1.0000
  H   H892      1.0  0.68263  0.60598  0.63942  1.0000
  H   H893      1.0  0.88961  0.67919  0.62776  1.0000
  H   H894      1.0  0.86680  0.74372  0.06645  1.0000
  C   C559      1.0  0.84151  0.80740  0.61297  1.0000
  C   C560      1.0  0.75324  0.82649  0.77571  1.0000
  H   H895      1.0  0.88659  0.78499  0.03945  1.0000
  H   H896      1.0  0.60143  0.80126  0.65815  1.0000
  C   C561      1.0  0.88040  0.73231  0.63478  1.0000
  H   H897      1.0  0.75674  0.61293  0.62680  1.0000
  H   H898      1.0  0.82898  0.78478  0.10136  1.0000
  H   H899      1.0  0.86597  0.75122  0.63195  1.0000
  C   C562      1.0  0.83211  0.58542  0.61596  1.0000
  C   C563      1.0  0.63522  0.71157  0.10748  1.0000
  Fe  Fe108     1.0  0.76228  0.73353  0.61296  1.0000
  C   C564      1.0  0.58472  0.78336  0.10233  1.0000
  S   S217      1.0  0.65006  0.58561  0.07731  1.0000
  H   H900      1.0  0.70115  0.59011  0.70142  1.0000
  H   H901      1.0  0.83646  0.69826  0.61114  1.0000
  C   C565      1.0  0.90225  0.69324  0.61202  1.0000
  H   H902      1.0  0.81904  0.83150  0.77757  1.0000
  H   H903      1.0  0.89833  0.84037  0.20361  1.0000
  C   C566      1.0  0.01413  0.83493  0.39500  1.0000
  S   S218      1.0  0.91979  0.94859  0.17395  1.0000
  S   S219      1.0  0.04265  0.89009  0.23086  1.0000
  C   C567      1.0  0.95694  0.89438  0.42593  1.0000
  C   C568      1.0  0.95417  0.93436  0.19163  1.0000
  C   C569      1.0  0.95032  0.91861  0.21700  1.0000
  C   C570      1.0  0.97735  0.90482  0.22924  1.0000
  C   C571      1.0  0.00839  0.90732  0.21649  1.0000
  C   C572      1.0  0.01227  0.92369  0.19162  1.0000
  C   C573      1.0  0.98526  0.93702  0.17916  1.0000
  H   H904      1.0  0.92635  0.91662  0.22686  1.0000
  H   H905      1.0  0.97417  0.89241  0.24856  1.0000
  H   H906      1.0  0.03601  0.92574  0.18158  1.0000
  H   H907      1.0  0.98865  0.94928  0.15976  1.0000
  H   H908      1.0  0.06636  0.91316  0.44662  1.0000
  H   H909      1.0  0.96619  0.87340  0.42877  1.0000
  H   H910      1.0  0.83379  0.86471  0.58490  1.0000
  C   C574      1.0  0.87349  0.88329  0.17340  1.0000
  S   S220      1.0  0.06646  0.03640  0.58088  1.0000
  S   S221      1.0  0.97155  0.99604  0.12226  1.0000
  H   H911      1.0  0.99795  0.02248  0.58589  1.0000
  H   H912      1.0  0.93246  0.89183  0.37218  1.0000
  H   H913      1.0  0.04597  0.05255  0.17276  1.0000
  H   H914      1.0  0.08092  0.93495  0.47468  1.0000
  H   H915      1.0  0.89139  0.88104  0.38194  1.0000
  N   N57       1.0  0.89764  0.86359  0.16360  1.0000
  H   H916      1.0  0.91055  0.85776  0.44192  1.0000
  N   N58       1.0  0.84125  0.90330  0.60437  1.0000
  H   H917      1.0  0.04608  0.84196  0.43140  1.0000
  S   S222      1.0  0.04209  0.84926  0.37032  1.0000
  H   H918      1.0  0.03831  0.91208  0.56929  1.0000
  H   H919      1.0  0.86665  0.85003  0.12873  1.0000
  H   H920      1.0  0.86418  0.91947  0.56578  1.0000
  H   H921      1.0  0.86067  0.89354  0.15486  1.0000
  C   C575      1.0  0.03367  0.04742  0.15200  1.0000
  Fe  Fe109     1.0  0.02893  0.83773  0.32523  1.0000
  H   H922      1.0  0.88408  0.07332  0.60105  1.0000
  C   C576      1.0  0.94612  0.06360  0.58376  1.0000
  C   C577      1.0  0.90233  0.87909  0.43938  1.0000
  H   H923      1.0  0.05893  0.94399  0.57488  1.0000
  S   S223      1.0  0.89880  0.83402  0.59930  1.0000
  H   H924      1.0  0.07109  0.89586  0.14038  1.0000
  H   H925      1.0  0.92570  0.85982  0.39054  1.0000
  S   S224      1.0  0.99003  0.85486  0.29555  1.0000
  H   H926      1.0  0.08211  0.91321  0.57506  1.0000
  S   S225      1.0  0.96334  0.88206  0.56312  1.0000
  H   H927      1.0  0.90490  0.88842  0.46085  1.0000
  H   H928      1.0  0.92448  0.97291  0.59209  1.0000
  Fe  Fe110     1.0  0.93535  0.96185  0.12944  1.0000
  C   C578      1.0  0.88020  0.84185  0.14799  1.0000
  S   S226      1.0  0.98356  0.86868  0.49688  1.0000
  H   H929      1.0  0.05642  0.90526  0.48363  1.0000
  H   H930      1.0  0.97255  0.90498  0.40945  1.0000
  Fe  Fe111     1.0  0.92974  0.84549  0.56102  1.0000
  H   H931      1.0  0.85446  0.87333  0.18735  1.0000
  S   S227      1.0  0.06929  0.84303  0.29330  1.0000
  H   H932      1.0  0.03256  0.02491  0.15087  1.0000
  H   H933      1.0  0.96097  0.90470  0.44675  1.0000
  S   S228      1.0  0.05335  0.85679  0.55276  1.0000
  C   C579      1.0  0.91761  0.88124  0.38924  1.0000
  H   H934      1.0  0.90907  0.88714  0.12516  1.0000
  H   H935      1.0  0.94095  0.04959  0.12821  1.0000
  S   S229      1.0  0.90761  0.85727  0.51815  1.0000
  C   C580      1.0  0.05847  0.92217  0.58167  1.0000
  H   H936      1.0  0.88749  0.92441  0.59835  1.0000
  H   H937      1.0  0.93765  0.04861  0.60057  1.0000
  S   S230      1.0  0.87742  0.01643  0.58435  1.0000
  Fe  Fe112     1.0  0.94437  0.89153  0.51844  1.0000
  S   S231      1.0  0.92984  0.93120  0.49772  1.0000
  H   H938      1.0  0.91296  0.93287  0.43593  1.0000
  H   H939      1.0  0.92799  0.86769  0.20162  1.0000
  H   H940      1.0  0.87564  0.87848  0.43367  1.0000
  Fe  Fe113     1.0  0.99939  0.85568  0.54141  1.0000
  C   C581      1.0  0.89364  0.99325  0.56052  1.0000
  C   C582      1.0  0.91564  0.97331  0.57011  1.0000
  C   C583      1.0  0.92688  0.95410  0.55097  1.0000
  C   C584      1.0  0.91673  0.95523  0.52203  1.0000
  C   C585      1.0  0.89580  0.97582  0.51221  1.0000
  C   C586      1.0  0.88414  0.99470  0.53144  1.0000
  H   H941      1.0  0.88528  0.89154  0.58305  1.0000
  H   H942      1.0  0.94386  0.93879  0.55850  1.0000
  H   H943      1.0  0.88811  0.97693  0.48980  1.0000
  H   H944      1.0  0.86740  0.01024  0.52384  1.0000
  C   C587      1.0  0.92155  0.87741  0.14415  1.0000
  N   N59       1.0  0.92175  0.89431  0.41735  1.0000
  C   C588      1.0  0.07617  0.91340  0.46913  1.0000
  H   H945      1.0  0.79797  0.87774  0.60158  1.0000
  H   H946      1.0  0.93969  0.05481  0.56254  1.0000
  C   C589      1.0  0.82023  0.88361  0.58892  1.0000
  H   H947      1.0  0.88363  0.92326  0.40867  1.0000
  H   H948      1.0  0.81184  0.89203  0.56762  1.0000
  C   C590      1.0  0.91016  0.92252  0.41497  1.0000
  C   C591      1.0  0.04456  0.01866  0.60801  1.0000
  Fe  Fe114     1.0  0.02974  0.85611  0.26221  1.0000
  H   H949      1.0  0.92439  0.93464  0.39864  1.0000
  H   H950      1.0  0.93555  0.89361  0.15537  1.0000
  H   H951      1.0  0.97343  0.06529  0.58545  1.0000
  C   C592      1.0  0.01038  0.01543  0.60535  1.0000
  H   H952      1.0  0.00784  0.05451  0.15277  1.0000
  H   H953      1.0  0.07859  0.86014  0.47708  1.0000
  N   N60       1.0  0.05131  0.05979  0.12708  1.0000
  C   C593      1.0  0.02232  0.83453  0.42433  1.0000
  H   H954      1.0  0.88567  0.89945  0.18613  1.0000
  C   C594      1.0  0.91538  0.85178  0.18886  1.0000
  H   H955      1.0  0.93474  0.83769  0.18219  1.0000
  H   H956      1.0  0.07687  0.88552  0.17746  1.0000
  C   C595      1.0  0.94540  0.06940  0.11835  1.0000
  H   H957      1.0  0.81448  0.93795  0.58814  1.0000
  H   H958      1.0  0.93986  0.86309  0.13598  1.0000
  H   H959      1.0  0.03310  0.87837  0.60976  1.0000
  H   H960      1.0  0.88748  0.07821  0.56289  1.0000
  C   C596      1.0  0.87081  0.90997  0.58709  1.0000
  H   H961      1.0  0.60112  0.83499  0.14738  1.0000
  C   C597      1.0  0.82253  0.92822  0.60893  1.0000
  H   H962      1.0  0.00054  0.91958  0.61050  1.0000
  Fe  Fe115     1.0  0.63044  0.86644  0.74243  1.0000
  S   S232      1.0  0.61281  0.90890  0.74461  1.0000
  Fe  Fe116     1.0  0.66261  0.91770  0.76427  1.0000
  S   S233      1.0  0.69437  0.95430  0.75323  1.0000
  H   H963      1.0  0.62849  0.90268  0.87796  1.0000
  S   S234      1.0  0.68141  0.87607  0.75817  1.0000
  Fe  Fe117     1.0  0.86057  0.96712  0.68034  1.0000
  S   S235      1.0  0.84198  0.00688  0.66268  1.0000
  S   S236      1.0  0.82627  0.93112  0.68728  1.0000
  Fe  Fe118     1.0  0.93261  0.98533  0.67618  1.0000
  S   S237      1.0  0.91959  0.02653  0.65880  1.0000
  S   S238      1.0  0.98627  0.97489  0.67939  1.0000
  Fe  Fe119     1.0  0.88028  0.02486  0.69212  1.0000
  Fe  Fe120     1.0  0.88325  0.00446  0.63121  1.0000
  S   S239      1.0  0.89619  0.98518  0.71231  1.0000
  S   S240      1.0  0.89883  0.96319  0.64630  1.0000
  H   H964      1.0  0.75384  0.98591  0.74543  1.0000
  H   H965      1.0  0.82169  0.92823  0.03589  1.0000
  S   S241      1.0  0.76136  0.83649  0.99765  1.0000
  H   H966      1.0  0.82412  0.84334  0.74083  1.0000
  C   C598      1.0  0.73056  0.94810  0.73403  1.0000
  C   C599      1.0  0.73394  0.92428  0.71881  1.0000
  C   C600      1.0  0.76331  0.91936  0.70433  1.0000
  C   C601      1.0  0.78937  0.93833  0.70476  1.0000
  C   C602      1.0  0.78578  0.96247  0.71933  1.0000
  C   C603      1.0  0.75641  0.96733  0.73393  1.0000
  H   H967      1.0  0.71366  0.90997  0.71758  1.0000
  H   H968      1.0  0.76564  0.90105  0.69241  1.0000
  H   H969      1.0  0.80576  0.97726  0.71967  1.0000
  C   C604      1.0  0.00854  0.99212  0.65212  1.0000
  C   C605      1.0  0.07038  0.00130  0.06536  1.0000
  N   N61       1.0  0.79106  0.93797  0.99912  1.0000
  H   H970      1.0  0.78961  0.95142  0.04279  1.0000
  C   C606      1.0  0.04288  0.99474  0.65448  1.0000
  C   C607      1.0  0.75988  0.84201  0.72623  1.0000
  C   C608      1.0  0.71696  0.85192  0.91585  1.0000
  H   H971      1.0  0.08165  0.95457  0.62300  1.0000
  H   H972      1.0  0.75142  0.88058  0.76507  1.0000
  C   C609      1.0  0.61168  0.88126  0.02016  1.0000
  N   N62       1.0  0.60790  0.88484  0.91675  1.0000
  C   C610      1.0  0.62304  0.85827  0.91248  1.0000
  H   H973      1.0  0.65364  0.90558  0.92612  1.0000
  C   C611      1.0  0.08062  0.93256  0.62870  1.0000
  C   C612      1.0  0.60420  0.89934  0.88856  1.0000
  C   C613      1.0  0.06089  0.00799  0.63242  1.0000
  C   C614      1.0  0.99238  0.00218  0.62733  1.0000
  H   H974      1.0  0.78642  0.87254  0.78731  1.0000
  H   H975      1.0  0.05551  0.98666  0.67345  1.0000
  H   H976      1.0  0.72744  0.83373  0.77560  1.0000
  C   C615      1.0  0.79768  0.91280  0.98388  1.0000
  H   H977      1.0  0.79191  0.88406  0.75049  1.0000
  C   C616      1.0  0.93947  0.07377  0.08883  1.0000
  S   S242      1.0  0.87458  0.06277  0.71693  1.0000
  H   H978      1.0  0.59912  0.91655  0.99417  1.0000
  Fe  Fe121     1.0  0.59836  0.89640  0.78977  1.0000
  H   H979      1.0  0.69924  0.89677  0.84763  1.0000
  C   C617      1.0  0.81416  0.95959  0.98898  1.0000
  H   H980      1.0  0.86768  0.90550  0.64474  1.0000
  S   S243      1.0  0.61232  0.85301  0.78588  1.0000
  H   H981      1.0  0.82151  0.85367  0.02427  1.0000
  H   H982      1.0  0.04974  0.88611  0.64474  1.0000
  S   S244      1.0  0.78722  0.85387  0.07852  1.0000
  H   H983      1.0  0.07757  0.93063  0.65249  1.0000
  C   C618      1.0  0.62927  0.90103  0.93598  1.0000
  H   H984      1.0  0.07185  0.07133  0.66061  1.0000
  H   H985      1.0  0.75090  0.96535  0.00385  1.0000
  C   C619      1.0  0.58977  0.89880  0.00581  1.0000
  Fe  Fe122     1.0  0.71890  0.86344  0.98683  1.0000
  S   S245      1.0  0.72130  0.89524  0.95140  1.0000
  C   C620      1.0  0.75676  0.94621  0.99309  1.0000
  S   S246      1.0  0.71053  0.87532  0.03240  1.0000
  Fe  Fe123     1.0  0.93302  0.94740  0.06637  1.0000
  H   H986      1.0  0.73430  0.84979  0.72545  1.0000
  S   S247      1.0  0.91189  0.91901  0.03375  1.0000
  Fe  Fe124     1.0  0.99701  0.96704  0.09409  1.0000
  H   H987      1.0  0.96613  0.99906  0.62469  1.0000
  N   N63       1.0  0.05353  0.91866  0.61308  1.0000
  H   H988      1.0  0.84790  0.06875  0.65956  1.0000
  N   N64       1.0  0.77416  0.84283  0.75568  1.0000
  S   S248      1.0  0.96987  0.97987  0.05375  1.0000
  S   S249      1.0  0.62342  0.84195  0.70297  1.0000
  H   H989      1.0  0.73881  0.93034  0.00076  1.0000
  H   H990      1.0  0.77991  0.91604  0.03874  1.0000
  S   S250      1.0  0.69130  0.84040  0.83269  1.0000
  H   H991      1.0  0.04543  0.00159  0.05689  1.0000
  H   H992      1.0  0.07679  0.87984  0.61527  1.0000
  Fe  Fe125     1.0  0.74992  0.84538  0.04354  1.0000
  H   H993      1.0  0.58824  0.88776  0.87338  1.0000
  Fe  Fe126     1.0  0.94071  0.00567  0.08294  1.0000
  H   H994      1.0  0.84030  0.95390  0.99330  1.0000
  H   H995      1.0  0.63789  0.88543  0.01946  1.0000
  H   H996      1.0  0.81142  0.96363  0.96534  1.0000
  C   C621      1.0  0.70294  0.85597  0.86485  1.0000
  C   C622      1.0  0.70369  0.88421  0.86664  1.0000
  C   C623      1.0  0.71062  0.89628  0.89308  1.0000
  C   C624      1.0  0.71658  0.88012  0.91783  1.0000
  H   H997      1.0  0.63409  0.89005  0.95689  1.0000
  C   C625      1.0  0.77611  0.87120  0.76504  1.0000
  H   H998      1.0  0.61790  0.92070  0.94083  1.0000
  H   H999      1.0  0.71076  0.91812  0.89442  1.0000
  H   H1000     1.0  0.86528  0.87235  0.63016  1.0000
  H   H1001     1.0  0.75213  0.94935  0.96951  1.0000
  C   C626      1.0  0.82293  0.87071  0.06646  1.0000
  C   C627      1.0  0.83437  0.86717  0.03857  1.0000
  C   C628      1.0  0.86274  0.88115  0.02910  1.0000
  C   C629      1.0  0.87917  0.89921  0.04724  1.0000
  C   C630      1.0  0.86805  0.90240  0.07531  1.0000
  C   C631      1.0  0.84008  0.88796  0.08499  1.0000
  H   H1002     1.0  0.82980  0.88643  0.64641  1.0000
  H   H1003     1.0  0.87155  0.87854  0.00744  1.0000
  H   H1004     1.0  0.88055  0.91648  0.08930  1.0000
  S   S251      1.0  0.90177  0.97407  0.09270  1.0000
  H   H1005     1.0  0.59294  0.91954  0.89094  1.0000
  H   H1006     1.0  0.79301  0.91532  0.96024  1.0000
  H   H1007     1.0  0.01782  0.92976  0.64446  1.0000
  C   C632      1.0  0.05328  0.88948  0.62115  1.0000
  C   C633      1.0  0.79569  0.93320  0.03050  1.0000
  C   C634      1.0  0.59956  0.85882  0.03600  1.0000
  H   H1008     1.0  0.80999  0.97891  0.00004  1.0000
  S   S252      1.0  0.64634  0.90932  0.80992  1.0000
  H   H1009     1.0  0.78149  0.89579  0.99168  1.0000
  Fe  Fe127     1.0  0.66186  0.86685  0.80216  1.0000
  H   H1010     1.0  0.77476  0.85444  0.71064  1.0000
  S   S253      1.0  0.92640  0.04728  0.06704  1.0000
  H   H1011     1.0  0.82368  0.90652  0.98696  1.0000
  C   C635      1.0  0.02169  0.93047  0.62070  1.0000
  H   H1012     1.0  0.04707  0.06048  0.08072  1.0000
  H   H1013     1.0  0.64758  0.86073  0.90230  1.0000
  Fe  Fe128     1.0  0.67631  0.83923  0.03393  1.0000
  C   C636      1.0  0.71035  0.83988  0.88934  1.0000
  S   S254      1.0  0.62678  0.83713  0.05442  1.0000
  H   H1014     1.0  0.60763  0.84539  0.89817  1.0000
  H   H1015     1.0  0.72206  0.83929  0.93475  1.0000
  C   C637      1.0  0.03345  0.05311  0.10017  1.0000
  C   C638      1.0  0.85145  0.89133  0.63260  1.0000
  H   H1016     1.0  0.62678  0.84691  0.93334  1.0000
  H   H1017     1.0  0.00869  0.06236  0.09909  1.0000
  H   H1018     1.0  0.83104  0.89089  0.10649  1.0000
  H   H1019     1.0  0.02041  0.95204  0.61331  1.0000
  C   C639      1.0  0.07931  0.98187  0.08651  1.0000
  S   S255      1.0  0.05069  0.95884  0.10171  1.0000
  S   S256      1.0  0.96283  0.93204  0.10398  1.0000
  H   H1020     1.0  0.83759  0.94347  0.62066  1.0000
  H   H1021     1.0  0.02963  0.03085  0.09843  1.0000
  H   H1022     1.0  0.80026  0.92395  0.62222  1.0000
  H   H1023     1.0  0.05637  0.07983  0.62507  1.0000
  C   C640      1.0  0.07894  0.07964  0.63897  1.0000
  H   H1024     1.0  0.59789  0.83624  0.10880  1.0000
