data_image0
_chemical_formula_structural       CH2SC3HFeCH4NSCHCH2FeH4CHCHC2H3CS2CH4SCFeSHCHCHFeH4C2HC2HCNHCH3SCHCS2C2HSC3HNHCH2C3HSH2C2H2CH2SNH4SFeH3FeSCH4CHSH3CHCFeH3CSC2H2S3CH2CHNC2SFe3SH6CFeSH2CHS2H4SC2FeCSCH2CFeC2H2C3H5CHC2H2CH5NH3CHC2H2C2H4CHCHSNSH2C2HCH2CHCHSH2Fe2SH2NHCFeCSHCH3CH4SCH2C3HC2HCHSHFeCNCFeC2Fe2SH3CH3FeCH5C2HC3HSHS2CNH2SHC2HCSCH4CHCHCSHFeH2CHSCHCH2C2S2H2FeHS2CHFe2HCSCH2CSC2HCHCNH4CHSH3C3H3CHNH3CHNCHSH2SH3SHS2HC2H2CHFeH3C2H2C2HCHC3HCHFeSCH3CH5CHCHCHSH2SCHFeNH3C2SHCHSHSHFeCHNCH3S2HC2SHNH2FeCSFeH2C2SHSCHCSCHCHSHSC2H2FeS2HFeHCHNSHFeH2C2HFeSHCFeC2H4NH4NS2CHCFeH3CH2CNHC3H8S2CHC2HNC2H2CHC2H4CHCHCHCH2CSHSC2FeCH2SHC2H2SH3C3S2CS2C2HNH3CHFeCH2FeHCH4CH5C4H2SC3HCSCHSHC3FeCHCHCH3FeCHSH3CHSFeNHCH2CHCHSHSCNHCH2CH5FeHCH2CH2CH3FeHSH5C3HNSC2HC4HCH6NHC3H2SHSCH2SHCHCHNHC2H3C2H3SCFeSHCH2CHC2SH2CHFeCFeSH2CH3C3HCNH4CH5C4H5C4S2H5C2HS2HCHFeC2NHCHCSCHSHFe2H3CH2Fe2CHC3SCH2CNCHCHCH2C2H2CHC2H5FeHC2SCFeH2FeSCH2S2C2H2C2HCH5S2H3CHNCSH4FeC2H2FeH3NC2SHCH4CSHC3H2SHSHFeCHCHFeSH2CH5C4HCSHC3H3CSHSHCNHCHC2H4CH4CSHCH2CHCHSH7CFeC2H2S2HFe2C2H2NCHCSFeHSCHCSHCHSH2SHFe2CHFeS2HC2HSHCH3FeHFeHSHSCSC2HFeC2SH2CH2CNHC2HNCHSH2C3H3SCH2CFeH3CH2CFeS2CH2SHSHSC2H3C2H5CH5CFeH2NHNSHCSHC2FeH2CHNSCH4C3SFe2SH3SH2SCHFeHSCSCHC2SHFeCFe2H4CSH4CSNH6CHC2HCHSHC3HC2HSH3C2H2C3HCHSH5
_chemical_formula_sum              "C400 H640 S160 Fe80 N40"
_cell_length_a       33.3256
_cell_length_b       26.4622
_cell_length_c       21.171
_cell_angle_alpha    81.7677
_cell_angle_beta     80.1533
_cell_angle_gamma    90.4713

_space_group_name_H-M_alt    "P 1"
_space_group_IT_number       1

loop_
  _space_group_symop_operation_xyz
  'x, y, z'

loop_
  _atom_site_type_symbol
  _atom_site_label
  _atom_site_symmetry_multiplicity
  _atom_site_fract_x
  _atom_site_fract_y
  _atom_site_fract_z
  _atom_site_occupancy
  C   C1        1.0  0.16371  0.60846  0.15918  1.0000
  H   H1        1.0  0.22756  0.16854  0.08444  1.0000
  H   H2        1.0  0.11631  0.42421  0.97425  1.0000
  S   S1        1.0  0.11689  0.14791  0.05136  1.0000
  C   C2        1.0  0.04386  0.38127  0.96968  1.0000
  C   C3        1.0  0.08196  0.30407  0.96889  1.0000
  C   C4        1.0  0.17841  0.62319  0.09315  1.0000
  H   H3        1.0  0.10945  0.28413  0.98104  1.0000
  Fe  Fe1       1.0  0.21990  0.39322  0.06960  1.0000
  C   C5        1.0  0.07548  0.34933  0.06115  1.0000
  H   H4        1.0  0.10226  0.33068  0.07809  1.0000
  H   H5        1.0  0.25152  0.15647  0.00550  1.0000
  H   H6        1.0  0.06972  0.17789  0.93874  1.0000
  H   H7        1.0  0.07219  0.38696  0.07884  1.0000
  N   N1        1.0  0.07958  0.35505  0.98983  1.0000
  S   S2        1.0  0.18239  0.57789  0.03962  1.0000
  C   C6        1.0  0.15083  0.23370  0.08282  1.0000
  H   H8        1.0  0.17970  0.52318  0.93395  1.0000
  C   C7        1.0  0.15055  0.20126  0.03628  1.0000
  H   H9        1.0  0.04792  0.32563  0.08536  1.0000
  H   H10       1.0  0.32144  0.53910  0.09943  1.0000
  Fe  Fe2       1.0  0.19332  0.50005  0.09063  1.0000
  H   H11       1.0  0.28191  0.16367  0.06594  1.0000
  H   H12       1.0  0.13071  0.22551  0.12883  1.0000
  H   H13       1.0  0.17657  0.18730  0.94018  1.0000
  H   H14       1.0  0.27253  0.58677  0.04207  1.0000
  C   C8        1.0  0.29648  0.61748  0.02387  1.0000
  H   H15       1.0  0.11484  0.56641  0.94459  1.0000
  C   C9        1.0  0.17669  0.21221  0.97650  1.0000
  H   H16       1.0  0.01510  0.35852  0.98969  1.0000
  C   C10       1.0  0.20284  0.28838  0.00966  1.0000
  C   C11       1.0  0.17669  0.27745  0.06939  1.0000
  H   H17       1.0  0.31387  0.41170  0.94003  1.0000
  H   H18       1.0  0.03978  0.41895  0.98710  1.0000
  H   H19       1.0  0.17641  0.30259  0.10543  1.0000
  C   C12       1.0  0.11700  0.38558  0.95935  1.0000
  S   S3        1.0  0.25429  0.46759  0.06168  1.0000
  S   S4        1.0  0.23405  0.34409  0.99147  1.0000
  C   C13       1.0  0.25239  0.14759  0.05827  1.0000
  H   H20       1.0  0.22911  0.23843  0.16050  1.0000
  H   H21       1.0  0.05486  0.27927  0.99245  1.0000
  H   H22       1.0  0.31923  0.52759  0.98446  1.0000
  H   H23       1.0  0.99054  0.26904  0.07711  1.0000
  S   S5        1.0  0.15842  0.42704  0.09196  1.0000
  C   C14       1.0  0.20308  0.25545  0.96348  1.0000
  Fe  Fe3       1.0  0.25430  0.44627  0.16784  1.0000
  S   S6        1.0  0.22577  0.36875  0.17344  1.0000
  H   H24       1.0  0.14475  0.36670  0.97274  1.0000
  C   C15       1.0  0.04524  0.30437  0.38873  1.0000
  H   H25       1.0  0.28185  0.40808  0.34558  1.0000
  C   C16       1.0  0.24530  0.51359  0.40803  1.0000
  H   H26       1.0  0.05883  0.28640  0.26726  1.0000
  Fe  Fe4       1.0  0.09099  0.15135  0.29172  1.0000
  H   H27       1.0  0.26810  0.51635  0.36245  1.0000
  H   H28       1.0  0.04649  0.52859  0.36385  1.0000
  H   H29       1.0  0.26473  0.24616  0.38595  1.0000
  H   H30       1.0  0.31430  0.37123  0.39127  1.0000
  C   C17       1.0  0.30055  0.32216  0.29529  1.0000
  C   C18       1.0  0.08808  0.43470  0.28151  1.0000
  H   H31       1.0  0.19947  0.59031  0.36647  1.0000
  C   C19       1.0  0.00567  0.23362  0.36807  1.0000
  C   C20       1.0  0.27299  0.28158  0.40377  1.0000
  H   H32       1.0  0.29956  0.35535  0.25699  1.0000
  C   C21       1.0  0.18287  0.21898  0.24568  1.0000
  N   N2        1.0  0.27140  0.32699  0.35495  1.0000
  H   H33       1.0  0.20059  0.16190  0.39206  1.0000
  C   C22       1.0  0.02884  0.30332  0.28222  1.0000
  H   H34       1.0  0.21654  0.55444  0.30119  1.0000
  H   H35       1.0  0.27003  0.16167  0.32913  1.0000
  H   H36       1.0  0.22023  0.45896  0.32575  1.0000
  S   S7        1.0  0.30022  0.46554  0.22612  1.0000
  C   C23       1.0  0.06989  0.44479  0.22653  1.0000
  H   H37       1.0  0.20660  0.33150  0.38497  1.0000
  C   C24       1.0  0.03395  0.51422  0.27130  1.0000
  S   S8        1.0  0.12460  0.19225  0.35357  1.0000
  S   S9        1.0  0.30487  0.20669  0.19800  1.0000
  C   C25       1.0  0.22281  0.22110  0.21081  1.0000
  C   C26       1.0  0.04232  0.48403  0.22190  1.0000
  H   H38       1.0  0.03309  0.34541  0.26839  1.0000
  S   S10       1.0  0.99554  0.55815  0.26867  1.0000
  C   C27       1.0  0.08025  0.46540  0.33054  1.0000
  C   C28       1.0  0.25466  0.20144  0.24116  1.0000
  C   C29       1.0  0.19543  0.55344  0.34824  1.0000
  H   H39       1.0  0.29378  0.28726  0.27504  1.0000
  N   N3        1.0  0.01397  0.28938  0.35253  1.0000
  H   H40       1.0  0.03360  0.21211  0.35466  1.0000
  C   C30       1.0  0.28265  0.37305  0.38075  1.0000
  H   H41       1.0  0.16666  0.45825  0.35685  1.0000
  H   H42       1.0  0.00704  0.28995  0.25327  1.0000
  C   C31       1.0  0.05334  0.50557  0.32523  1.0000
  C   C32       1.0  0.17484  0.19824  0.31130  1.0000
  C   C33       1.0  0.22963  0.33111  0.34030  1.0000
  H   H43       1.0  0.20023  0.42757  0.40653  1.0000
  S   S11       1.0  0.12240  0.38545  0.28606  1.0000
  H   H44       1.0  0.05157  0.34635  0.37882  1.0000
  H   H45       1.0  0.16373  0.55147  0.33824  1.0000
  C   C34       1.0  0.20664  0.17871  0.34169  1.0000
  C   C35       1.0  0.19739  0.46145  0.37002  1.0000
  H   H46       1.0  0.07468  0.28583  0.37445  1.0000
  H   H47       1.0  0.30386  0.27752  0.41648  1.0000
  C   C36       1.0  0.24624  0.17923  0.30622  1.0000
  H   H48       1.0  0.09503  0.45865  0.37228  1.0000
  H   H49       1.0  0.15832  0.23427  0.22221  1.0000
  S   S12       1.0  0.05824  0.18727  0.21377  1.0000
  N   N4        1.0  0.20310  0.50954  0.39574  1.0000
  H   H50       1.0  0.22125  0.29842  0.31680  1.0000
  H   H51       1.0  0.22650  0.36678  0.30719  1.0000
  H   H52       1.0  0.99421  0.22178  0.42067  1.0000
  H   H53       1.0  0.07620  0.42145  0.18828  1.0000
  S   S13       1.0  0.19623  0.48388  0.19584  1.0000
  Fe  Fe5       1.0  0.16708  0.40792  0.19554  1.0000
  H   H54       1.0  0.15194  0.57002  0.17686  1.0000
  H   H55       1.0  0.15153  0.63211  0.25347  1.0000
  H   H56       1.0  0.02713  0.49061  0.18033  1.0000
  Fe  Fe6       1.0  0.24068  0.37106  0.57115  1.0000
  S   S14       1.0  0.11390  0.56549  0.61578  1.0000
  C   C37       1.0  0.08257  0.43410  0.53669  1.0000
  H   H57       1.0  0.05464  0.27147  0.66704  1.0000
  H   H58       1.0  0.03529  0.21913  0.55504  1.0000
  H   H59       1.0  0.12310  0.18262  0.53589  1.0000
  H   H60       1.0  0.17712  0.54550  0.47744  1.0000
  C   C38       1.0  0.09887  0.18761  0.66294  1.0000
  H   H61       1.0  0.02268  0.19291  0.63950  1.0000
  S   S15       1.0  0.24028  0.45347  0.58461  1.0000
  H   H62       1.0  0.14603  0.23836  0.55675  1.0000
  H   H63       1.0  0.25161  0.28406  0.44948  1.0000
  H   H64       1.0  0.03535  0.29378  0.44191  1.0000
  C   C39       1.0  0.08786  0.39850  0.49331  1.0000
  H   H65       1.0  0.10763  0.24517  0.50659  1.0000
  C   C40       1.0  0.04702  0.19610  0.59578  1.0000
  Fe  Fe7       1.0  0.06954  0.55712  0.54915  1.0000
  H   H66       1.0  0.10456  0.14774  0.65350  1.0000
  H   H67       1.0  0.10303  0.45935  0.61842  1.0000
  H   H68       1.0  0.05155  0.15664  0.58382  1.0000
  C   C41       1.0  0.07784  0.27148  0.62275  1.0000
  S   S16       1.0  0.30730  0.37377  0.52939  1.0000
  C   C42       1.0  0.11686  0.22130  0.54914  1.0000
  C   C43       1.0  0.17421  0.50953  0.45694  1.0000
  H   H69       1.0  0.18004  0.47791  0.49430  1.0000
  H   H70       1.0  0.06693  0.29640  0.58266  1.0000
  S   S17       1.0  0.19379  0.33548  0.52461  1.0000
  S   S18       1.0  0.25081  0.34282  0.67138  1.0000
  S   S19       1.0  0.04695  0.48193  0.52815  1.0000
  C   C44       1.0  0.14880  0.36941  0.53367  1.0000
  H   H71       1.0  0.10609  0.28986  0.63199  1.0000
  H   H72       1.0  0.16110  0.40156  0.61651  1.0000
  C   C45       1.0  0.12144  0.36680  0.49083  1.0000
  H   H73       1.0  0.28705  0.16842  0.58997  1.0000
  N   N5        1.0  0.08513  0.21912  0.60762  1.0000
  C   C46       1.0  0.14112  0.40120  0.58139  1.0000
  C   C47       1.0  0.10826  0.43398  0.58245  1.0000
  S   S20       1.0  0.02733  0.61467  0.58972  1.0000
  Fe  Fe8       1.0  0.30770  0.45455  0.54929  1.0000
  Fe  Fe9       1.0  0.31730  0.35217  0.63131  1.0000
  Fe  Fe10      1.0  0.14458  0.62643  0.53740  1.0000
  S   S21       1.0  0.10308  0.61406  0.46767  1.0000
  H   H74       1.0  0.06724  0.39752  0.45926  1.0000
  H   H75       1.0  0.12700  0.34193  0.45410  1.0000
  H   H76       1.0  0.14203  0.50503  0.45006  1.0000
  H   H77       1.0  0.25283  0.47972  0.44095  1.0000
  H   H78       1.0  0.12732  0.20413  0.67395  1.0000
  H   H79       1.0  0.31975  0.21564  0.61005  1.0000
  C   C48       1.0  0.31943  0.18136  0.58510  1.0000
  Fe  Fe11      1.0  0.07450  0.62814  0.64974  1.0000
  S   S22       1.0  0.32291  0.43334  0.64897  1.0000
  H   H80       1.0  0.24995  0.54757  0.43184  1.0000
  H   H81       1.0  0.26160  0.37782  0.42596  1.0000
  C   C49       1.0  0.31078  0.22267  0.83034  1.0000
  H   H82       1.0  0.12067  0.39052  0.90556  1.0000
  S   S23       1.0  0.01174  0.36986  0.74551  1.0000
  S   S24       1.0  0.09471  0.26618  0.78523  1.0000
  H   H83       1.0  0.08376  0.30689  0.91558  1.0000
  H   H84       1.0  0.09698  0.52808  0.89043  1.0000
  H   H85       1.0  0.28063  0.21660  0.85936  1.0000
  H   H86       1.0  0.02272  0.19206  0.90984  1.0000
  S   S25       1.0  0.99761  0.29897  0.88697  1.0000
  C   C50       1.0  0.03069  0.58599  0.79404  1.0000
  C   C51       1.0  0.12775  0.31750  0.78748  1.0000
  Fe  Fe12      1.0  0.03128  0.29357  0.78794  1.0000
  C   C52       1.0  0.17685  0.61404  0.85737  1.0000
  S   S26       1.0  0.22070  0.44601  0.77410  1.0000
  C   C53       1.0  0.00656  0.49958  0.79302  1.0000
  H   H87       1.0  0.14377  0.44432  0.73148  1.0000
  H   H88       1.0  0.28043  0.39520  0.84937  1.0000
  C   C54       1.0  0.14789  0.40725  0.75820  1.0000
  Fe  Fe13      1.0  0.25546  0.42559  0.68224  1.0000
  C   C55       1.0  0.16139  0.30932  0.81865  1.0000
  C   C56       1.0  0.01449  0.58173  0.86015  1.0000
  H   H89       1.0  0.29065  0.27059  0.75134  1.0000
  H   H90       1.0  0.13737  0.52453  0.78265  1.0000
  C   C57       1.0  0.02652  0.54496  0.76060  1.0000
  C   C58       1.0  0.11420  0.56385  0.89268  1.0000
  C   C59       1.0  0.15350  0.56068  0.78644  1.0000
  H   H91       1.0  0.04647  0.38808  0.91600  1.0000
  H   H92       1.0  0.00269  0.46879  0.76631  1.0000
  H   H93       1.0  0.22327  0.26369  0.91725  1.0000
  H   H94       1.0  0.09650  0.59637  0.87379  1.0000
  H   H95       1.0  0.16702  0.27130  0.84113  1.0000
  C   C60       1.0  0.12069  0.36664  0.75821  1.0000
  H   H96       1.0  0.18444  0.56062  0.75640  1.0000
  C   C61       1.0  0.18185  0.39896  0.78849  1.0000
  C   C62       1.0  0.17870  0.52232  0.88191  1.0000
  H   H97       1.0  0.09580  0.37294  0.73191  1.0000
  H   H98       1.0  0.21510  0.34329  0.84157  1.0000
  C   C63       1.0  0.18832  0.35012  0.81950  1.0000
  H   H99       1.0  0.07551  0.18534  0.70780  1.0000
  H   H100      1.0  0.03847  0.54792  0.70953  1.0000
  H   H101      1.0  0.21077  0.52361  0.85590  1.0000
  H   H102      1.0  0.06311  0.16346  0.86086  1.0000
  H   H103      1.0  0.16482  0.48483  0.87780  1.0000
  N   N6        1.0  0.15581  0.56521  0.85457  1.0000
  H   H104      1.0  0.30816  0.36659  0.78378  1.0000
  H   H105      1.0  0.13677  0.59273  0.76398  1.0000
  H   H106      1.0  0.29392  0.32973  0.86278  1.0000
  C   C64       1.0  0.30496  0.36821  0.83662  1.0000
  H   H107      1.0  0.01721  0.61361  0.88611  1.0000
  C   C65       1.0  0.31647  0.25318  0.76916  1.0000
  C   C66       1.0  0.04719  0.16383  0.91146  1.0000
  H   H108      1.0  0.20780  0.61744  0.82691  1.0000
  H   H109      1.0  0.18055  0.61772  0.90774  1.0000
  C   C67       1.0  0.99483  0.53589  0.89284  1.0000
  C   C68       1.0  0.99112  0.49467  0.85921  1.0000
  H   H110      1.0  0.09537  0.91269  0.01463  1.0000
  H   H111      1.0  0.04129  0.89974  0.12768  1.0000
  H   H112      1.0  0.30545  0.77678  0.95360  1.0000
  H   H113      1.0  0.27935  0.02380  0.05990  1.0000
  C   C69       1.0  0.19051  0.67424  0.06997  1.0000
  H   H114      1.0  0.31185  0.08016  0.04974  1.0000
  C   C70       1.0  0.05635  0.67212  0.16531  1.0000
  H   H115      1.0  0.20130  0.68601  0.01875  1.0000
  S   S27       1.0  0.24361  0.94052  0.99641  1.0000
  N   N7        1.0  0.03017  0.11267  0.94182  1.0000
  S   S28       1.0  0.99459  0.95408  0.04976  1.0000
  H   H116      1.0  0.05005  0.77522  0.15110  1.0000
  H   H117      1.0  0.31320  0.86843  0.95992  1.0000
  C   C71       1.0  0.06341  0.07607  0.94279  1.0000
  C   C72       1.0  0.18884  0.71013  0.11317  1.0000
  H   H118      1.0  0.19744  0.74965  0.09496  1.0000
  C   C73       1.0  0.25048  0.08216  0.15071  1.0000
  H   H119      1.0  0.29303  0.64530  0.05905  1.0000
  H   H120      1.0  0.08688  0.08804  0.96961  1.0000
  C   C74       1.0  0.19673  0.94456  0.96894  1.0000
  H   H121      1.0  0.20482  0.03026  0.08532  1.0000
  C   C75       1.0  0.20850  0.07240  0.07052  1.0000
  H   H122      1.0  0.24554  0.83344  0.95022  1.0000
  S   S29       1.0  0.99921  0.84879  0.98474  1.0000
  H   H123      1.0  0.09005  0.67023  0.15373  1.0000
  H   H124      1.0  0.18268  0.09041  0.09872  1.0000
  Fe  Fe14      1.0  0.08755  0.12870  0.15591  1.0000
  Fe  Fe15      1.0  0.24376  0.89873  0.09598  1.0000
  S   S30       1.0  0.28657  0.92719  0.15512  1.0000
  H   H125      1.0  0.20531  0.08047  0.01854  1.0000
  H   H126      1.0  0.28019  0.07205  0.99122  1.0000
  N   N8        1.0  0.24818  0.09198  0.08091  1.0000
  H   H127      1.0  0.04532  0.68722  0.11980  1.0000
  C   C76       1.0  0.16036  0.92422  0.00820  1.0000
  Fe  Fe16      1.0  0.01951  0.93065  0.95395  1.0000
  C   C77       1.0  0.12348  0.92805  0.98419  1.0000
  S   S31       1.0  0.26233  0.81723  0.11339  1.0000
  H   H128      1.0  0.05174  0.03735  0.96672  1.0000
  C   C78       1.0  0.28137  0.06580  0.04404  1.0000
  H   H129      1.0  0.16051  0.90568  0.05695  1.0000
  H   H130      1.0  0.28014  0.09648  0.16009  1.0000
  H   H131      1.0  0.28980  0.63749  0.97707  1.0000
  C   C79       1.0  0.00946  0.11518  0.00885  1.0000
  H   H132      1.0  0.99728  0.07691  0.03392  1.0000
  H   H133      1.0  0.24719  0.04058  0.16980  1.0000
  H   H134      1.0  0.03059  0.12943  0.03823  1.0000
  H   H135      1.0  0.14568  0.02411  0.34536  1.0000
  S   S32       1.0  0.17161  0.73903  0.23445  1.0000
  C   C80       1.0  0.31070  0.68501  0.27997  1.0000
  H   H136      1.0  0.09555  0.75601  0.18185  1.0000
  H   H137      1.0  0.27683  0.68098  0.29041  1.0000
  C   C81       1.0  0.04906  0.92199  0.27914  1.0000
  C   C82       1.0  0.30967  0.05445  0.34440  1.0000
  C   C83       1.0  0.99788  0.85534  0.28295  1.0000
  H   H138      1.0  0.22601  0.10177  0.17979  1.0000
  C   C84       1.0  0.17517  0.69489  0.17952  1.0000
  C   C85       1.0  0.28170  0.95295  0.37851  1.0000
  H   H139      1.0  0.32273  0.65277  0.25467  1.0000
  C   C86       1.0  0.06176  0.75641  0.19448  1.0000
  H   H140      1.0  0.26162  0.06352  0.28802  1.0000
  S   S33       1.0  0.03993  0.09570  0.33703  1.0000
  H   H141      1.0  0.10416  0.76783  0.36571  1.0000
  Fe  Fe17      1.0  0.23463  0.91102  0.23790  1.0000
  C   C87       1.0  0.00388  0.86243  0.21525  1.0000
  N   N9        1.0  0.13412  0.82589  0.40393  1.0000
  C   C88       1.0  0.15534  0.05252  0.37440  1.0000
  Fe  Fe18      1.0  0.07058  0.04326  0.27120  1.0000
  C   C89       1.0  0.31420  0.97081  0.40489  1.0000
  C   C90       1.0  0.27646  0.03725  0.31992  1.0000
  Fe  Fe19      1.0  0.00957  0.12654  0.25403  1.0000
  Fe  Fe20      1.0  0.21195  0.80926  0.19933  1.0000
  S   S34       1.0  0.12412  0.09691  0.23089  1.0000
  H   H142      1.0  0.05444  0.78098  0.23308  1.0000
  H   H143      1.0  0.15766  0.75941  0.36473  1.0000
  H   H144      1.0  0.18877  0.05952  0.35897  1.0000
  C   C91       1.0  0.05804  0.68248  0.27644  1.0000
  H   H145      1.0  0.31885  0.72090  0.24537  1.0000
  H   H146      1.0  0.14525  0.90031  0.34696  1.0000
  H   H147      1.0  0.07904  0.95515  0.18368  1.0000
  Fe  Fe21      1.0  0.30050  0.84510  0.17939  1.0000
  C   C92       1.0  0.31094  0.72948  0.37173  1.0000
  H   H148      1.0  0.04889  0.70612  0.31556  1.0000
  H   H149      1.0  0.16877  0.84890  0.30950  1.0000
  H   H150      1.0  0.27709  0.72639  0.38468  1.0000
  H   H151      1.0  0.32026  0.09345  0.33007  1.0000
  H   H152      1.0  0.01471  0.88082  0.36742  1.0000
  C   C93       1.0  0.26271  0.98633  0.33625  1.0000
  C   C94       1.0  0.16261  0.64402  0.20238  1.0000
  H   H153      1.0  0.09170  0.68091  0.26890  1.0000
  C   C95       1.0  0.05629  0.92749  0.21151  1.0000
  C   C96       1.0  0.12939  0.77244  0.39297  1.0000
  C   C97       1.0  0.14118  0.85959  0.34102  1.0000
  H   H154      1.0  0.11515  0.85723  0.31475  1.0000
  S   S35       1.0  0.07456  0.96250  0.31865  1.0000
  H   H155      1.0  0.14041  0.08874  0.36110  1.0000
  S   S36       1.0  0.21953  0.96638  0.30807  1.0000
  S   S37       1.0  0.25188  0.83081  0.26693  1.0000
  C   C98       1.0  0.02063  0.88495  0.31500  1.0000
  N   N10       1.0  0.04373  0.70431  0.21635  1.0000
  H   H156      1.0  0.19807  0.81951  0.40798  1.0000
  H   H157      1.0  0.31912  0.76676  0.33991  1.0000
  S   S38       1.0  0.19034  0.88895  0.17704  1.0000
  H   H158      1.0  0.04518  0.64303  0.29437  1.0000
  C   C99       1.0  0.99880  0.70635  0.22937  1.0000
  C   C100      1.0  0.31625  0.63797  0.38446  1.0000
  H   H159      1.0  0.27069  0.91366  0.39215  1.0000
  C   C101      1.0  0.03436  0.89684  0.17970  1.0000
  S   S39       1.0  0.03633  0.07007  0.19064  1.0000
  C   C102      1.0  0.99513  0.65821  0.42390  1.0000
  H   H160      1.0  0.06971  0.83785  0.42005  1.0000
  H   H161      1.0  0.04392  0.63229  0.18059  1.0000
  H   H162      1.0  0.32271  0.73117  0.41752  1.0000
  H   H163      1.0  0.28259  0.63273  0.39861  1.0000
  C   C103      1.0  0.99981  0.76755  0.62213  1.0000
  H   H164      1.0  0.15769  0.97062  0.51209  1.0000
  C   C104      1.0  0.09699  0.92043  0.60929  1.0000
  H   H165      1.0  0.28894  0.67478  0.53694  1.0000
  C   C105      1.0  0.19813  0.65091  0.63838  1.0000
  S   S40       1.0  0.30136  0.85692  0.63443  1.0000
  H   H166      1.0  0.00313  0.96761  0.60319  1.0000
  Fe  Fe22      1.0  0.19077  0.87113  0.60199  1.0000
  H   H167      1.0  0.14503  0.10975  0.46967  1.0000
  H   H168      1.0  0.09916  0.88128  0.45273  1.0000
  C   C106      1.0  0.04892  0.00145  0.64609  1.0000
  H   H169      1.0  0.09012  0.81636  0.49204  1.0000
  S   S41       1.0  0.12689  0.87131  0.58176  1.0000
  C   C107      1.0  0.11270  0.95691  0.64116  1.0000
  H   H170      1.0  0.01822  0.73420  0.61021  1.0000
  C   C108      1.0  0.26651  0.67253  0.58071  1.0000
  H   H171      1.0  0.15059  0.05947  0.53441  1.0000
  H   H172      1.0  0.31054  0.08140  0.58165  1.0000
  C   C109      1.0  0.22739  0.65219  0.58227  1.0000
  C   C110      1.0  0.05718  0.92390  0.59694  1.0000
  S   S42       1.0  0.03202  0.73602  0.46573  1.0000
  S   S43       1.0  0.21283  0.63401  0.51255  1.0000
  H   H173      1.0  0.16787  0.63608  0.64012  1.0000
  H   H174      1.0  0.30425  0.71375  0.63071  1.0000
  Fe  Fe23      1.0  0.26032  0.92328  0.64406  1.0000
  H   H175      1.0  0.08401  0.06291  0.45040  1.0000
  S   S44       1.0  0.22637  0.80156  0.58707  1.0000
  S   S45       1.0  0.10826  0.68968  0.57639  1.0000
  C   C111      1.0  0.27533  0.69397  0.63409  1.0000
  H   H176      1.0  0.17406  0.87012  0.44627  1.0000
  Fe  Fe24      1.0  0.27930  0.85411  0.54078  1.0000
  Fe  Fe25      1.0  0.06410  0.67203  0.51386  1.0000
  H   H177      1.0  0.12248  0.74612  0.43955  1.0000
  C   C112      1.0  0.16423  0.98524  0.45951  1.0000
  S   S46       1.0  0.31882  0.83241  0.45181  1.0000
  C   C113      1.0  0.08857  0.99741  0.65973  1.0000
  H   H178      1.0  0.15350  0.95575  0.43325  1.0000
  H   H179      1.0  0.09056  0.01406  0.51510  1.0000
  C   C114      1.0  0.03329  0.96442  0.61503  1.0000
  S   S47       1.0  0.24175  0.92399  0.54705  1.0000
  C   C115      1.0  0.99396  0.70955  0.43237  1.0000
  C   C116      1.0  0.09667  0.84100  0.44403  1.0000
  H   H180      1.0  0.04505  0.89607  0.57172  1.0000
  C   C117      1.0  0.15883  0.07211  0.48119  1.0000
  H   H181      1.0  0.16473  0.80531  0.48498  1.0000
  C   C118      1.0  0.09983  0.02687  0.46244  1.0000
  N   N11       1.0  0.14455  0.03419  0.44447  1.0000
  H   H182      1.0  0.19259  0.07781  0.46924  1.0000
  H   H183      1.0  0.00450  0.79668  0.57770  1.0000
  H   H184      1.0  0.19793  0.98927  0.44487  1.0000
  H   H185      1.0  0.08802  0.99761  0.43672  1.0000
  C   C119      1.0  0.16929  0.83039  0.43719  1.0000
  H   H186      1.0  0.14349  0.95427  0.65102  1.0000
  S   S48       1.0  0.01981  0.05417  0.66393  1.0000
  H   H187      1.0  0.01954  0.63482  0.43762  1.0000
  H   H188      1.0  0.01247  0.78390  0.66028  1.0000
  H   H189      1.0  0.24424  0.87902  0.87958  1.0000
  C   C120      1.0  0.31239  0.78584  0.89984  1.0000
  C   C121      1.0  0.31926  0.98505  0.71614  1.0000
  C   C122      1.0  0.32048  0.00459  0.77370  1.0000
  H   H190      1.0  0.31058  0.91485  0.89083  1.0000
  H   H191      1.0  0.07205  0.81653  0.69796  1.0000
  H   H192      1.0  0.06960  0.91095  0.76723  1.0000
  C   C123      1.0  0.04584  0.87974  0.78273  1.0000
  H   H193      1.0  0.02742  0.88028  0.74351  1.0000
  N   N12       1.0  0.06412  0.82957  0.79723  1.0000
  H   H194      1.0  0.01481  0.09381  0.85297  1.0000
  H   H195      1.0  0.22421  0.98373  0.87493  1.0000
  H   H196      1.0  0.07191  0.84227  0.89248  1.0000
  C   C124      1.0  0.00053  0.09560  0.90408  1.0000
  H   H197      1.0  0.15959  0.98949  0.83228  1.0000
  N   N13       1.0  0.29938  0.83749  0.87715  1.0000
  C   C125      1.0  0.15963  0.97139  0.88149  1.0000
  H   H198      1.0  0.23817  0.81213  0.87549  1.0000
  S   S49       1.0  0.07825  0.95666  0.88812  1.0000
  H   H199      1.0  0.11545  0.84505  0.72019  1.0000
  H   H200      1.0  0.29605  0.10799  0.69026  1.0000
  S   S50       1.0  0.25098  0.73507  0.74544  1.0000
  H   H201      1.0  0.29948  0.88619  0.78689  1.0000
  H   H202      1.0  0.02537  0.88990  0.82609  1.0000
  H   H203      1.0  0.15942  0.64730  0.83997  1.0000
  S   S51       1.0  0.05695  0.64185  0.75281  1.0000
  H   H204      1.0  0.10410  0.79481  0.85949  1.0000
  S   S52       1.0  0.20666  0.87465  0.69989  1.0000
  S   S53       1.0  0.27707  0.99583  0.67774  1.0000
  H   H205      1.0  0.29701  0.75618  0.87912  1.0000
  C   C126      1.0  0.08972  0.81670  0.73793  1.0000
  C   C127      1.0  0.19621  0.96812  0.90564  1.0000
  H   H206      1.0  0.10306  0.77839  0.74641  1.0000
  H   H207      1.0  0.29587  0.02729  0.79353  1.0000
  C   C128      1.0  0.25481  0.84041  0.89656  1.0000
  H   H208      1.0  0.01188  0.79791  0.86638  1.0000
  Fe  Fe26      1.0  0.24638  0.80867  0.68115  1.0000
  H   H209      1.0  0.01074  0.78848  0.78503  1.0000
  H   H210      1.0  0.29641  0.81906  0.78234  1.0000
  H   H211      1.0  0.11471  0.86179  0.83065  1.0000
  C   C129      1.0  0.31018  0.84824  0.80581  1.0000
  C   C130      1.0  0.08984  0.83195  0.84719  1.0000
  H   H212      1.0  0.07901  0.07218  0.89293  1.0000
  H   H213      1.0  0.04383  0.75126  0.83072  1.0000
  C   C131      1.0  0.24527  0.69421  0.68925  1.0000
  C   C132      1.0  0.03134  0.78996  0.82089  1.0000
  H   H214      1.0  0.18260  0.67593  0.73100  1.0000
  C   C133      1.0  0.20683  0.67235  0.69122  1.0000
  H   H215      1.0  0.10070  0.02575  0.68417  1.0000
  C   C134      1.0  0.32027  0.87552  0.90607  1.0000
  C   C135      1.0  0.12323  0.95166  0.92070  1.0000
  C   C136      1.0  0.38908  0.43372  0.08554  1.0000
  H   H216      1.0  0.63181  0.24937  0.16500  1.0000
  C   C137      1.0  0.35136  0.43381  0.12629  1.0000
  H   H217      1.0  0.38238  0.28311  0.05007  1.0000
  Fe  Fe27      1.0  0.56847  0.60824  0.02048  1.0000
  S   S54       1.0  0.52270  0.58993  0.95976  1.0000
  C   C138      1.0  0.42345  0.45598  0.10151  1.0000
  H   H218      1.0  0.55623  0.44186  0.06782  1.0000
  H   H219      1.0  0.50297  0.30889  0.08486  1.0000
  H   H220      1.0  0.39237  0.25941  0.12820  1.0000
  C   C139      1.0  0.45391  0.32449  0.99746  1.0000
  H   H221      1.0  0.37236  0.54434  0.96102  1.0000
  H   H222      1.0  0.61823  0.56995  0.11662  1.0000
  H   H223      1.0  0.53481  0.41496  0.97154  1.0000
  H   H224      1.0  0.60928  0.45397  0.06861  1.0000
  H   H225      1.0  0.34487  0.59620  0.11518  1.0000
  C   C140      1.0  0.42053  0.47683  0.15912  1.0000
  H   H226      1.0  0.62975  0.37415  0.03024  1.0000
  C   C141      1.0  0.64295  0.54860  0.09534  1.0000
  H   H227      1.0  0.58176  0.49928  0.02273  1.0000
  C   C142      1.0  0.46977  0.30808  0.10501  1.0000
  H   H228      1.0  0.37518  0.55133  0.07383  1.0000
  S   S55       1.0  0.63546  0.60528  0.97969  1.0000
  H   H229      1.0  0.39255  0.32711  0.10350  1.0000
  H   H230      1.0  0.46583  0.28214  0.15179  1.0000
  S   S56       1.0  0.65068  0.21817  0.01150  1.0000
  C   C143      1.0  0.40133  0.29024  0.08660  1.0000
  H   H231      1.0  0.44448  0.36402  0.00313  1.0000
  Fe  Fe28      1.0  0.50172  0.62770  0.13324  1.0000
  N   N14       1.0  0.44536  0.29004  0.05997  1.0000
  H   H232      1.0  0.46163  0.34723  0.11512  1.0000
  H   H233      1.0  0.36650  0.39665  0.93990  1.0000
  H   H234      1.0  0.43900  0.22257  0.01639  1.0000
  C   C144      1.0  0.34130  0.56027  0.96845  1.0000
  C   C145      1.0  0.58547  0.45776  0.03748  1.0000
  S   S57       1.0  0.45107  0.13352  0.94997  1.0000
  H   H235      1.0  0.45068  0.21062  0.09692  1.0000
  C   C146      1.0  0.45653  0.23737  0.05038  1.0000
  H   H236      1.0  0.57719  0.35726  0.03156  1.0000
  S   S58       1.0  0.53794  0.55891  0.11209  1.0000
  H   H237      1.0  0.48951  0.23508  0.03106  1.0000
  S   S59       1.0  0.46867  0.46359  0.04580  1.0000
  H   H238      1.0  0.39119  0.41876  0.04029  1.0000
  Fe  Fe29      1.0  0.49205  0.54220  0.05146  1.0000
  C   C147      1.0  0.60474  0.37772  0.00122  1.0000
  H   H239      1.0  0.39971  0.62377  0.98179  1.0000
  N   N15       1.0  0.59673  0.43178  0.98009  1.0000
  C   C148      1.0  0.63385  0.45696  0.93900  1.0000
  H   H240      1.0  0.48701  0.32734  0.97757  1.0000
  H   H241      1.0  0.43818  0.31078  0.96053  1.0000
  H   H242      1.0  0.32779  0.34639  0.95249  1.0000
  S   S60       1.0  0.45231  0.60493  0.08260  1.0000
  S   S61       1.0  0.55958  0.27548  0.95091  1.0000
  H   H243      1.0  0.61385  0.35732  0.95890  1.0000
  C   C149      1.0  0.56298  0.43489  0.94275  1.0000
  C   C150      1.0  0.34507  0.56967  0.07885  1.0000
  S   S62       1.0  0.33771  0.15775  0.92676  1.0000
  H   H244      1.0  0.55550  0.47534  0.92776  1.0000
  N   N16       1.0  0.33773  0.59650  0.01591  1.0000
  H   H245      1.0  0.32458  0.41779  0.11308  1.0000
  H   H246      1.0  0.44722  0.49391  0.17165  1.0000
  Fe  Fe30      1.0  0.62235  0.24939  0.92693  1.0000
  C   C151      1.0  0.33790  0.38475  0.92484  1.0000
  S   S63       1.0  0.64112  0.46402  0.31348  1.0000
  Fe  Fe31      1.0  0.35290  0.19493  0.26117  1.0000
  H   H247      1.0  0.64311  0.49657  0.18258  1.0000
  H   H248      1.0  0.43908  0.48155  0.38096  1.0000
  C   C152      1.0  0.63316  0.61586  0.31199  1.0000
  C   C153      1.0  0.57369  0.13462  0.22377  1.0000
  S   S64       1.0  0.58023  0.37339  0.39839  1.0000
  H   H249      1.0  0.59943  0.61943  0.20702  1.0000
  S   S65       1.0  0.43784  0.17568  0.36752  1.0000
  C   C154      1.0  0.56830  0.57645  0.36699  1.0000
  H   H250      1.0  0.58014  0.53740  0.36630  1.0000
  C   C155      1.0  0.47959  0.43262  0.32960  1.0000
  S   S66       1.0  0.59765  0.38071  0.24044  1.0000
  C   C156      1.0  0.44295  0.44390  0.36714  1.0000
  H   H251      1.0  0.64712  0.57787  0.31199  1.0000
  C   C157      1.0  0.60233  0.20968  0.41209  1.0000
  H   H252      1.0  0.53494  0.57309  0.36660  1.0000
  S   S67       1.0  0.50715  0.18989  0.19872  1.0000
  H   H253      1.0  0.51213  0.37513  0.28108  1.0000
  S   S68       1.0  0.38440  0.30583  0.41504  1.0000
  C   C158      1.0  0.45347  0.34601  0.33291  1.0000
  C   C159      1.0  0.34818  0.45654  0.18258  1.0000
  H   H254      1.0  0.59186  0.16792  0.19934  1.0000
  H   H255      1.0  0.65496  0.30169  0.19264  1.0000
  Fe  Fe32      1.0  0.57815  0.43294  0.31327  1.0000
  S   S69       1.0  0.57823  0.24361  0.35282  1.0000
  S   S70       1.0  0.40273  0.25355  0.25511  1.0000
  H   H256      1.0  0.57185  0.58902  0.41351  1.0000
  Fe  Fe33      1.0  0.39273  0.23803  0.36281  1.0000
  H   H257      1.0  0.54955  0.59399  0.24651  1.0000
  C   C160      1.0  0.41831  0.35614  0.37507  1.0000
  H   H258      1.0  0.33242  0.32022  0.30470  1.0000
  N   N17       1.0  0.58901  0.61258  0.31103  1.0000
  S   S71       1.0  0.52111  0.47673  0.31384  1.0000
  H   H259      1.0  0.57425  0.13804  0.40449  1.0000
  Fe  Fe34      1.0  0.60416  0.32312  0.32624  1.0000
  H   H260      1.0  0.59319  0.55523  0.24790  1.0000
  H   H261      1.0  0.38041  0.49418  0.24377  1.0000
  C   C161      1.0  0.53129  0.13474  0.22794  1.0000
  C   C162      1.0  0.41246  0.40559  0.39044  1.0000
  H   H262      1.0  0.39641  0.59713  0.40863  1.0000
  Fe  Fe35      1.0  0.44495  0.18816  0.25895  1.0000
  S   S72       1.0  0.33994  0.18401  0.36967  1.0000
  H   H263      1.0  0.45849  0.30791  0.32099  1.0000
  C   C163      1.0  0.48426  0.38407  0.31084  1.0000
  Fe  Fe36      1.0  0.64467  0.39829  0.39165  1.0000
  C   C164      1.0  0.58247  0.59470  0.25045  1.0000
  C   C165      1.0  0.38282  0.47682  0.20001  1.0000
  H   H264      1.0  0.32815  0.60413  0.36232  1.0000
  H   H265      1.0  0.64589  0.18857  0.25934  1.0000
  H   H266      1.0  0.38518  0.41396  0.42249  1.0000
  H   H267      1.0  0.61074  0.46536  0.53470  1.0000
  N   N18       1.0  0.34393  0.14039  0.61298  1.0000
  H   H268      1.0  0.38866  0.19216  0.63209  1.0000
  H   H269      1.0  0.56385  0.22391  0.64943  1.0000
  H   H270      1.0  0.62633  0.49617  0.45306  1.0000
  H   H271      1.0  0.50565  0.36777  0.59690  1.0000
  N   N19       1.0  0.61745  0.26936  0.65106  1.0000
  S   S73       1.0  0.51007  0.57086  0.52669  1.0000
  S   S74       1.0  0.36383  0.29470  0.65291  1.0000
  C   C166      1.0  0.64919  0.58617  0.48379  1.0000
  H   H272      1.0  0.59848  0.56357  0.59653  1.0000
  C   C167      1.0  0.59833  0.31959  0.64462  1.0000
  Fe  Fe37      1.0  0.50630  0.53385  0.63004  1.0000
  H   H273      1.0  0.45954  0.29111  0.63406  1.0000
  H   H274      1.0  0.44734  0.39354  0.50124  1.0000
  H   H275      1.0  0.39295  0.61447  0.55925  1.0000
  C   C168      1.0  0.48796  0.30990  0.47087  1.0000
  H   H276      1.0  0.61262  0.34680  0.67040  1.0000
  H   H277      1.0  0.39092  0.45871  0.54332  1.0000
  C   C169      1.0  0.38810  0.52802  0.47759  1.0000
  N   N20       1.0  0.64407  0.53642  0.52558  1.0000
  H   H278      1.0  0.54029  0.33373  0.54444  1.0000
  C   C170      1.0  0.62838  0.54468  0.59272  1.0000
  C   C171      1.0  0.44629  0.50459  0.52890  1.0000
  C   C172      1.0  0.46845  0.28040  0.58491  1.0000
  H   H279      1.0  0.59275  0.24847  0.57061  1.0000
  H   H280      1.0  0.46082  0.47762  0.56022  1.0000
  H   H281      1.0  0.46548  0.61761  0.42856  1.0000
  H   H282      1.0  0.60187  0.33731  0.59294  1.0000
  H   H283      1.0  0.51845  0.39174  0.51240  1.0000
  H   H284      1.0  0.61104  0.19625  0.62006  1.0000
  H   H285      1.0  0.43214  0.37018  0.58613  1.0000
  H   H286      1.0  0.58467  0.52029  0.50516  1.0000
  S   S75       1.0  0.33670  0.51821  0.47237  1.0000
  S   S76       1.0  0.54287  0.46614  0.65732  1.0000
  C   C173      1.0  0.59518  0.23304  0.62145  1.0000
  H   H287      1.0  0.44801  0.61492  0.62467  1.0000
  C   C174      1.0  0.40687  0.49363  0.51884  1.0000
  C   C175      1.0  0.44137  0.35830  0.53743  1.0000
  H   H288      1.0  0.39989  0.17184  0.55370  1.0000
  N   N21       1.0  0.47749  0.32614  0.53536  1.0000
  C   C176      1.0  0.46649  0.55066  0.49949  1.0000
  C   C177      1.0  0.61510  0.50323  0.50350  1.0000
  H   H289      1.0  0.41467  0.33759  0.52676  1.0000
  H   H290      1.0  0.62426  0.50799  0.62592  1.0000
  C   C178      1.0  0.63071  0.23408  0.44036  1.0000
  H   H291      1.0  0.33142  0.19397  0.53273  1.0000
  C   C179      1.0  0.51213  0.35605  0.54795  1.0000
  C   C180      1.0  0.38662  0.15911  0.60555  1.0000
  H   H292      1.0  0.49513  0.25553  0.58555  1.0000
  H   H293      1.0  0.46242  0.28758  0.45934  1.0000
  H   H294      1.0  0.44235  0.25757  0.57615  1.0000
  H   H295      1.0  0.61958  0.60489  0.48239  1.0000
  C   C181      1.0  0.41004  0.57154  0.44271  1.0000
  H   H296      1.0  0.51519  0.28568  0.46706  1.0000
  C   C182      1.0  0.44930  0.58290  0.45364  1.0000
  H   H297      1.0  0.49481  0.34353  0.43253  1.0000
  C   C183      1.0  0.64985  0.15186  0.49066  1.0000
  H   H298      1.0  0.56521  0.31599  0.66522  1.0000
  C   C184      1.0  0.65498  0.20503  0.47893  1.0000
  H   H299      1.0  0.64965  0.56955  0.61084  1.0000
  H   H300      1.0  0.63525  0.27501  0.43040  1.0000
  C   C185      1.0  0.59551  0.15693  0.42737  1.0000
  S   S77       1.0  0.51864  0.57438  0.71134  1.0000
  H   H301      1.0  0.62927  0.49834  0.92368  1.0000
  S   S78       1.0  0.44708  0.49822  0.68534  1.0000
  C   C186      1.0  0.50309  0.26385  0.87551  1.0000
  C   C187      1.0  0.35536  0.25946  0.73083  1.0000
  Fe  Fe38      1.0  0.46154  0.53359  0.76859  1.0000
  C   C188      1.0  0.48230  0.28097  0.82498  1.0000
  H   H302      1.0  0.64402  0.41810  0.72255  1.0000
  H   H303      1.0  0.58437  0.34781  0.83649  1.0000
  S   S79       1.0  0.60709  0.49920  0.78903  1.0000
  H   H304      1.0  0.33352  0.46404  0.83011  1.0000
  C   C189      1.0  0.65414  0.49536  0.73862  1.0000
  C   C190      1.0  0.61601  0.24985  0.72047  1.0000
  H   H305      1.0  0.40887  0.19081  0.83409  1.0000
  H   H306      1.0  0.32582  0.15896  0.70940  1.0000
  S   S80       1.0  0.40647  0.56471  0.82480  1.0000
  H   H307      1.0  0.40522  0.35783  0.84796  1.0000
  H   H308      1.0  0.38577  0.44890  0.83246  1.0000
  H   H309      1.0  0.36280  0.43559  0.76586  1.0000
  C   C191      1.0  0.53936  0.28859  0.88029  1.0000
  C   C192      1.0  0.34404  0.19892  0.85303  1.0000
  C   C193      1.0  0.49750  0.32345  0.78024  1.0000
  S   S81       1.0  0.53455  0.14551  0.78451  1.0000
  S   S82       1.0  0.49408  0.46554  0.80682  1.0000
  C   C194      1.0  0.38284  0.20687  0.81551  1.0000
  S   S83       1.0  0.63753  0.18350  0.87275  1.0000
  S   S84       1.0  0.46765  0.35186  0.72605  1.0000
  C   C195      1.0  0.37529  0.34706  0.83619  1.0000
  C   C196      1.0  0.35699  0.43535  0.81925  1.0000
  H   H310      1.0  0.38032  0.34535  0.78315  1.0000
  N   N22       1.0  0.34379  0.38388  0.85422  1.0000
  H   H311      1.0  0.49058  0.23236  0.91185  1.0000
  H   H312      1.0  0.45349  0.26312  0.82277  1.0000
  H   H313      1.0  0.36649  0.30773  0.86155  1.0000
  C   C197      1.0  0.53480  0.34680  0.78348  1.0000
  H   H314      1.0  0.63219  0.27642  0.74463  1.0000
  Fe  Fe39      1.0  0.48457  0.43386  0.71813  1.0000
  C   C198      1.0  0.55619  0.32873  0.83288  1.0000
  H   H315      1.0  0.58405  0.24428  0.74728  1.0000
  H   H316      1.0  0.54671  0.37977  0.74925  1.0000
  Fe  Fe40      1.0  0.55052  0.50295  0.74383  1.0000
  H   H317      1.0  0.41870  0.24171  0.72572  1.0000
  C   C199      1.0  0.38843  0.23630  0.75426  1.0000
  H   H318      1.0  0.63083  0.21241  0.72700  1.0000
  H   H319      1.0  0.57089  0.41730  0.89784  1.0000
  H   H320      1.0  0.64249  0.43940  0.89410  1.0000
  H   H321      1.0  0.40944  0.63016  0.68819  1.0000
  C   C200      1.0  0.41082  0.63141  0.81533  1.0000
  H   H322      1.0  0.33586  0.57917  0.92041  1.0000
  H   H323      1.0  0.46648  0.92973  0.17032  1.0000
  H   H324      1.0  0.54670  0.81370  0.02273  1.0000
  H   H325      1.0  0.59167  0.98994  0.93961  1.0000
  H   H326      1.0  0.52046  0.10904  0.01260  1.0000
  C   C201      1.0  0.52170  0.90927  0.01806  1.0000
  C   C202      1.0  0.61206  0.06183  0.03635  1.0000
  C   C203      1.0  0.57677  0.76603  0.15505  1.0000
  C   C204      1.0  0.62188  0.97301  0.92614  1.0000
  H   H327      1.0  0.45886  0.70786  0.08836  1.0000
  H   H328      1.0  0.38533  0.79028  0.96387  1.0000
  S   S85       1.0  0.53621  0.67810  0.04598  1.0000
  C   C205      1.0  0.39288  0.77968  0.01149  1.0000
  C   C206      1.0  0.38425  0.78940  0.12536  1.0000
  C   C207      1.0  0.46410  0.87588  0.98001  1.0000
  H   H329      1.0  0.54603  0.97002  0.12830  1.0000
  C   C208      1.0  0.41480  0.75488  0.13343  1.0000
  S   S86       1.0  0.58998  0.86896  0.13190  1.0000
  C   C209      1.0  0.37294  0.80184  0.06438  1.0000
  H   H330      1.0  0.45806  0.91472  0.95623  1.0000
  S   S87       1.0  0.47641  0.01988  0.08449  1.0000
  H   H331      1.0  0.45322  0.84833  0.95096  1.0000
  C   C210      1.0  0.59844  0.01674  0.07814  1.0000
  C   C211      1.0  0.55644  0.00504  0.09647  1.0000
  C   C212      1.0  0.58362  0.09546  0.01445  1.0000
  Fe  Fe41      1.0  0.48693  0.65486  0.99594  1.0000
  C   C213      1.0  0.56049  0.81319  0.16447  1.0000
  H   H332      1.0  0.60787  0.76328  0.13266  1.0000
  C   C214      1.0  0.52827  0.03772  0.07145  1.0000
  H   H333      1.0  0.64194  0.98508  0.95864  1.0000
  C   C215      1.0  0.42398  0.74538  0.01983  1.0000
  H   H334      1.0  0.36296  0.66139  0.94643  1.0000
  H   H335      1.0  0.50558  0.78797  0.99115  1.0000
  H   H336      1.0  0.34993  0.82964  0.05752  1.0000
  Fe  Fe42      1.0  0.45377  0.05151  0.99385  1.0000
  C   C216      1.0  0.36840  0.63851  0.99229  1.0000
  H   H337      1.0  0.56533  0.68570  0.16275  1.0000
  S   S88       1.0  0.44990  0.71777  0.95456  1.0000
  H   H338      1.0  0.44509  0.86971  0.02923  1.0000
  H   H339      1.0  0.50494  0.90536  0.06876  1.0000
  H   H340      1.0  0.49584  0.81221  0.06717  1.0000
  C   C217      1.0  0.43460  0.73315  0.08100  1.0000
  H   H341      1.0  0.55458  0.90627  0.02101  1.0000
  S   S89       1.0  0.39308  0.02814  0.97299  1.0000
  Fe  Fe43      1.0  0.65123  0.84406  0.08662  1.0000
  N   N23       1.0  0.50780  0.86990  0.98300  1.0000
  H   H342      1.0  0.41348  0.93132  0.16328  1.0000
  C   C218      1.0  0.54197  0.08306  0.03096  1.0000
  H   H343      1.0  0.62023  0.99068  0.09595  1.0000
  H   H344      1.0  0.36858  0.66509  0.02841  1.0000
  C   C219      1.0  0.51423  0.81874  0.01745  1.0000
  H   H345      1.0  0.51686  0.94849  0.99456  1.0000
  C   C220      1.0  0.55263  0.72151  0.17341  1.0000
  H   H346      1.0  0.61837  0.93073  0.93759  1.0000
  S   S90       1.0  0.65581  0.78657  0.01740  1.0000
  H   H347      1.0  0.59343  0.13102  0.98416  1.0000
  S   S91       1.0  0.36157  0.81694  0.19223  1.0000
  C   C221      1.0  0.64927  0.88060  0.27812  1.0000
  N   N24       1.0  0.42577  0.93472  0.25909  1.0000
  H   H348      1.0  0.56183  0.81928  0.35834  1.0000
  C   C222      1.0  0.52635  0.04832  0.28600  1.0000
  H   H349      1.0  0.62482  0.09271  0.25169  1.0000
  H   H350      1.0  0.62642  0.89110  0.40256  1.0000
  C   C223      1.0  0.57199  0.66361  0.31481  1.0000
  H   H351      1.0  0.48778  0.93321  0.27517  1.0000
  H   H352      1.0  0.64956  0.64118  0.26860  1.0000
  H   H353      1.0  0.57470  0.85110  0.27677  1.0000
  H   H354      1.0  0.38637  0.66040  0.29879  1.0000
  H   H355      1.0  0.45888  0.87458  0.30360  1.0000
  Fe  Fe44      1.0  0.38573  0.12278  0.36301  1.0000
  H   H356      1.0  0.58808  0.69230  0.27486  1.0000
  C   C224      1.0  0.45696  0.91680  0.29828  1.0000
  H   H357      1.0  0.50836  0.85158  0.20718  1.0000
  H   H358      1.0  0.44991  0.92766  0.34777  1.0000
  C   C225      1.0  0.50776  0.09137  0.25881  1.0000
  H   H359      1.0  0.62648  0.78231  0.27190  1.0000
  H   H360      1.0  0.57499  0.67702  0.36127  1.0000
  C   C226      1.0  0.43934  0.80740  0.41445  1.0000
  H   H361      1.0  0.41824  0.00598  0.29695  1.0000
  H   H362      1.0  0.37810  0.92396  0.34258  1.0000
  H   H363      1.0  0.38304  0.87181  0.29683  1.0000
  Fe  Fe45      1.0  0.65165  0.01333  0.35162  1.0000
  H   H364      1.0  0.46626  0.77109  0.24661  1.0000
  S   S92       1.0  0.39612  0.13100  0.25466  1.0000
  H   H365      1.0  0.61965  0.76205  0.35788  1.0000
  H   H366      1.0  0.38651  0.69317  0.36740  1.0000
  H   H367      1.0  0.45996  0.78928  0.37985  1.0000
  H   H368      1.0  0.45620  0.00798  0.22487  1.0000
  H   H369      1.0  0.50784  0.01517  0.30996  1.0000
  C   C227      1.0  0.38513  0.91413  0.29265  1.0000
  C   C228      1.0  0.51263  0.72298  0.20528  1.0000
  C   C229      1.0  0.32864  0.02152  0.38720  1.0000
  H   H370      1.0  0.38645  0.79233  0.37343  1.0000
  N   N25       1.0  0.32766  0.68614  0.33988  1.0000
  S   S93       1.0  0.58942  0.99785  0.32960  1.0000
  C   C230      1.0  0.63299  0.85138  0.39330  1.0000
  C   C231      1.0  0.59224  0.09218  0.25347  1.0000
  H   H371      1.0  0.43395  0.87429  0.20053  1.0000
  C   C232      1.0  0.56840  0.04925  0.28541  1.0000
  C   C233      1.0  0.49698  0.76970  0.22046  1.0000
  C   C234      1.0  0.42587  0.99117  0.24984  1.0000
  C   C235      1.0  0.39775  0.80894  0.41097  1.0000
  H   H372      1.0  0.64421  0.87517  0.22893  1.0000
  C   C236      1.0  0.37257  0.69225  0.32343  1.0000
  H   H373      1.0  0.36060  0.92930  0.26624  1.0000
  H   H374      1.0  0.40332  0.00620  0.21927  1.0000
  H   H375      1.0  0.38208  0.72844  0.29008  1.0000
  H   H376      1.0  0.47517  0.09105  0.26167  1.0000
  H   H377      1.0  0.52593  0.06992  0.40600  1.0000
  H   H378      1.0  0.51477  0.97452  0.41875  1.0000
  N   N26       1.0  0.62471  0.84334  0.32897  1.0000
  H   H379      1.0  0.53898  0.66308  0.31184  1.0000
  C   C237      1.0  0.58105  0.85055  0.32665  1.0000
  C   C238      1.0  0.52070  0.81514  0.19846  1.0000
  C   C239      1.0  0.63532  0.79088  0.31767  1.0000
  H   H380      1.0  0.57075  0.88738  0.34248  1.0000
  H   H381      1.0  0.64090  0.92040  0.28406  1.0000
  S   S94       1.0  0.48291  0.66614  0.22208  1.0000
  H   H382      1.0  0.42326  0.74462  0.18040  1.0000
  S   S95       1.0  0.37060  0.04406  0.41721  1.0000
  C   C240      1.0  0.43529  0.91673  0.19545  1.0000
  H   H383      1.0  0.63942  0.63276  0.35442  1.0000
  H   H384      1.0  0.36555  0.67161  0.54145  1.0000
  S   S96       1.0  0.60057  0.96599  0.63603  1.0000
  H   H385      1.0  0.61386  0.82500  0.43297  1.0000
  C   C241      1.0  0.37094  0.83215  0.45572  1.0000
  H   H386      1.0  0.47132  0.05650  0.57525  1.0000
  C   C242      1.0  0.49992  0.06925  0.44672  1.0000
  H   H387      1.0  0.45532  0.66932  0.66372  1.0000
  N   N27       1.0  0.41263  0.67951  0.59767  1.0000
  H   H388      1.0  0.61536  0.08689  0.47569  1.0000
  C   C243      1.0  0.45410  0.82837  0.46335  1.0000
  C   C244      1.0  0.63972  0.73098  0.60097  1.0000
  H   H389      1.0  0.48978  0.94090  0.49439  1.0000
  H   H390      1.0  0.43848  0.86816  0.54562  1.0000
  H   H391      1.0  0.46337  0.98876  0.58492  1.0000
  C   C245      1.0  0.61411  0.71826  0.55911  1.0000
  C   C246      1.0  0.43223  0.64715  0.64571  1.0000
  H   H392      1.0  0.35616  0.63538  0.62126  1.0000
  H   H393      1.0  0.54565  0.04872  0.53982  1.0000
  H   H394      1.0  0.43555  0.02900  0.53343  1.0000
  S   S97       1.0  0.50743  0.76675  0.64608  1.0000
  C   C247      1.0  0.44350  0.69794  0.53992  1.0000
  Fe  Fe46      1.0  0.51923  0.83268  0.56634  1.0000
  S   S98       1.0  0.49348  0.89092  0.62737  1.0000
  H   H395      1.0  0.35906  0.06306  0.60037  1.0000
  C   C248      1.0  0.58074  0.01811  0.67097  1.0000
  H   H396      1.0  0.38002  0.74946  0.59055  1.0000
  H   H397      1.0  0.53871  0.98069  0.55051  1.0000
  C   C249      1.0  0.38041  0.64897  0.57893  1.0000
  H   H398      1.0  0.58193  0.71057  0.57704  1.0000
  C   C250      1.0  0.61890  0.12809  0.46735  1.0000
  C   C251      1.0  0.39438  0.72372  0.62607  1.0000
  S   S99       1.0  0.50592  0.82507  0.46789  1.0000
  H   H399      1.0  0.32855  0.63738  0.43024  1.0000
  H   H400      1.0  0.46683  0.72384  0.55142  1.0000
  C   C252      1.0  0.42740  0.85163  0.50795  1.0000
  H   H401      1.0  0.61142  0.69858  0.46457  1.0000
  Fe  Fe47      1.0  0.56811  0.78576  0.66911  1.0000
  C   C253      1.0  0.34244  0.09561  0.57878  1.0000
  Fe  Fe48      1.0  0.55652  0.89926  0.64994  1.0000
  S   S100      1.0  0.58243  0.84582  0.58258  1.0000
  H   H402      1.0  0.41761  0.74709  0.64220  1.0000
  H   H403      1.0  0.63781  0.06128  0.64665  1.0000
  C   C254      1.0  0.53829  0.01609  0.51545  1.0000
  H   H404      1.0  0.50400  0.10367  0.46988  1.0000
  H   H405      1.0  0.42935  0.71936  0.50088  1.0000
  H   H406      1.0  0.36610  0.87457  0.53589  1.0000
  C   C255      1.0  0.46574  0.02422  0.54913  1.0000
  C   C256      1.0  0.60644  0.06013  0.67118  1.0000
  C   C257      1.0  0.38604  0.85442  0.50327  1.0000
  H   H407      1.0  0.46003  0.66583  0.52000  1.0000
  C   C258      1.0  0.63063  0.71237  0.49514  1.0000
  N   N28       1.0  0.49862  0.02172  0.49321  1.0000
  H   H408      1.0  0.56366  0.01387  0.47421  1.0000
  H   H409      1.0  0.32830  0.94522  0.43861  1.0000
  H   H410      1.0  0.35591  0.10485  0.52646  1.0000
  H   H411      1.0  0.35076  0.94142  0.64555  1.0000
  C   C259      1.0  0.49053  0.97753  0.46109  1.0000
  H   H412      1.0  0.46080  0.98044  0.44372  1.0000
  H   H413      1.0  0.40600  0.12892  0.62551  1.0000
  H   H414      1.0  0.37058  0.71123  0.66931  1.0000
  H   H415      1.0  0.47158  0.07326  0.42538  1.0000
  H   H416      1.0  0.62669  0.98125  0.76346  1.0000
  C   C260      1.0  0.64263  0.04607  0.84426  1.0000
  C   C261      1.0  0.37965  0.71367  0.79873  1.0000
  C   C262      1.0  0.53112  0.87559  0.91629  1.0000
  C   C263      1.0  0.54042  0.01633  0.70291  1.0000
  H   H417      1.0  0.35400  0.87502  0.89119  1.0000
  H   H418      1.0  0.60921  0.92856  0.82478  1.0000
  H   H419      1.0  0.63801  0.73843  0.81426  1.0000
  H   H420      1.0  0.56413  0.87020  0.91636  1.0000
  H   H421      1.0  0.52692  0.91381  0.88891  1.0000
  C   C264      1.0  0.45266  0.70940  0.79310  1.0000
  C   C265      1.0  0.52596  0.05642  0.73605  1.0000
  C   C266      1.0  0.59210  0.09977  0.70533  1.0000
  C   C267      1.0  0.61318  0.97086  0.81555  1.0000
  S   S101      1.0  0.61968  0.73529  0.68163  1.0000
  S   S102      1.0  0.42311  0.08962  0.82616  1.0000
  H   H422      1.0  0.58246  0.98767  0.82287  1.0000
  H   H423      1.0  0.52056  0.98363  0.70341  1.0000
  H   H424      1.0  0.35333  0.00797  0.85208  1.0000
  H   H425      1.0  0.47597  0.63392  0.80978  1.0000
  H   H426      1.0  0.64222  0.70703  0.89378  1.0000
  C   C268      1.0  0.55185  0.09791  0.73799  1.0000
  C   C269      1.0  0.44909  0.65596  0.80609  1.0000
  H   H427      1.0  0.49486  0.05454  0.76082  1.0000
  S   S103      1.0  0.48935  0.02910  0.90337  1.0000
  S   S104      1.0  0.54502  0.83945  0.73817  1.0000
  H   H428      1.0  0.52057  0.84655  0.88879  1.0000
  C   C270      1.0  0.32733  0.12556  0.68264  1.0000
  H   H429      1.0  0.34377  0.84840  0.78945  1.0000
  Fe  Fe49      1.0  0.48438  0.82527  0.70899  1.0000
  C   C271      1.0  0.41798  0.73831  0.78939  1.0000
  C   C272      1.0  0.38288  0.94302  0.72524  1.0000
  N   N29       1.0  0.63954  0.98964  0.85727  1.0000
  H   H430      1.0  0.61224  0.06327  0.85546  1.0000
  C   C273      1.0  0.37602  0.66027  0.81193  1.0000
  H   H431      1.0  0.48225  0.72827  0.78735  1.0000
  C   C274      1.0  0.35298  0.99358  0.80685  1.0000
  S   S105      1.0  0.42258  0.80486  0.76877  1.0000
  C   C275      1.0  0.38364  0.96177  0.78348  1.0000
  H   H432      1.0  0.65531  0.06008  0.79249  1.0000
  S   S106      1.0  0.42244  0.94553  0.82784  1.0000
  H   H433      1.0  0.34651  0.64139  0.81686  1.0000
  Fe  Fe50      1.0  0.42889  0.01173  0.87911  1.0000
  Fe  Fe51      1.0  0.48158  0.10882  0.85694  1.0000
  H   H434      1.0  0.35304  0.73571  0.79284  1.0000
  H   H435      1.0  0.40675  0.91864  0.70703  1.0000
  H   H436      1.0  0.34588  0.78270  0.88452  1.0000
  C   C276      1.0  0.35095  0.95530  0.69104  1.0000
  H   H437      1.0  0.34673  0.09724  0.70607  1.0000
  H   H438      1.0  0.61263  0.13075  0.70818  1.0000
  Fe  Fe52      1.0  0.39270  0.10881  0.92227  1.0000
  Fe  Fe53      1.0  0.93354  0.42229  0.17012  1.0000
  C   C277      1.0  0.97182  0.26287  0.12472  1.0000
  H   H439      1.0  0.70847  0.54797  0.95388  1.0000
  C   C278      1.0  0.85404  0.38992  0.95791  1.0000
  C   C279      1.0  0.69975  0.19394  0.14924  1.0000
  C   C280      1.0  0.88104  0.44012  0.02809  1.0000
  S   S107      1.0  0.70634  0.42601  0.15222  1.0000
  C   C281      1.0  0.81862  0.26021  0.03290  1.0000
  H   H440      1.0  0.67145  0.17203  0.14701  1.0000
  H   H441      1.0  0.80917  0.26731  0.08218  1.0000
  C   C282      1.0  0.77353  0.57016  0.16381  1.0000
  N   N30       1.0  0.84374  0.42611  0.00482  1.0000
  C   C283      1.0  0.78984  0.61830  0.05584  1.0000
  H   H442      1.0  0.78459  0.39089  0.04456  1.0000
  C   C284      1.0  0.69102  0.48103  0.10667  1.0000
  H   H443      1.0  0.87415  0.22451  0.05194  1.0000
  C   C285      1.0  0.79445  0.27488  0.98597  1.0000
  H   H444      1.0  0.87424  0.46508  0.06588  1.0000
  H   H445      1.0  0.80451  0.42869  0.09631  1.0000
  C   C286      1.0  0.80074  0.58325  0.10551  1.0000
  C   C287      1.0  0.86695  0.22532  0.95262  1.0000
  H   H446      1.0  0.67306  0.28708  0.11290  1.0000
  H   H447      1.0  0.81081  0.62817  0.01058  1.0000
  C   C288      1.0  0.96703  0.21378  0.16032  1.0000
  H   H448      1.0  0.79956  0.46309  0.95265  1.0000
  C   C289      1.0  0.66136  0.26975  0.16392  1.0000
  C   C290      1.0  0.81320  0.40202  0.06031  1.0000
  H   H449      1.0  0.82499  0.36709  0.08590  1.0000
  H   H450      1.0  0.86730  0.35471  0.98042  1.0000
  H   H451      1.0  0.74143  0.28461  0.14022  1.0000
  H   H452      1.0  0.72110  0.16610  0.16856  1.0000
  H   H453      1.0  0.85016  0.16633  0.16010  1.0000
  Fe  Fe54      1.0  0.87389  0.50821  0.17108  1.0000
  H   H454      1.0  0.81746  0.49980  0.00783  1.0000
  C   C291      1.0  0.69472  0.53728  0.00418  1.0000
  C   C292      1.0  0.73551  0.59316  0.17259  1.0000
  S   S108      1.0  0.94134  0.50610  0.13720  1.0000
  C   C293      1.0  0.82687  0.47254  0.97292  1.0000
  Fe  Fe55      1.0  0.66985  0.15494  0.95487  1.0000
  H   H455      1.0  0.90327  0.13904  0.07687  1.0000
  H   H456      1.0  0.73580  0.47615  0.02190  1.0000
  Fe  Fe56      1.0  0.70678  0.26066  0.95642  1.0000
  S   S109      1.0  0.96509  0.36613  0.11121  1.0000
  C   C294      1.0  0.85499  0.23526  0.01613  1.0000
  H   H457      1.0  0.90349  0.46192  0.98865  1.0000
  H   H458      1.0  0.71412  0.20967  0.09879  1.0000
  S   S110      1.0  0.74749  0.30216  0.00626  1.0000
  S   S111      1.0  0.84940  0.55854  0.09290  1.0000
  C   C295      1.0  0.95340  0.30404  0.15152  1.0000
  C   C296      1.0  0.71014  0.49663  0.04249  1.0000
  H   H459      1.0  0.89630  0.40587  0.04863  1.0000
  H   H460      1.0  0.98248  0.53236  0.94409  1.0000
  C   C297      1.0  0.65789  0.50778  0.13324  1.0000
  C   C298      1.0  0.72535  0.62968  0.12352  1.0000
  H   H461      1.0  0.98245  0.18225  0.14044  1.0000
  C   C299      1.0  0.66011  0.56209  0.03019  1.0000
  H   H462      1.0  0.66010  0.45405  0.96518  1.0000
  H   H463      1.0  0.82663  0.37799  0.93959  1.0000
  H   H464      1.0  0.84976  0.49308  0.93277  1.0000
  H   H465      1.0  0.98303  0.14085  0.00958  1.0000
  H   H466      1.0  0.80113  0.13439  0.96731  1.0000
  S   S112      1.0  0.91351  0.19828  0.92927  1.0000
  S   S113      1.0  0.85704  0.38689  0.39151  1.0000
  H   H467      1.0  0.69651  0.18724  0.27829  1.0000
  H   H468      1.0  0.91386  0.32735  0.23330  1.0000
  H   H469      1.0  0.75332  0.23840  0.20430  1.0000
  C   C300      1.0  0.92817  0.29565  0.21238  1.0000
  H   H470      1.0  0.78179  0.54263  0.20199  1.0000
  N   N31       1.0  0.80327  0.18937  0.39252  1.0000
  C   C301      1.0  0.80483  0.39063  0.41818  1.0000
  S   S114      1.0  0.94402  0.14689  0.27097  1.0000
  H   H471      1.0  0.71449  0.58356  0.21775  1.0000
  H   H472      1.0  0.71940  0.43655  0.36645  1.0000
  H   H473      1.0  0.82523  0.25961  0.33126  1.0000
  H   H474      1.0  0.83900  0.17183  0.30383  1.0000
  Fe  Fe57      1.0  0.94657  0.51399  0.23871  1.0000
  C   C302      1.0  0.82086  0.24193  0.38303  1.0000
  C   C303      1.0  0.73829  0.41743  0.39859  1.0000
  H   H475      1.0  0.72428  0.29362  0.22208  1.0000
  H   H476      1.0  0.85131  0.24211  0.39764  1.0000
  Fe  Fe58      1.0  0.87804  0.43588  0.29570  1.0000
  H   H477      1.0  0.76906  0.20421  0.31510  1.0000
  H   H478      1.0  0.74211  0.21492  0.39326  1.0000
  H   H479      1.0  0.93561  0.52102  0.38323  1.0000
  N   N32       1.0  0.69109  0.23498  0.18980  1.0000
  C   C304      1.0  0.97618  0.31643  0.37125  1.0000
  C   C305      1.0  0.92281  0.24627  0.24757  1.0000
  S   S115      1.0  0.86578  0.42271  0.19818  1.0000
  H   H480      1.0  0.66584  0.24172  0.28861  1.0000
  C   C306      1.0  0.76435  0.19013  0.36796  1.0000
  H   H481      1.0  0.90493  0.24006  0.29585  1.0000
  H   H482      1.0  0.95141  0.30521  0.34621  1.0000
  H   H483      1.0  0.80118  0.26720  0.41199  1.0000
  H   H484      1.0  0.96492  0.30789  0.42417  1.0000
  C   C307      1.0  0.67413  0.21208  0.25694  1.0000
  S   S116      1.0  0.94525  0.42961  0.26875  1.0000
  H   H485      1.0  0.86178  0.15496  0.37437  1.0000
  C   C308      1.0  0.78037  0.41621  0.37743  1.0000
  C   C309      1.0  0.94307  0.20566  0.22210  1.0000
  C   C310      1.0  0.83215  0.15693  0.35661  1.0000
  H   H486      1.0  0.88903  0.48369  0.40491  1.0000
  H   H487      1.0  0.74998  0.15116  0.37558  1.0000
  S   S117      1.0  0.87983  0.52177  0.27157  1.0000
  H   H488      1.0  0.96704  0.59824  0.38680  1.0000
  S   S118      1.0  0.66954  0.34489  0.32298  1.0000
  H   H489      1.0  0.79376  0.43439  0.32924  1.0000
  Fe  Fe59      1.0  0.66096  0.40803  0.24444  1.0000
  C   C311      1.0  0.72924  0.26406  0.18935  1.0000
  H   H490      1.0  0.98127  0.35853  0.35921  1.0000
  C   C312      1.0  0.90956  0.50924  0.42318  1.0000
  H   H491      1.0  0.98195  0.22088  0.34195  1.0000
  Fe  Fe60      1.0  0.78450  0.57271  0.53507  1.0000
  S   S119      1.0  0.93234  0.35456  0.63651  1.0000
  H   H492      1.0  0.70981  0.41606  0.64709  1.0000
  H   H493      1.0  0.66257  0.29028  0.56527  1.0000
  C   C313      1.0  0.79564  0.16854  0.46234  1.0000
  H   H494      1.0  0.80650  0.34659  0.51121  1.0000
  H   H495      1.0  0.86813  0.49784  0.54513  1.0000
  H   H496      1.0  0.82409  0.16809  0.48315  1.0000
  H   H497      1.0  0.69671  0.50552  0.47200  1.0000
  H   H498      1.0  0.68177  0.47478  0.55342  1.0000
  C   C314      1.0  0.89565  0.27655  0.50589  1.0000
  C   C315      1.0  0.68403  0.51239  0.52209  1.0000
  C   C316      1.0  0.79637  0.35370  0.65161  1.0000
  C   C317      1.0  0.70235  0.44962  0.66994  1.0000
  H   H499      1.0  0.67572  0.23778  0.62101  1.0000
  C   C318      1.0  0.66031  0.27507  0.61762  1.0000
  S   S120      1.0  0.90858  0.18255  0.46882  1.0000
  H   H500      1.0  0.86736  0.43892  0.51299  1.0000
  C   C319      1.0  0.74549  0.36938  0.50222  1.0000
  C   C320      1.0  0.94801  0.26190  0.59643  1.0000
  C   C321      1.0  0.77747  0.16883  0.66654  1.0000
  H   H501      1.0  0.97649  0.53228  0.47235  1.0000
  H   H502      1.0  0.93025  0.41144  0.44648  1.0000
  H   H503      1.0  0.67808  0.30179  0.63921  1.0000
  C   C322      1.0  0.94812  0.43962  0.46569  1.0000
  S   S121      1.0  0.77262  0.49419  0.59459  1.0000
  H   H504      1.0  0.78011  0.38766  0.63310  1.0000
  S   S122      1.0  0.78360  0.58912  0.42784  1.0000
  H   H505      1.0  0.95927  0.41959  0.50904  1.0000
  C   C323      1.0  0.92709  0.30723  0.58876  1.0000
  N   N33       1.0  0.92328  0.48352  0.48195  1.0000
  H   H506      1.0  0.67942  0.22334  0.49581  1.0000
  C   C324      1.0  0.94259  0.22367  0.55900  1.0000
  H   H507      1.0  0.70667  0.53689  0.53745  1.0000
  C   C325      1.0  0.72881  0.49287  0.65446  1.0000
  C   C326      1.0  0.91595  0.23071  0.51439  1.0000
  H   H508      1.0  0.96844  0.25644  0.63091  1.0000
  H   H509      1.0  0.82483  0.35157  0.61619  1.0000
  H   H510      1.0  0.93113  0.55447  0.51771  1.0000
  H   H511      1.0  0.97547  0.45224  0.42828  1.0000
  C   C327      1.0  0.94815  0.51971  0.50748  1.0000
  H   H512      1.0  0.77705  0.31919  0.65155  1.0000
  H   H513      1.0  0.78795  0.20113  0.62974  1.0000
  H   H514      1.0  0.95912  0.18881  0.56441  1.0000
  H   H515      1.0  0.89642  0.44500  0.57594  1.0000
  C   C328      1.0  0.78747  0.36700  0.48037  1.0000
  S   S123      1.0  0.66802  0.39293  0.48488  1.0000
  H   H516      1.0  0.95785  0.50172  0.55310  1.0000
  C   C329      1.0  0.88722  0.46548  0.53136  1.0000
  H   H517      1.0  0.88556  0.35011  0.53603  1.0000
  H   H518      1.0  0.87542  0.28276  0.47103  1.0000
  C   C330      1.0  0.90142  0.31488  0.54281  1.0000
  H   H519      1.0  0.73208  0.35105  0.55020  1.0000
  C   C331      1.0  0.72089  0.39405  0.46092  1.0000
  H   H520      1.0  0.77336  0.19146  0.49069  1.0000
  S   S124      1.0  0.84317  0.61664  0.52892  1.0000
  H   H521      1.0  0.66902  0.61238  0.50252  1.0000
  H   H522      1.0  0.66418  0.58234  0.43375  1.0000
  H   H523      1.0  0.73930  0.56921  0.67338  1.0000
  H   H524      1.0  0.89236  0.54395  0.43273  1.0000
  H   H525      1.0  0.74611  0.32702  0.76387  1.0000
  H   H526      1.0  0.75076  0.39535  0.74872  1.0000
  H   H527      1.0  0.66755  0.63094  0.84582  1.0000
  C   C332      1.0  0.71861  0.53627  0.68352  1.0000
  Fe  Fe61      1.0  0.69510  0.22865  0.82930  1.0000
  C   C333      1.0  0.84320  0.24104  0.90560  1.0000
  C   C334      1.0  0.76708  0.36012  0.76265  1.0000
  H   H528      1.0  0.83883  0.40675  0.76266  1.0000
  H   H529      1.0  0.78843  0.27775  0.88602  1.0000
  S   S125      1.0  0.98112  0.24936  0.75987  1.0000
  S   S126      1.0  0.67685  0.29785  0.87585  1.0000
  H   H530      1.0  0.81601  0.43841  0.69700  1.0000
  Fe  Fe62      1.0  0.95841  0.32672  0.72552  1.0000
  Fe  Fe63      1.0  0.97391  0.37192  0.84318  1.0000
  C   C335      1.0  0.80692  0.26578  0.92233  1.0000
  C   C336      1.0  0.73267  0.13246  0.76533  1.0000
  H   H531      1.0  0.67309  0.57134  0.74674  1.0000
  H   H532      1.0  0.85283  0.23375  0.85637  1.0000
  N   N34       1.0  0.80544  0.35693  0.71684  1.0000
  C   C337      1.0  0.74598  0.17429  0.71780  1.0000
  H   H533      1.0  0.87715  0.40718  0.91579  1.0000
  C   C338      1.0  0.82701  0.31085  0.73871  1.0000
  S   S127      1.0  0.72897  0.19433  0.90680  1.0000
  Fe  Fe64      1.0  0.94641  0.26000  0.85656  1.0000
  H   H534      1.0  0.80761  0.27552  0.74340  1.0000
  S   S128      1.0  0.96751  0.43718  0.90042  1.0000
  C   C339      1.0  0.66488  0.45094  0.71182  1.0000
  H   H535      1.0  0.83604  0.31288  0.78639  1.0000
  C   C340      1.0  0.68144  0.53735  0.72567  1.0000
  S   S129      1.0  0.72477  0.23386  0.72551  1.0000
  H   H536      1.0  0.77276  0.36054  0.81288  1.0000
  C   C341      1.0  0.83132  0.40306  0.71427  1.0000
  H   H537      1.0  0.85534  0.30620  0.70390  1.0000
  S   S130      1.0  0.91921  0.33344  0.82094  1.0000
  H   H538      1.0  0.70829  0.13640  0.80475  1.0000
  H   H539      1.0  0.86060  0.40185  0.68056  1.0000
  S   S131      1.0  0.70643  0.89064  0.03254  1.0000
  H   H540      1.0  0.87136  0.65590  0.13436  1.0000
  Fe  Fe65      1.0  0.74219  0.83948  0.09494  1.0000
  Fe  Fe66      1.0  0.94163  0.87174  0.94867  1.0000
  C   C342      1.0  0.80751  0.71538  0.16302  1.0000
  H   H541      1.0  0.87965  0.74878  0.09170  1.0000
  Fe  Fe67      1.0  0.93675  0.96925  0.01189  1.0000
  S   S132      1.0  0.91480  0.04751  0.02360  1.0000
  S   S133      1.0  0.75230  0.78002  0.02960  1.0000
  H   H542      1.0  0.81133  0.70586  0.11287  1.0000
  C   C343      1.0  0.84817  0.02706  0.12255  1.0000
  C   C344      1.0  0.75230  0.64171  0.06498  1.0000
  H   H543      1.0  0.80728  0.08076  0.02659  1.0000
  S   S134      1.0  0.66427  0.07474  0.00677  1.0000
  H   H544      1.0  0.85904  0.88066  0.94632  1.0000
  C   C345      1.0  0.87443  0.75618  0.14287  1.0000
  H   H545      1.0  0.82958  0.99871  0.99172  1.0000
  H   H546      1.0  0.75789  0.02849  0.98819  1.0000
  H   H547      1.0  0.86133  0.79477  0.14336  1.0000
  Fe  Fe68      1.0  0.71394  0.82895  0.96952  1.0000
  H   H548      1.0  0.85088  0.11033  0.97163  1.0000
  Fe  Fe69      1.0  0.96959  0.87361  0.07784  1.0000
  H   H549      1.0  0.79298  0.75309  0.16233  1.0000
  S   S135      1.0  0.79545  0.86744  0.13358  1.0000
  H   H550      1.0  0.84711  0.98864  0.11076  1.0000
  S   S136      1.0  0.68654  0.79922  0.15464  1.0000
  C   C346      1.0  0.81724  0.04302  0.16912  1.0000
  S   S137      1.0  0.90972  0.89003  0.04531  1.0000
  C   C347      1.0  0.84936  0.12745  0.14987  1.0000
  C   C348      1.0  0.87964  0.11187  0.10311  1.0000
  H   H551      1.0  0.90458  0.75811  0.15846  1.0000
  Fe  Fe70      1.0  0.69327  0.74341  0.08440  1.0000
  C   C349      1.0  0.87908  0.06194  0.08898  1.0000
  C   C350      1.0  0.81819  0.09880  0.97569  1.0000
  S   S138      1.0  0.68077  0.66374  0.13690  1.0000
  H   H552      1.0  0.78604  0.88867  0.94018  1.0000
  H   H553      1.0  0.74412  0.66904  0.02662  1.0000
  C   C351      1.0  0.83709  0.01781  0.94052  1.0000
  H   H554      1.0  0.87027  0.02781  0.93008  1.0000
  H   H555      1.0  0.74990  0.08135  0.92914  1.0000
  C   C352      1.0  0.76928  0.04793  0.93790  1.0000
  N   N35       1.0  0.81276  0.06368  0.92918  1.0000
  H   H556      1.0  0.98757  0.05692  0.92543  1.0000
  C   C353      1.0  0.93326  0.66687  0.37827  1.0000
  C   C354      1.0  0.80333  0.90332  0.24486  1.0000
  H   H557      1.0  0.94419  0.01992  0.18994  1.0000
  N   N36       1.0  0.91574  0.98405  0.28494  1.0000
  C   C355      1.0  0.90110  0.93248  0.31790  1.0000
  H   H558      1.0  0.97310  0.97727  0.31884  1.0000
  S   S139      1.0  0.69640  0.69261  0.40685  1.0000
  H   H559      1.0  0.86840  0.02360  0.33845  1.0000
  H   H560      1.0  0.80313  0.93811  0.33083  1.0000
  C   C356      1.0  0.96531  0.63732  0.39538  1.0000
  C   C357      1.0  0.75091  0.82851  0.32500  1.0000
  C   C358      1.0  0.76021  0.82719  0.25805  1.0000
  H   H561      1.0  0.88451  0.93364  0.36795  1.0000
  H   H562      1.0  0.95961  0.04153  0.29314  1.0000
  H   H563      1.0  0.74738  0.79689  0.23783  1.0000
  S   S140      1.0  0.77986  0.11594  0.23871  1.0000
  C   C359      1.0  0.96251  0.73963  0.41398  1.0000
  H   H564      1.0  0.91058  0.96657  0.19036  1.0000
  H   H565      1.0  0.68242  0.87739  0.27907  1.0000
  C   C360      1.0  0.79228  0.90619  0.31098  1.0000
  Fe  Fe71      1.0  0.73908  0.05857  0.30931  1.0000
  H   H566      1.0  0.82665  0.76636  0.25565  1.0000
  H   H567      1.0  0.89083  0.05767  0.26065  1.0000
  H   H568      1.0  0.97465  0.82831  0.31056  1.0000
  C   C361      1.0  0.81795  0.09336  0.18260  1.0000
  H   H569      1.0  0.93452  0.00752  0.36886  1.0000
  H   H570      1.0  0.66862  0.78514  0.31442  1.0000
  C   C362      1.0  0.76565  0.86921  0.35085  1.0000
  Fe  Fe72      1.0  0.72185  0.95988  0.40283  1.0000
  S   S141      1.0  0.75612  0.03228  0.40625  1.0000
  S   S142      1.0  0.70966  0.98379  0.30184  1.0000
  C   C363      1.0  0.93154  0.71800  0.38816  1.0000
  H   H571      1.0  0.88011  0.91468  0.29126  1.0000
  H   H572      1.0  0.89506  0.66505  0.20243  1.0000
  S   S143      1.0  0.89462  0.63902  0.34737  1.0000
  H   H573      1.0  0.85627  0.00413  0.26608  1.0000
  S   S144      1.0  0.97239  0.82946  0.17546  1.0000
  H   H574      1.0  0.79255  0.01676  0.19368  1.0000
  S   S145      1.0  0.68004  0.08994  0.35071  1.0000
  C   C364      1.0  0.93338  0.98148  0.21650  1.0000
  C   C365      1.0  0.84055  0.72856  0.25269  1.0000
  H   H575      1.0  0.81976  0.11720  0.36145  1.0000
  H   H576      1.0  0.90669  0.74103  0.37511  1.0000
  H   H577      1.0  0.86984  0.72996  0.27107  1.0000
  C   C366      1.0  0.94716  0.00341  0.31777  1.0000
  C   C367      1.0  0.88128  0.01892  0.28763  1.0000
  H   H578      1.0  0.73051  0.79978  0.35610  1.0000
  H   H579      1.0  0.82359  0.93220  0.21399  1.0000
  H   H580      1.0  0.92678  0.90638  0.32205  1.0000
  H   H581      1.0  0.95976  0.95593  0.21278  1.0000
  H   H582      1.0  0.82018  0.69933  0.28654  1.0000
  C   C368      1.0  0.78589  0.86526  0.21783  1.0000
  H   H583      1.0  0.98663  0.72109  0.18480  1.0000
  H   H584      1.0  0.98832  0.73193  0.26588  1.0000
  H   H585      1.0  0.98426  0.66785  0.24829  1.0000
  H   H586      1.0  0.66547  0.84474  0.39741  1.0000
  H   H587      1.0  0.84535  0.63518  0.21546  1.0000
  C   C369      1.0  0.86558  0.66605  0.18431  1.0000
  Fe  Fe73      1.0  0.83954  0.63789  0.42367  1.0000
  H   H588      1.0  0.96192  0.77938  0.42052  1.0000
  H   H589      1.0  0.78576  0.68636  0.19460  1.0000
  N   N37       1.0  0.84702  0.71652  0.18572  1.0000
  H   H590      1.0  0.94361  0.76192  0.54633  1.0000
  N   N38       1.0  0.95623  0.75260  0.64339  1.0000
  S   S146      1.0  0.68757  0.11432  0.51934  1.0000
  H   H591      1.0  0.93681  0.82899  0.61787  1.0000
  C   C370      1.0  0.89169  0.87715  0.51364  1.0000
  S   S147      1.0  0.86771  0.04326  0.53893  1.0000
  H   H592      1.0  0.82608  0.83514  0.65361  1.0000
  C   C371      1.0  0.86793  0.87787  0.57477  1.0000
  C   C372      1.0  0.69708  0.73804  0.51318  1.0000
  Fe  Fe74      1.0  0.75023  0.65999  0.44833  1.0000
  H   H593      1.0  0.86880  0.91100  0.59885  1.0000
  H   H594      1.0  0.72926  0.74576  0.49577  1.0000
  C   C373      1.0  0.68091  0.74250  0.57741  1.0000
  H   H595      1.0  0.79370  0.94949  0.57961  1.0000
  N   N39       1.0  0.73196  0.92186  0.61630  1.0000
  S   S148      1.0  0.91890  0.97962  0.64335  1.0000
  C   C374      1.0  0.94050  0.73258  0.59032  1.0000
  H   H596      1.0  0.70759  0.99325  0.58010  1.0000
  H   H597      1.0  0.67234  0.88490  0.63380  1.0000
  H   H598      1.0  0.95741  0.69879  0.57589  1.0000
  H   H599      1.0  0.90760  0.72096  0.60438  1.0000
  C   C375      1.0  0.86506  0.79171  0.51299  1.0000
  C   C376      1.0  0.88970  0.83439  0.48241  1.0000
  C   C377      1.0  0.70057  0.89055  0.59655  1.0000
  S   S149      1.0  0.92575  0.92795  0.47727  1.0000
  Fe  Fe75      1.0  0.86835  0.03508  0.64532  1.0000
  Fe  Fe76      1.0  0.69526  0.05940  0.44753  1.0000
  S   S150      1.0  0.74597  0.63907  0.55622  1.0000
  H   H600      1.0  0.78292  0.12861  0.47098  1.0000
  H   H601      1.0  0.76204  0.94870  0.51901  1.0000
  H   H602      1.0  0.78039  0.89017  0.55454  1.0000
  S   S151      1.0  0.80627  0.70945  0.43715  1.0000
  H   H603      1.0  0.71189  0.85221  0.58784  1.0000
  H   H604      1.0  0.86504  0.75813  0.48958  1.0000
  S   S152      1.0  0.66210  0.98476  0.45223  1.0000
  C   C378      1.0  0.67259  0.71989  0.47338  1.0000
  H   H605      1.0  0.82128  0.11791  0.62517  1.0000
  Fe  Fe77      1.0  0.92093  0.99221  0.53590  1.0000
  H   H606      1.0  0.70062  0.75398  0.60878  1.0000
  S   S153      1.0  0.81272  0.73765  0.61447  1.0000
  C   C379      1.0  0.79643  0.12178  0.66412  1.0000
  S   S154      1.0  0.96703  0.05719  0.51671  1.0000
  C   C380      1.0  0.84341  0.83505  0.60555  1.0000
  H   H607      1.0  0.73891  0.99737  0.64053  1.0000
  C   C381      1.0  0.71597  0.97276  0.62554  1.0000
  C   C382      1.0  0.84195  0.79191  0.57463  1.0000
  S   S155      1.0  0.91052  0.10298  0.63757  1.0000
  H   H608      1.0  0.69166  0.90887  0.55059  1.0000
  Fe  Fe78      1.0  0.80455  0.68437  0.54341  1.0000
  C   C383      1.0  0.76869  0.92790  0.56530  1.0000
  Fe  Fe79      1.0  0.91352  0.10735  0.53030  1.0000
  Fe  Fe80      1.0  0.96147  0.04845  0.62475  1.0000
  H   H609      1.0  0.90755  0.83405  0.43479  1.0000
  H   H610      1.0  0.68793  0.96968  0.66302  1.0000
  H   H611      1.0  0.90000  0.78803  0.67441  1.0000
  H   H612      1.0  0.75468  0.85756  0.67212  1.0000
  C   C384      1.0  0.93316  0.79775  0.65995  1.0000
  S   S156      1.0  0.74357  0.88138  0.42776  1.0000
  H   H613      1.0  0.97438  0.12154  0.90365  1.0000
  H   H614      1.0  0.69538  0.98110  0.79194  1.0000
  H   H615      1.0  0.66387  0.66310  0.76668  1.0000
  H   H616      1.0  0.66706  0.76848  0.86384  1.0000
  C   C385      1.0  0.84678  0.86459  0.90924  1.0000
  S   S157      1.0  0.96362  0.95238  0.91299  1.0000
  N   N40       1.0  0.69619  0.70597  0.82209  1.0000
  H   H617      1.0  0.66263  0.06158  0.87445  1.0000
  H   H618      1.0  0.70093  0.98076  0.87499  1.0000
  H   H619      1.0  0.74143  0.05360  0.79996  1.0000
  H   H620      1.0  0.67905  0.92605  0.85125  1.0000
  H   H621      1.0  0.74588  0.72103  0.74141  1.0000
  H   H622      1.0  0.94331  0.81341  0.70094  1.0000
  C   C386      1.0  0.74276  0.89616  0.67761  1.0000
  H   H623      1.0  0.96238  0.72661  0.74228  1.0000
  C   C387      1.0  0.78345  0.08022  0.71245  1.0000
  C   C388      1.0  0.87166  0.83726  0.86695  1.0000
  H   H624      1.0  0.91880  0.70022  0.71754  1.0000
  C   C389      1.0  0.78885  0.84758  0.85870  1.0000
  H   H625      1.0  0.87439  0.79483  0.78696  1.0000
  S   S158      1.0  0.92266  0.82714  0.87515  1.0000
  H   H626      1.0  0.72759  0.77635  0.77588  1.0000
  C   C390      1.0  0.72304  0.69636  0.87111  1.0000
  C   C391      1.0  0.68432  0.65704  0.80345  1.0000
  C   C392      1.0  0.71799  0.73911  0.76394  1.0000
  H   H627      1.0  0.75122  0.67724  0.85212  1.0000
  C   C393      1.0  0.75118  0.08544  0.76241  1.0000
  C   C394      1.0  0.95138  0.71266  0.70090  1.0000
  H   H628      1.0  0.71593  0.89114  0.71746  1.0000
  S   S159      1.0  0.73585  0.84588  0.86252  1.0000
  H   H629      1.0  0.70733  0.67144  0.91562  1.0000
  H   H630      1.0  0.71147  0.63696  0.78245  1.0000
  H   H631      1.0  0.73251  0.73262  0.88624  1.0000
  C   C395      1.0  0.80537  0.86927  0.90555  1.0000
  C   C396      1.0  0.68051  0.96855  0.84310  1.0000
  H   H632      1.0  0.80140  0.80459  0.77880  1.0000
  H   H633      1.0  0.76430  0.02093  0.90408  1.0000
  C   C397      1.0  0.82656  0.09010  0.86246  1.0000
  C   C398      1.0  0.81406  0.82210  0.81448  1.0000
  C   C399      1.0  0.85536  0.81646  0.81916  1.0000
  H   H634      1.0  0.82497  0.06398  0.82614  1.0000
  C   C400      1.0  0.65922  0.73122  0.84969  1.0000
  H   H635      1.0  0.69832  0.74717  0.72641  1.0000
  S   S160      1.0  0.80857  0.02236  0.71334  1.0000
  H   H636      1.0  0.96888  0.67823  0.69036  1.0000
  H   H637      1.0  0.80765  0.12351  0.85087  1.0000
  H   H638      1.0  0.76674  0.91847  0.69366  1.0000
  H   H639      1.0  0.85878  0.10447  0.85558  1.0000
  H   H640      1.0  0.83187  0.98923  0.90867  1.0000
