data_image0
_chemical_formula_structural       CHFeSFeHFeSHC3H2CH2NCSCS2FeSFeCH2SC2S2H4CFeSFeC2HCH8CHCHCSHNCH5C3H2C2HSH4NHCNHCHC2H2CH2C2HC2HCH2C2H4C3H2FeSFeSFe2S2H2CHCSCH3C2HCH3CH8SHSHFeHC3HC2H2NCH3CH3C2HS2HFeSFeSFe2SHSH2CH2CHNHCH2CHSCHC2H6CH2NCH3CH2C2H4CSH2CSFeNH3CFeHCHCHCH2CSH2CS2NC3H3CHCSH4CH2FeSFeHNHCH2CHC2H3CH2NH4CHC3H2C2SHCH2CH2FeH2FeSHSHC2HCHCHC4SH5C2SCHNFeH4SHC2H3CHSH5C3HC2HCNH4CH2CSH2C2FeH2C2HC3H2CSH2CSFeS2HSC3HFeCSCHFeSFeSC2FeH2SH4C2SH3NHSCHCH2CH8CH2SHCFeSCNSC3H2CFeC2H2SHFeH2SCSH2FeSHCHC4FeCH4SFeNH5C2HCH2SH3SCNC3H4CH2FeC2H2SCHCFeSH4CH3CH2FeS2FeSCFeSCSH2SC2H3CH3C6H3SNCHCHCFeNHC2H6CHCH3CHC2H2SHS2C3SC2HCH3Fe2SH2SNC2H3SHCSH2CH3CSFeSC2SH5CHSHFeSHCHS2CHSH3C7H2CHC2HSCH3CHCHCSNH7Fe2SH2S2CNCHC4HCFeSHCH4CHSHSH2CH2CHCH2NH4CHCHC3HCH3NC2HCH5CH4SHC
_chemical_formula_sum              "C240 H384 Fe48 S96 N24"
_cell_length_a       35.2729
_cell_length_b       36.1212
_cell_length_c       52.1431
_cell_angle_alpha    89.6874
_cell_angle_beta     89.9316
_cell_angle_gamma    114.996

_space_group_name_H-M_alt    "P 1"
_space_group_IT_number       1

loop_
  _space_group_symop_operation_xyz
  'x, y, z'

loop_
  _atom_site_type_symbol
  _atom_site_label
  _atom_site_symmetry_multiplicity
  _atom_site_fract_x
  _atom_site_fract_y
  _atom_site_fract_z
  _atom_site_occupancy
  C   C1        1.0  0.36646  0.17797  0.14602  1.0000
  H   H1        1.0  0.44486  0.21934  0.11956  1.0000
  Fe  Fe1       1.0  0.36981  0.05460  0.00145  1.0000
  S   S1        1.0  0.33260  0.03017  0.03737  1.0000
  Fe  Fe2       1.0  0.41118  0.22485  0.20618  1.0000
  H   H2        1.0  0.37625  0.08939  0.10949  1.0000
  Fe  Fe3       1.0  0.36777  0.09338  0.05279  1.0000
  S   S2        1.0  0.33747  0.12628  0.07574  1.0000
  H   H3        1.0  0.41517  0.20968  0.07573  1.0000
  C   C2        1.0  0.38516  0.15504  0.15784  1.0000
  C   C3        1.0  0.35504  0.13688  0.10751  1.0000
  C   C4        1.0  0.35103  0.16860  0.12089  1.0000
  H   H4        1.0  0.33644  0.18623  0.11176  1.0000
  H   H5        1.0  0.36378  0.20275  0.15626  1.0000
  C   C5        1.0  0.44347  0.46813  0.17654  1.0000
  H   H6        1.0  0.39441  0.44892  0.24739  1.0000
  H   H7        1.0  0.40472  0.41128  0.23015  1.0000
  N   N1        1.0  0.47919  0.22287  0.08478  1.0000
  C   C6        1.0  0.48454  0.47498  0.18250  1.0000
  S   S3        1.0  0.40563  0.16593  0.18885  1.0000
  C   C7        1.0  0.46270  0.40173  0.18608  1.0000
  S   S4        1.0  0.42087  0.08170  0.06852  1.0000
  S   S5        1.0  0.39963  0.11938  0.01539  1.0000
  Fe  Fe4       1.0  0.40206  0.30383  0.20301  1.0000
  S   S6        1.0  0.45256  0.28625  0.18953  1.0000
  Fe  Fe5       1.0  0.44986  0.10258  0.02996  1.0000
  C   C8        1.0  0.38831  0.12287  0.14462  1.0000
  H   H8        1.0  0.43593  0.49360  0.17261  1.0000
  H   H9        1.0  0.45687  0.02174  0.08947  1.0000
  S   S7        1.0  0.42306  0.03985  0.01298  1.0000
  C   C9        1.0  0.49366  0.26752  0.08201  1.0000
  C   C10       1.0  0.37366  0.11412  0.11946  1.0000
  S   S8        1.0  0.38140  0.34538  0.18076  1.0000
  S   S9        1.0  0.35803  0.24093  0.21648  1.0000
  H   H10       1.0  0.40274  0.10512  0.15379  1.0000
  H   H11       1.0  0.29314  0.04619  0.12201  1.0000
  H   H12       1.0  0.25076  0.01235  0.10260  1.0000
  H   H13       1.0  0.44678  0.20964  0.04862  1.0000
  C   C11       1.0  0.32405  0.39736  0.22467  1.0000
  Fe  Fe6       1.0  0.47706  0.30180  0.22957  1.0000
  S   S10       1.0  0.44043  0.23883  0.24515  1.0000
  Fe  Fe7       1.0  0.38837  0.02050  0.05021  1.0000
  C   C12       1.0  0.49429  0.44169  0.18672  1.0000
  C   C13       1.0  0.41225  0.42814  0.17476  1.0000
  H   H14       1.0  0.32902  0.42991  0.22393  1.0000
  C   C14       1.0  0.38901  0.41620  0.24748  1.0000
  H   H15       1.0  0.28975  0.37806  0.22446  1.0000
  H   H16       1.0  0.35733  0.01625  0.10253  1.0000
  H   H17       1.0  0.30436  0.32458  0.24602  1.0000
  H   H18       1.0  0.35326  0.33969  0.23003  1.0000
  H   H19       1.0  0.45897  0.17763  0.11487  1.0000
  H   H20       1.0  0.42922  0.16805  0.07105  1.0000
  H   H21       1.0  0.38074  0.42303  0.16961  1.0000
  H   H22       1.0  0.33716  0.39086  0.20670  1.0000
  C   C15       1.0  0.42165  0.39492  0.18002  1.0000
  H   H23       1.0  0.47028  0.37619  0.18991  1.0000
  C   C16       1.0  0.44099  0.20177  0.06936  1.0000
  H   H24       1.0  0.34958  0.02505  0.13562  1.0000
  C   C17       1.0  0.46988  0.21113  0.11207  1.0000
  S   S11       1.0  0.43013  0.32480  0.24170  1.0000
  H   H25       1.0  0.30237  0.03720  0.08940  1.0000
  N   N2        1.0  0.34383  0.38884  0.24755  1.0000
  C   C18       1.0  0.28448  0.02221  0.10700  1.0000
  H   H26       1.0  0.49788  0.22661  0.12438  1.0000
  H   H27       1.0  0.46936  0.27736  0.08874  1.0000
  H   H28       1.0  0.50095  0.27741  0.06164  1.0000
  H   H29       1.0  0.49396  0.42503  0.24778  1.0000
  H   H30       1.0  0.50214  0.17739  0.07742  1.0000
  C   C19       1.0  0.33803  0.34592  0.24704  1.0000
  C   C20       1.0  0.33875  0.00197  0.12005  1.0000
  C   C21       1.0  0.49227  0.43468  0.41168  1.0000
  H   H31       1.0  0.15288  0.21532  0.35823  1.0000
  H   H32       1.0  0.37879  0.20952  0.39285  1.0000
  C   C22       1.0  0.32714  0.26911  0.29997  1.0000
  C   C23       1.0  0.29382  0.26223  0.28328  1.0000
  H   H33       1.0  0.12202  0.31611  0.37191  1.0000
  S   S12       1.0  0.36346  0.24887  0.29396  1.0000
  H   H34       1.0  0.08388  0.23876  0.33916  1.0000
  H   H35       1.0  0.39449  0.31530  0.37565  1.0000
  H   H36       1.0  0.46841  0.32901  0.37179  1.0000
  H   H37       1.0  0.43698  0.46085  0.33980  1.0000
  N   N3        1.0  0.41863  0.26991  0.37945  1.0000
  H   H38       1.0  0.43326  0.22003  0.39036  1.0000
  C   C24       1.0  0.13577  0.25702  0.39591  1.0000
  N   N4        1.0  0.13163  0.26133  0.36795  1.0000
  H   H39       1.0  0.17505  0.32426  0.36742  1.0000
  C   C25       1.0  0.08803  0.23605  0.36015  1.0000
  H   H40       1.0  0.35709  0.29764  0.33503  1.0000
  C   C26       1.0  0.38891  0.28711  0.38684  1.0000
  C   C27       1.0  0.41115  0.23357  0.39544  1.0000
  H   H41       1.0  0.43459  0.24504  0.34579  1.0000
  H   H42       1.0  0.48537  0.28949  0.37758  1.0000
  C   C28       1.0  0.33155  0.29229  0.32207  1.0000
  H   H43       1.0  0.19338  0.26635  0.35952  1.0000
  H   H44       1.0  0.23983  0.27420  0.27559  1.0000
  C   C29       1.0  0.32417  0.39573  0.27098  1.0000
  C   C30       1.0  0.27083  0.30354  0.31033  1.0000
  H   H45       1.0  0.06580  0.24560  0.37026  1.0000
  C   C31       1.0  0.16018  0.24787  0.35409  1.0000
  C   C32       1.0  0.26543  0.27926  0.28858  1.0000
  H   H46       1.0  0.15847  0.25149  0.33294  1.0000
  C   C33       1.0  0.14253  0.30457  0.36162  1.0000
  H   H47       1.0  0.46147  0.46884  0.37054  1.0000
  H   H48       1.0  0.12768  0.22481  0.40154  1.0000
  C   C34       1.0  0.30074  0.48867  0.31562  1.0000
  C   C35       1.0  0.30365  0.30962  0.32718  1.0000
  H   H49       1.0  0.07868  0.20319  0.36466  1.0000
  H   H50       1.0  0.38029  0.23495  0.34829  1.0000
  H   H51       1.0  0.14044  0.30934  0.34065  1.0000
  H   H52       1.0  0.41826  0.28484  0.33948  1.0000
  C   C36       1.0  0.45896  0.47775  0.42528  1.0000
  C   C37       1.0  0.46186  0.30095  0.38338  1.0000
  C   C38       1.0  0.41268  0.25811  0.35215  1.0000
  H   H53       1.0  0.16827  0.27587  0.40251  1.0000
  H   H54       1.0  0.41537  0.24146  0.41618  1.0000
  Fe  Fe8       1.0  0.26054  0.36624  0.35124  1.0000
  S   S13       1.0  0.32640  0.41207  0.35751  1.0000
  Fe  Fe9       1.0  0.23135  0.37940  0.40344  1.0000
  S   S14       1.0  0.29470  0.42655  0.41522  1.0000
  Fe  Fe10      1.0  0.29733  0.45043  0.37505  1.0000
  Fe  Fe11      1.0  0.31870  0.38442  0.39678  1.0000
  S   S15       1.0  0.36794  0.36533  0.41043  1.0000
  S   S16       1.0  0.23203  0.40734  0.36487  1.0000
  H   H55       1.0  0.29000  0.24381  0.26633  1.0000
  H   H56       1.0  0.11518  0.26762  0.40697  1.0000
  C   C39       1.0  0.13478  0.35198  0.47063  1.0000
  H   H57       1.0  0.49014  0.31247  0.32680  1.0000
  C   C40       1.0  0.13621  0.35726  0.49728  1.0000
  S   S17       1.0  0.16906  0.35495  0.42339  1.0000
  C   C41       1.0  0.20906  0.36971  0.46996  1.0000
  H   H58       1.0  0.30779  0.32781  0.34419  1.0000
  H   H59       1.0  0.39199  0.29576  0.40747  1.0000
  H   H60       1.0  0.23724  0.37443  0.45950  1.0000
  C   C42       1.0  0.41661  0.40675  0.41467  1.0000
  C   C43       1.0  0.45304  0.40159  0.40971  1.0000
  H   H61       1.0  0.46787  0.31047  0.40379  1.0000
  C   C44       1.0  0.41949  0.44488  0.42240  1.0000
  H   H62       1.0  0.45098  0.37224  0.40384  1.0000
  H   H63       1.0  0.28982  0.37634  0.27133  1.0000
  H   H64       1.0  0.39139  0.44885  0.42654  1.0000
  C   C45       1.0  0.17132  0.35898  0.45689  1.0000
  H   H65       1.0  0.10540  0.34308  0.46063  1.0000
  H   H66       1.0  0.27253  0.46619  0.32429  1.0000
  H   H67       1.0  0.35589  0.26510  0.38353  1.0000
  H   H68       1.0  0.40479  0.41066  0.26456  1.0000
  H   H69       1.0  0.35170  0.33803  0.26429  1.0000
  H   H70       1.0  0.33727  0.38822  0.28864  1.0000
  H   H71       1.0  0.16934  0.44334  0.47787  1.0000
  H   H72       1.0  0.32899  0.42807  0.27231  1.0000
  S   S18       1.0  0.23789  0.32783  0.31601  1.0000
  H   H73       1.0  0.15092  0.47737  0.49298  1.0000
  S   S19       1.0  0.25521  0.33501  0.38900  1.0000
  H   H74       1.0  0.28342  0.46501  0.27750  1.0000
  Fe  Fe12      1.0  0.39101  0.26037  0.25417  1.0000
  H   H75       1.0  0.24422  0.45820  0.47893  1.0000
  C   C46       1.0  0.21034  0.37448  0.49671  1.0000
  C   C47       1.0  0.46374  0.48257  0.35116  1.0000
  C   C48       1.0  0.30701  0.48794  0.28914  1.0000
  H   H76       1.0  0.48497  0.30283  0.28003  1.0000
  C   C49       1.0  0.17450  0.46450  0.49429  1.0000
  C   C50       1.0  0.49537  0.47283  0.41943  1.0000
  H   H77       1.0  0.49325  0.48459  0.34231  1.0000
  H   H78       1.0  0.50645  0.47922  0.28118  1.0000
  N   N5        1.0  0.21760  0.49698  0.49446  1.0000
  C   C51       1.0  0.24755  0.47821  0.49574  1.0000
  H   H79       1.0  0.39603  0.49858  0.35310  1.0000
  H   H80       1.0  0.05737  0.38149  0.72140  1.0000
  H   H81       1.0  0.05799  0.40422  0.69061  1.0000
  C   C52       1.0  0.02154  0.30347  0.70601  1.0000
  H   H82       1.0  0.10407  0.35191  0.70423  1.0000
  H   H83       1.0  0.08927  0.32048  0.67602  1.0000
  H   H84       1.0  0.24229  0.45888  0.51332  1.0000
  C   C53       1.0  0.17415  0.36944  0.51029  1.0000
  C   C54       1.0  0.08708  0.34690  0.68568  1.0000
  H   H85       1.0  0.01211  0.47895  0.74502  1.0000
  S   S20       1.0  0.07939  0.36788  0.58757  1.0000
  S   S21       1.0  0.04784  0.44222  0.57965  1.0000
  H   H86       1.0  0.23965  0.38327  0.50678  1.0000
  Fe  Fe13      1.0  0.12704  0.39955  0.55688  1.0000
  S   S22       1.0  0.14811  0.46161  0.57438  1.0000
  Fe  Fe14      1.0  0.09591  0.43094  0.60243  1.0000
  S   S23       1.0  0.10076  0.44114  0.64480  1.0000
  Fe  Fe15      1.0  0.09872  0.46728  0.54998  1.0000
  Fe  Fe16      1.0  0.03525  0.38142  0.56252  1.0000
  S   S24       1.0  0.08110  0.40751  0.53039  1.0000
  H   H87       1.0  0.10417  0.37438  0.67345  1.0000
  S   S25       1.0  0.17761  0.38188  0.54298  1.0000
  H   H88       1.0  0.10634  0.47991  0.69328  1.0000
  H   H89       1.0  0.16773  0.44586  0.51215  1.0000
  C   C55       1.0  0.11270  0.49193  0.65258  1.0000
  H   H90       1.0  0.00930  0.37195  0.70551  1.0000
  H   H91       1.0  0.02235  0.30693  0.65432  1.0000
  C   C56       1.0  0.04193  0.37601  0.70229  1.0000
  H   H92       1.0  0.10788  0.35171  0.50774  1.0000
  N   N6        1.0  0.04308  0.33999  0.68962  1.0000
  H   H93       1.0  0.03668  0.36072  0.65179  1.0000
  C   C57       1.0  0.02168  0.33359  0.66458  1.0000
  H   H94       1.0  0.03582  0.30778  0.72545  1.0000
  H   H95       1.0  0.02262  0.27581  0.69744  1.0000
  C   C58       1.0  0.42814  0.05431  0.92513  1.0000
  H   H96       1.0  0.48362  0.11340  0.89608  1.0000
  S   S26       1.0  0.34344  0.03848  0.96184  1.0000
  C   C59       1.0  0.46181  0.08611  0.88549  1.0000
  H   H97       1.0  0.47852  0.08362  0.86791  1.0000
  C   C60       1.0  0.05172  0.43788  0.79055  1.0000
  C   C61       1.0  0.50579  0.14970  0.97609  1.0000
  H   H98       1.0  0.41626  0.02628  0.93733  1.0000
  H   H99       1.0  0.47599  0.14955  0.98114  1.0000
  H   H100      1.0  0.45022  0.07967  0.93699  1.0000
  H   H101      1.0  0.49681  0.15355  0.93548  1.0000
  H   H102      1.0  0.43480  0.09228  0.87938  1.0000
  H   H103      1.0  0.07341  0.44675  0.80644  1.0000
  C   C62       1.0  0.04489  0.46772  0.77663  1.0000
  H   H104      1.0  0.49687  0.03149  0.83948  1.0000
  H   H105      1.0  0.40118  0.06159  0.92067  1.0000
  N   N7        1.0  0.44814  0.04877  0.90149  1.0000
  C   C63       1.0  0.48469  0.04081  0.90832  1.0000
  H   H106      1.0  0.50128  0.03762  0.89092  1.0000
  H   H107      1.0  0.43134  0.00990  0.86860  1.0000
  H   H108      1.0  0.47520  0.01228  0.91983  1.0000
  C   C64       1.0  0.03066  0.39657  0.78401  1.0000
  H   H109      1.0  0.03624  0.37369  0.79480  1.0000
  H   H110      1.0  0.38910  0.01811  0.88232  1.0000
  C   C65       1.0  0.01689  0.45607  0.75609  1.0000
  C   C66       1.0  0.41773  0.01380  0.88702  1.0000
  H   H111      1.0  0.50778  0.06634  0.91971  1.0000
  H   H112      1.0  0.42524  0.71772  0.06584  1.0000
  H   H113      1.0  0.47116  0.89325  0.07241  1.0000
  H   H114      1.0  0.29768  0.96863  0.07673  1.0000
  C   C67       1.0  0.43672  0.64834  0.06294  1.0000
  S   S27       1.0  0.43782  0.56784  0.19318  1.0000
  H   H115      1.0  0.34689  0.97636  0.12550  1.0000
  H   H116      1.0  0.23571  0.95832  0.13620  1.0000
  C   C68       1.0  0.27003  0.96955  0.13911  1.0000
  S   S28       1.0  0.44704  0.62074  0.24580  1.0000
  Fe  Fe17      1.0  0.47065  0.63312  0.20541  1.0000
  N   N8        1.0  0.33174  0.61648  0.22319  1.0000
  H   H117      1.0  0.26681  0.58210  0.21416  1.0000
  H   H118      1.0  0.43201  0.69420  0.02289  1.0000
  H   H119      1.0  0.34995  0.60540  0.18556  1.0000
  C   C69       1.0  0.34574  0.59293  0.20546  1.0000
  Fe  Fe18      1.0  0.50027  0.82480  0.03864  1.0000
  H   H120      1.0  0.37632  0.59403  0.21147  1.0000
  C   C70       1.0  0.29097  0.61429  0.21455  1.0000
  H   H121      1.0  0.32330  0.56009  0.20500  1.0000
  C   C71       1.0  0.50200  0.95499  0.08629  1.0000
  H   H122      1.0  0.40402  0.64338  0.05857  1.0000
  C   C72       1.0  0.36297  0.65957  0.22335  1.0000
  H   H123      1.0  0.27938  0.63167  0.22752  1.0000
  H   H124      1.0  0.24654  0.94430  0.09079  1.0000
  C   C73       1.0  0.46373  0.69701  0.02816  1.0000
  S   S29       1.0  0.37824  0.96199  0.07012  1.0000
  H   H125      1.0  0.45839  0.71554  0.09160  1.0000
  H   H126      1.0  0.47058  0.67495  0.01639  1.0000
  C   C74       1.0  0.28055  0.95614  0.09497  1.0000
  S   S30       1.0  0.45510  0.68024  0.18539  1.0000
  S   S31       1.0  0.43699  0.78501  0.02358  1.0000
  N   N9        1.0  0.46680  0.69020  0.05593  1.0000
  C   C75       1.0  0.49133  0.70866  0.16178  1.0000
  C   C76       1.0  0.42991  0.92325  0.07200  1.0000
  C   C77       1.0  0.42591  0.95959  0.07642  1.0000
  H   H127      1.0  0.27615  0.94330  0.14589  1.0000
  H   H128      1.0  0.47945  0.75173  0.06589  1.0000
  H   H129      1.0  0.27912  0.99247  0.15481  1.0000
  C   C78       1.0  0.48649  0.74099  0.14955  1.0000
  H   H130      1.0  0.28756  0.92980  0.10035  1.0000
  C   C79       1.0  0.46813  0.92116  0.07650  1.0000
  S   S32       1.0  0.35321  0.51243  0.24519  1.0000
  H   H131      1.0  0.46078  0.74828  0.15487  1.0000
  H   H132      1.0  0.40369  0.89691  0.06456  1.0000
  H   H133      1.0  0.43829  0.64228  0.08380  1.0000
  H   H134      1.0  0.39410  0.66233  0.22987  1.0000
  C   C80       1.0  0.45695  0.71998  0.07055  1.0000
  H   H135      1.0  0.44321  0.62505  0.05223  1.0000
  H   H136      1.0  0.29327  0.62719  0.19486  1.0000
  Fe  Fe19      1.0  0.41870  0.55520  0.23433  1.0000
  S   S33       1.0  0.47391  0.54428  0.24612  1.0000
  Fe  Fe20      1.0  0.49633  0.56326  0.20586  1.0000
  H   H137      1.0  0.36788  0.67345  0.20379  1.0000
  N   N10       1.0  0.29344  0.98748  0.11527  1.0000
  H   H138      1.0  0.49906  0.97929  0.03292  1.0000
  C   C81       1.0  0.45993  0.99367  0.08587  1.0000
  H   H139      1.0  0.35345  0.67849  0.23633  1.0000
  H   H140      1.0  0.49342  0.99437  0.00089  1.0000
  C   C82       1.0  0.49774  0.99112  0.09126  1.0000
  H   H141      1.0  0.48612  0.72827  0.02223  1.0000
  C   C83       1.0  0.32730  0.59903  0.24934  1.0000
  C   C84       1.0  0.34425  0.51583  0.27797  1.0000
  H   H142      1.0  0.40326  0.56715  0.28480  1.0000
  H   H143      1.0  0.44004  0.52070  0.31420  1.0000
  H   H144      1.0  0.02782  0.56233  0.46886  1.0000
  C   C85       1.0  0.22498  0.52176  0.47078  1.0000
  H   H145      1.0  0.25728  0.54654  0.47017  1.0000
  H   H146      1.0  0.49442  0.54125  0.38885  1.0000
  N   N11       1.0  0.46308  0.52314  0.35266  1.0000
  H   H147      1.0  0.46123  0.50715  0.43147  1.0000
  H   H148      1.0  0.42186  0.54876  0.36650  1.0000
  H   H149      1.0  0.39012  0.57121  0.33098  1.0000
  H   H150      1.0  0.20275  0.53628  0.46936  1.0000
  C   C86       1.0  0.42341  0.51876  0.36460  1.0000
  H   H151      1.0  0.35754  0.60035  0.25650  1.0000
  C   C87       1.0  0.33074  0.51858  0.33077  1.0000
  C   C88       1.0  0.36697  0.54786  0.31937  1.0000
  C   C89       1.0  0.37424  0.54578  0.29311  1.0000
  H   H152      1.0  0.46626  0.57120  0.32694  1.0000
  H   H153      1.0  0.09040  0.55010  0.47860  1.0000
  C   C90       1.0  0.06731  0.54562  0.49339  1.0000
  C   C91       1.0  0.46649  0.54044  0.32655  1.0000
  S   S34       1.0  0.32517  0.51665  0.36417  1.0000
  H   H154      1.0  0.49617  0.54429  0.31702  1.0000
  C   C92       1.0  0.03196  0.55256  0.48789  1.0000
  H   H155      1.0  0.41931  0.50510  0.38416  1.0000
  H   H156      1.0  0.31648  0.61574  0.26329  1.0000
  C   C93       1.0  0.49851  0.55072  0.36838  1.0000
  H   H157      1.0  0.50168  0.58270  0.36766  1.0000
  H   H158      1.0  0.30459  0.56626  0.24985  1.0000
  Fe  Fe21      1.0  0.50442  0.61131  0.25409  1.0000
  H   H159      1.0  0.28047  0.50171  0.49612  1.0000
  H   H160      1.0  0.22072  0.50264  0.45338  1.0000
  Fe  Fe22      1.0  0.09713  0.61483  0.71050  1.0000
  S   S35       1.0  0.13154  0.62065  0.67355  1.0000
  H   H161      1.0  0.27220  0.71027  0.74504  1.0000
  S   S36       1.0  0.06660  0.65655  0.71890  1.0000
  H   H162      1.0  0.25546  0.77287  0.69319  1.0000
  C   C94       1.0  0.12721  0.57201  0.66556  1.0000
  C   C95       1.0  0.11945  0.54253  0.68479  1.0000
  H   H163      1.0  0.04657  0.58105  0.65571  1.0000
  C   C96       1.0  0.12871  0.56172  0.63986  1.0000
  H   H164      1.0  0.11894  0.55046  0.70471  1.0000
  C   C97       1.0  0.22138  0.69252  0.70398  1.0000
  H   H165      1.0  0.13479  0.58454  0.62497  1.0000
  C   C98       1.0  0.01207  0.56873  0.65332  1.0000
  C   C99       1.0  0.12103  0.52153  0.63333  1.0000
  C   C100      1.0  0.07226  0.53202  0.51778  1.0000
  C   C101      1.0  0.04249  0.52649  0.53689  1.0000
  S   S37       1.0  0.04095  0.55753  0.72047  1.0000
  H   H166      1.0  0.19656  0.66344  0.71145  1.0000
  H   H167      1.0  0.18140  0.74142  0.70776  1.0000
  H   H168      1.0  0.04683  0.51697  0.55591  1.0000
  H   H169      1.0  0.21004  0.69882  0.68524  1.0000
  H   H170      1.0  0.03837  0.50992  0.66032  1.0000
  C   C102      1.0  0.24349  0.71560  0.74705  1.0000
  C   C103      1.0  0.26430  0.76397  0.71195  1.0000
  S   S38       1.0  0.11541  0.52143  0.52398  1.0000
  C   C104      1.0  0.19237  0.73333  0.72605  1.0000
  H   H171      1.0  0.27170  0.79004  0.72534  1.0000
  N   N12       1.0  0.23038  0.72634  0.72225  1.0000
  Fe  Fe23      1.0  0.01250  0.59973  0.73235  1.0000
  H   H172      1.0  0.29357  0.75989  0.70898  1.0000
  H   H173      1.0  0.24950  0.68683  0.70019  1.0000
  H   H174      1.0  0.04878  0.54267  0.61705  1.0000
  H   H175      1.0  0.16611  0.70562  0.73376  1.0000
  S   S39       1.0  0.12674  0.62087  0.74902  1.0000
  H   H176      1.0  0.19771  0.75827  0.74001  1.0000
  C   C105      1.0  0.22319  0.52325  0.51708  1.0000
  C   C106      1.0  0.01417  0.53113  0.61565  1.0000
  H   H177      1.0  0.12148  0.51347  0.61342  1.0000
  H   H178      1.0  0.25541  0.54803  0.51797  1.0000
  H   H179      1.0  0.21737  0.50524  0.53524  1.0000
  C   C107      1.0  0.11243  0.50258  0.67831  1.0000
  H   H180      1.0  0.20101  0.53786  0.51678  1.0000
  S   S40       1.0  0.03448  0.60513  0.77310  1.0000
  H   H181      1.0  0.50554  0.93756  0.91018  1.0000
  H   H182      1.0  0.50326  0.78694  0.94091  1.0000
  H   H183      1.0  0.39323  0.80975  0.93874  1.0000
  H   H184      1.0  0.15382  0.66204  0.79678  1.0000
  H   H185      1.0  0.31369  0.89562  0.98104  1.0000
  C   C108      1.0  0.33092  0.98740  0.95390  1.0000
  C   C109      1.0  0.44038  0.78858  0.99007  1.0000
  C   C110      1.0  0.31262  0.90635  0.94042  1.0000
  H   H186      1.0  0.25332  0.73247  0.90550  1.0000
  C   C111      1.0  0.22789  0.73947  0.91364  1.0000
  C   C112      1.0  0.17675  0.69265  0.80074  1.0000
  H   H187      1.0  0.20808  0.71313  0.92596  1.0000
  C   C113      1.0  0.16830  0.72615  0.79483  1.0000
  N   N13       1.0  0.20319  0.74720  0.89312  1.0000
  H   H188      1.0  0.24304  0.76662  0.92625  1.0000
  H   H189      1.0  0.14766  0.72846  0.91630  1.0000
  H   H190      1.0  0.18163  0.78214  0.91748  1.0000
  H   H191      1.0  0.21311  0.79031  0.86237  1.0000
  C   C114      1.0  0.16901  0.75502  0.90466  1.0000
  H   H192      1.0  0.14990  0.76111  0.88963  1.0000
  H   H193      1.0  0.19104  0.79165  0.79653  1.0000
  C   C115      1.0  0.19760  0.76565  0.80103  1.0000
  S   S41       1.0  0.12241  0.71920  0.77847  1.0000
  H   H194      1.0  0.16794  0.71660  0.85985  1.0000
  H   H195      1.0  0.22178  0.67259  0.81581  1.0000
  C   C116      1.0  0.23058  0.78331  0.87800  1.0000
  C   C117      1.0  0.18558  0.71130  0.87611  1.0000
  Fe  Fe24      1.0  0.40824  0.82662  0.88702  1.0000
  H   H196      1.0  0.16399  0.68352  0.88667  1.0000
  H   H197      1.0  0.21080  0.70430  0.86757  1.0000
  C   C118      1.0  0.32561  0.97560  0.92810  1.0000
  C   C119      1.0  0.21509  0.69866  0.81173  1.0000
  H   H198      1.0  0.24487  0.81098  0.89021  1.0000
  C   C120      1.0  0.31732  0.91799  0.96623  1.0000
  C   C121      1.0  0.47746  0.78964  0.95068  1.0000
  C   C122      1.0  0.50170  0.93973  0.84476  1.0000
  H   H199      1.0  0.25649  0.77823  0.86890  1.0000
  H   H200      1.0  0.48525  0.88955  0.92732  1.0000
  C   C123      1.0  0.41534  0.80224  0.94937  1.0000
  S   S42       1.0  0.43055  0.95071  0.83586  1.0000
  H   H201      1.0  0.25026  0.74030  0.76139  1.0000
  H   H202      1.0  0.31342  0.92644  0.90137  1.0000
  C   C124      1.0  0.24482  0.73811  0.81736  1.0000
  S   S43       1.0  0.32526  0.85880  0.85754  1.0000
  Fe  Fe25      1.0  0.33713  0.85018  0.89892  1.0000
  S   S44       1.0  0.33980  0.79004  0.89308  1.0000
  S   S45       1.0  0.29948  0.85525  0.93229  1.0000
  H   H203      1.0  0.48217  0.90735  0.84344  1.0000
  S   S46       1.0  0.45652  0.80852  0.90372  1.0000
  C   C125      1.0  0.31740  0.93536  0.92131  1.0000
  C   C126      1.0  0.32728  0.95865  0.97294  1.0000
  C   C127      1.0  0.48437  0.96777  0.84119  1.0000
  H   H204      1.0  0.25893  0.80224  0.81647  1.0000
  Fe  Fe26      1.0  0.33359  0.80108  0.85133  1.0000
  C   C128      1.0  0.47387  0.78546  0.97740  1.0000
  S   S47       1.0  0.40290  0.83284  0.84459  1.0000
  C   C129      1.0  0.44870  0.79883  0.93670  1.0000
  H   H205      1.0  0.21865  0.68725  0.75535  1.0000
  Fe  Fe27      1.0  0.39546  0.88968  0.85467  1.0000
  S   S48       1.0  0.29293  0.74399  0.83008  1.0000
  Fe  Fe28      1.0  0.06739  0.56727  0.76011  1.0000
  S   S49       1.0  0.40651  0.88617  0.89672  1.0000
  C   C130      1.0  0.23593  0.77167  0.81230  1.0000
  C   C131      1.0  0.41077  0.79641  0.97602  1.0000
  Fe  Fe29      1.0  0.09170  0.65834  0.75869  1.0000
  H   H206      1.0  0.40765  0.98463  0.89801  1.0000
  H   H207      1.0  0.38507  0.79929  0.98580  1.0000
  S   S50       1.0  0.07048  0.51896  0.78611  1.0000
  H   H208      1.0  0.49699  0.77965  0.98809  1.0000
  H   H209      1.0  0.33137  0.96753  0.99288  1.0000
  H   H210      1.0  0.32788  0.99763  0.91337  1.0000
  H   H211      1.0  0.61041  0.05575  0.03918  1.0000
  C   C132      1.0  0.55788  0.49770  0.24077  1.0000
  C   C133      1.0  0.53645  0.06102  0.02865  1.0000
  S   S51       1.0  0.54439  0.33980  0.23930  1.0000
  H   H212      1.0  0.52387  0.01735  0.09885  1.0000
  H   H213      1.0  0.66441  0.03454  0.02253  1.0000
  H   H214      1.0  0.53750  0.41708  0.23583  1.0000
  N   N14       1.0  0.55204  0.03180  0.01879  1.0000
  H   H215      1.0  0.52613  0.44669  0.19075  1.0000
  S   S52       1.0  0.51788  0.14453  0.02758  1.0000
  C   C134      1.0  0.51215  0.21097  0.07564  1.0000
  H   H216      1.0  0.56683  0.02024  0.05709  1.0000
  C   C135      1.0  0.58101  0.02724  0.03766  1.0000
  H   H217      1.0  0.52694  0.49693  0.23580  1.0000
  H   H218      1.0  0.51601  0.06660  0.01439  1.0000
  C   C136      1.0  0.66389  0.01608  0.00618  1.0000
  H   H219      1.0  0.54159  0.22631  0.08671  1.0000
  H   H220      1.0  0.56263  0.09106  0.03304  1.0000
  H   H221      1.0  0.57129  0.49116  0.22294  1.0000
  H   H222      1.0  0.51784  0.04972  0.04656  1.0000
  H   H223      1.0  0.52243  0.28444  0.09345  1.0000
  H   H224      1.0  0.59331  0.14962  0.00336  1.0000
  H   H225      1.0  0.51972  0.21896  0.05500  1.0000
  H   H226      1.0  0.58954  0.00191  0.03247  1.0000
  C   C137      1.0  0.54912  0.34432  0.27272  1.0000
  H   H227      1.0  0.53347  0.45653  0.30058  1.0000
  H   H228      1.0  0.52011  0.43056  0.40713  1.0000
  S   S53       1.0  0.60883  0.44894  0.41049  1.0000
  H   H229      1.0  0.52052  0.40360  0.26833  1.0000
  C   C138      1.0  0.51709  0.32895  0.31490  1.0000
  Fe  Fe30      1.0  0.59581  0.42934  0.36945  1.0000
  S   S54       1.0  0.66112  0.46658  0.35600  1.0000
  C   C139      1.0  0.55430  0.35654  0.32593  1.0000
  N   N15       1.0  0.55403  0.46811  0.26137  1.0000
  S   S55       1.0  0.55592  0.36438  0.35911  1.0000
  C   C140      1.0  0.58925  0.37780  0.31038  1.0000
  C   C141      1.0  0.58683  0.37118  0.28378  1.0000
  C   C142      1.0  0.53732  0.47878  0.28480  1.0000
  H   H230      1.0  0.61392  0.38733  0.27174  1.0000
  H   H231      1.0  0.61830  0.39873  0.31887  1.0000
  C   C143      1.0  0.51427  0.32333  0.28834  1.0000
  Fe  Fe31      1.0  0.67251  0.49140  0.39599  1.0000
  C   C144      1.0  0.52519  0.42669  0.25302  1.0000
  C   C145      1.0  0.59564  0.46929  0.26681  1.0000
  H   H232      1.0  0.59463  0.45014  0.28378  1.0000
  H   H233      1.0  0.94944  0.41026  0.49142  1.0000
  S   S56       1.0  0.57294  0.47616  0.35802  1.0000
  H   H234      1.0  0.60765  0.45792  0.25028  1.0000
  Fe  Fe32      1.0  0.59014  0.49853  0.39819  1.0000
  H   H235      1.0  0.89496  0.43481  0.49975  1.0000
  H   H236      1.0  0.85091  0.23086  0.59750  1.0000
  S   S57       1.0  0.86728  0.25904  0.72487  1.0000
  C   C146      1.0  0.92309  0.31616  0.62571  1.0000
  S   S58       1.0  0.81724  0.30835  0.69885  1.0000
  H   H237      1.0  0.95355  0.40293  0.56246  1.0000
  H   H238      1.0  0.74812  0.22983  0.62868  1.0000
  Fe  Fe33      1.0  0.86653  0.28845  0.68692  1.0000
  S   S59       1.0  0.85482  0.25516  0.64944  1.0000
  H   H239      1.0  0.80805  0.32920  0.59595  1.0000
  C   C147      1.0  0.88790  0.27881  0.62333  1.0000
  H   H240      1.0  0.89588  0.26219  0.55976  1.0000
  C   C148      1.0  0.90351  0.27738  0.57811  1.0000
  C   C149      1.0  0.93948  0.31386  0.58061  1.0000
  C   C150      1.0  0.80029  0.30290  0.60938  1.0000
  C   C151      1.0  0.87809  0.25968  0.59946  1.0000
  Fe  Fe34      1.0  0.82201  0.28406  0.73763  1.0000
  C   C152      1.0  0.90559  0.44061  0.52002  1.0000
  H   H241      1.0  0.82645  0.31113  0.62331  1.0000
  H   H242      1.0  0.79971  0.27650  0.59821  1.0000
  H   H243      1.0  0.82485  0.47022  0.62237  1.0000
  H   H244      1.0  0.98801  0.29699  0.70890  1.0000
  S   S60       1.0  0.97095  0.33452  0.55350  1.0000
  Fe  Fe35      1.0  0.85142  0.48538  0.56823  1.0000
  N   N16       1.0  0.76018  0.29290  0.62277  1.0000
  H   H245      1.0  0.73277  0.30994  0.59064  1.0000
  H   H246      1.0  0.72111  0.24897  0.65060  1.0000
  H   H247      1.0  0.69573  0.27564  0.61314  1.0000
  H   H248      1.0  0.93030  0.33150  0.64391  1.0000
  H   H249      1.0  0.78890  0.33675  0.65258  1.0000
  C   C153      1.0  0.75074  0.25710  0.63972  1.0000
  C   C154      1.0  0.94929  0.33345  0.60441  1.0000
  H   H250      1.0  0.77014  0.35575  0.62600  1.0000
  C   C155      1.0  0.89243  0.37053  0.52783  1.0000
  H   H251      1.0  0.77604  0.26304  0.65399  1.0000
  H   H252      1.0  0.98428  0.45027  0.51152  1.0000
  S   S61       1.0  0.83720  0.42214  0.58207  1.0000
  H   H253      1.0  0.91445  0.49472  0.73294  1.0000
  H   H254      1.0  0.93331  0.45697  0.74015  1.0000
  H   H255      1.0  0.72344  0.25701  0.59156  1.0000
  S   S62       1.0  0.86843  0.42502  0.70084  1.0000
  C   C156      1.0  0.72649  0.28340  0.60367  1.0000
  N   N17       1.0  0.92450  0.41321  0.52864  1.0000
  C   C157      1.0  0.84827  0.42508  0.61477  1.0000
  C   C158      1.0  0.84542  0.45163  0.65696  1.0000
  C   C159      1.0  0.83868  0.45123  0.63047  1.0000
  H   H256      1.0  0.99215  0.46829  0.64882  1.0000
  H   H257      1.0  0.73388  0.32171  0.64900  1.0000
  H   H258      1.0  0.97519  0.39825  0.51775  1.0000
  H   H259      1.0  0.87490  0.38136  0.61312  1.0000
  C   C160      1.0  0.86186  0.42600  0.66767  1.0000
  H   H260      1.0  0.91418  0.42074  0.56854  1.0000
  H   H261      1.0  0.98834  0.32789  0.66696  1.0000
  Fe  Fe36      1.0  0.87039  0.36575  0.71112  1.0000
  C   C161      1.0  0.86601  0.40050  0.62533  1.0000
  C   C162      1.0  0.87241  0.40067  0.65179  1.0000
  H   H262      1.0  0.96442  0.45536  0.55642  1.0000
  H   H263      1.0  0.92814  0.47318  0.52121  1.0000
  S   S63       1.0  0.91987  0.34819  0.69609  1.0000
  C   C163      1.0  0.93984  0.42357  0.55519  1.0000
  H   H264      1.0  0.88539  0.38104  0.65981  1.0000
  C   C164      1.0  0.76331  0.32827  0.63825  1.0000
  Fe  Fe37      1.0  0.91613  0.32126  0.73525  1.0000
  S   S64       1.0  0.84447  0.49673  0.52668  1.0000
  H   H265      1.0  0.83688  0.47099  0.66922  1.0000
  H   H266      1.0  0.97690  0.36189  0.60637  1.0000
  H   H267      1.0  0.87806  0.43658  0.53204  1.0000
  H   H268      1.0  0.86576  0.36589  0.54090  1.0000
  C   C165      1.0  0.95987  0.41819  0.51157  1.0000
  H   H269      1.0  0.93519  0.48284  0.62903  1.0000
  H   H270      1.0  0.90545  0.34872  0.53388  1.0000
  H   H271      1.0  0.97237  0.40574  0.73460  1.0000
  C   C166      1.0  0.93191  0.48528  0.74739  1.0000
  H   H272      1.0  0.87977  0.36191  0.50814  1.0000
  H   H273      1.0  0.98958  0.49584  0.67686  1.0000
  Fe  Fe38      1.0  0.71067  0.15393  0.88991  1.0000
  S   S65       1.0  0.64933  0.12764  0.86910  1.0000
  S   S66       1.0  0.77129  0.19907  0.87260  1.0000
  Fe  Fe39      1.0  0.67476  0.10083  0.93717  1.0000
  S   S67       1.0  0.61085  0.06945  0.92014  1.0000
  C   C167      1.0  0.67442  0.03416  0.98188  1.0000
  Fe  Fe40      1.0  0.62169  0.13221  0.90704  1.0000
  S   S68       1.0  0.56766  0.14892  0.91102  1.0000
  C   C168      1.0  0.67229  0.10024  0.80655  1.0000
  S   S69       1.0  0.68346  0.16422  0.92667  1.0000
  H   H274      1.0  0.75154  0.15518  0.79672  1.0000
  H   H275      1.0  0.83494  0.23788  0.83459  1.0000
  S   S70       1.0  0.68262  0.08514  0.97793  1.0000
  C   C169      1.0  0.55538  0.15061  0.94348  1.0000
  C   C170      1.0  0.58244  0.14937  0.96272  1.0000
  H   H276      1.0  0.68483  0.02486  0.94222  1.0000
  H   H277      1.0  0.73091  0.12198  0.76992  1.0000
  H   H278      1.0  0.67656  0.02822  0.81039  1.0000
  C   C171      1.0  0.72714  0.09808  0.83331  1.0000
  H   H279      1.0  0.61184  0.14872  0.95773  1.0000
  H   H280      1.0  0.57209  0.05586  0.85007  1.0000
  H   H281      1.0  0.85134  0.44212  0.78949  1.0000
  C   C172      1.0  0.76869  0.21618  0.84131  1.0000
  C   C173      1.0  0.73041  0.21096  0.83069  1.0000
  C   C174      1.0  0.72833  0.22159  0.80499  1.0000
  C   C175      1.0  0.76464  0.23805  0.78991  1.0000
  C   C176      1.0  0.80321  0.24455  0.80070  1.0000
  C   C177      1.0  0.80518  0.23354  0.82638  1.0000
  H   H282      1.0  0.70244  0.19907  0.84231  1.0000
  H   H283      1.0  0.69854  0.21706  0.79677  1.0000
  H   H284      1.0  0.83138  0.25730  0.78915  1.0000
  S   S71       1.0  0.70782  0.09312  0.90233  1.0000
  N   N18       1.0  0.91168  0.47868  0.77284  1.0000
  C   C178      1.0  0.53312  0.14900  0.99529  1.0000
  H   H285      1.0  0.70456  0.07495  0.84649  1.0000
  C   C179      1.0  0.70081  0.05152  0.79793  1.0000
  H   H286      1.0  0.55356  0.05109  0.97946  1.0000
  C   C180      1.0  0.93415  0.46330  0.79086  1.0000
  Fe  Fe41      1.0  0.64451  0.06777  0.88408  1.0000
  N   N19       1.0  0.71072  0.09334  0.80689  1.0000
  H   H287      1.0  0.67862  0.13156  0.81311  1.0000
  C   C181      1.0  0.74257  0.12347  0.78989  1.0000
  C   C182      1.0  0.57439  0.04737  0.99427  1.0000
  H   H288      1.0  0.58780  0.02677  0.98660  1.0000
  H   H289      1.0  0.73337  0.12869  0.84109  1.0000
  H   H290      1.0  0.65890  0.09676  0.78694  1.0000
  H   H291      1.0  0.75704  0.09472  0.83424  1.0000
  H   H292      1.0  0.77173  0.11873  0.78925  1.0000
  H   H293      1.0  0.64773  0.07822  0.81939  1.0000
  C   C183      1.0  0.55264  0.02349  0.84845  1.0000
  H   H294      1.0  0.72896  0.04501  0.79830  1.0000
  C   C184      1.0  0.67585  0.01079  0.96093  1.0000
  H   H295      1.0  0.68854  0.04687  0.77800  1.0000
  H   H296      1.0  0.84998  0.45943  0.75713  1.0000
  H   H297      1.0  0.96772  0.48517  0.79258  1.0000
  C   C185      1.0  0.86764  0.44853  0.77061  1.0000
  H   H298      1.0  0.93345  0.43368  0.78432  1.0000
  C   C186      1.0  0.00165  0.38477  0.76404  1.0000
  C   C187      1.0  0.57181  0.14965  0.98861  1.0000
  H   H299      1.0  0.92008  0.45826  0.81039  1.0000
  H   H300      1.0  0.60107  0.07793  0.99670  1.0000
  S   S72       1.0  0.62308  0.01212  0.85929  1.0000
  H   H301      1.0  0.86546  0.41911  0.76287  1.0000
  S   S73       1.0  0.97516  0.33284  0.75631  1.0000
  S   S74       1.0  0.76060  0.24788  0.75730  1.0000
  C   C188      1.0  0.51744  0.15166  0.95023  1.0000
  C   C189      1.0  0.99459  0.41456  0.75013  1.0000
  C   C190      1.0  0.51005  0.00970  0.84255  1.0000
  S   S75       1.0  0.87093  0.34393  0.75131  1.0000
  C   C191      1.0  0.51500  0.76413  0.13060  1.0000
  C   C192      1.0  0.52474  0.69949  0.15499  1.0000
  H   H302      1.0  0.52866  0.67455  0.16435  1.0000
  C   C193      1.0  0.65162  0.97402  0.00924  1.0000
  H   H303      1.0  0.58612  0.83715  0.15146  1.0000
  H   H304      1.0  0.63776  0.91357  0.18210  1.0000
  H   H305      1.0  0.52966  0.86059  0.15624  1.0000
  Fe  Fe42      1.0  0.59082  0.87540  0.02539  1.0000
  Fe  Fe43      1.0  0.55127  0.89998  0.06935  1.0000
  S   S76       1.0  0.60978  0.89011  0.06643  1.0000
  H   H306      1.0  0.59739  0.93113  0.18592  1.0000
  H   H307      1.0  0.61496  0.93434  0.11542  1.0000
  S   S77       1.0  0.53174  0.63018  0.21466  1.0000
  N   N20       1.0  0.59494  0.89997  0.15054  1.0000
  C   C194      1.0  0.60423  0.90589  0.17823  1.0000
  C   C195      1.0  0.54827  0.75487  0.12361  1.0000
  H   H308      1.0  0.58518  0.87770  0.18940  1.0000
  H   H309      1.0  0.59735  0.86069  0.12042  1.0000
  H   H310      1.0  0.63831  0.87329  0.14351  1.0000
  S   S78       1.0  0.55029  0.95295  0.09104  1.0000
  H   H311      1.0  0.61328  0.96379  0.14240  1.0000
  C   C196      1.0  0.55323  0.72266  0.13596  1.0000
  S   S79       1.0  0.58403  0.78296  0.09958  1.0000
  H   H312      1.0  0.54234  0.88562  0.12556  1.0000
  H   H313      1.0  0.57908  0.71547  0.13076  1.0000
  C   C197      1.0  0.60463  0.86639  0.14115  1.0000
  H   H314      1.0  0.65472  0.94728  0.13944  1.0000
  H   H315      1.0  0.53331  0.72691  0.05726  1.0000
  H   H316      1.0  0.64191  0.95990  0.02787  1.0000
  C   C198      1.0  0.51629  0.99184  0.01468  1.0000
  S   S80       1.0  0.53557  0.89062  0.02760  1.0000
  Fe  Fe44      1.0  0.56705  0.82433  0.07431  1.0000
  S   S81       1.0  0.55410  0.80857  0.03282  1.0000
  C   C199      1.0  0.62070  0.93802  0.13643  1.0000
  C   C200      1.0  0.55015  0.88955  0.14630  1.0000
  S   S82       1.0  0.52329  0.52498  0.18594  1.0000
  H   H317      1.0  0.54161  0.91420  0.15314  1.0000
  H   H318      1.0  0.52680  0.96894  0.00721  1.0000
  H   H319      1.0  0.51841  0.67370  0.05145  1.0000
  H   H320      1.0  0.57845  0.52950  0.24636  1.0000
  H   H321      1.0  0.51322  0.69096  0.08300  1.0000
  C   C201      1.0  0.50972  0.69556  0.06214  1.0000
  H   H322      1.0  0.51134  0.78931  0.12174  1.0000
  S   S83       1.0  0.51010  0.83563  0.08070  1.0000
  H   H323      1.0  0.56733  0.61460  0.33894  1.0000
  Fe  Fe45      1.0  0.63991  0.51584  0.34876  1.0000
  S   S84       1.0  0.66152  0.55371  0.31303  1.0000
  H   H324      1.0  0.83733  0.65664  0.35797  1.0000
  C   C202      1.0  0.78373  0.52621  0.45434  1.0000
  H   H325      1.0  0.73009  0.54252  0.36097  1.0000
  S   S85       1.0  0.65522  0.54330  0.38781  1.0000
  S   S86       1.0  0.54422  0.51509  0.41937  1.0000
  C   C203      1.0  0.71492  0.52537  0.45785  1.0000
  H   H326      1.0  0.79758  0.59000  0.39917  1.0000
  S   S87       1.0  0.95690  0.55366  0.49896  1.0000
  H   H327      1.0  0.69943  0.54158  0.49496  1.0000
  H   H328      1.0  0.78094  0.54341  0.36218  1.0000
  H   H329      1.0  0.75330  0.61994  0.32914  1.0000
  C   C204      1.0  0.57327  0.61362  0.29793  1.0000
  C   C205      1.0  0.58225  0.60664  0.32314  1.0000
  C   C206      1.0  0.60960  0.58839  0.32790  1.0000
  C   C207      1.0  0.63002  0.57951  0.30747  1.0000
  C   C208      1.0  0.62314  0.58893  0.28233  1.0000
  C   C209      1.0  0.59374  0.60482  0.27748  1.0000
  C   C210      1.0  0.76264  0.55932  0.35396  1.0000
  H   H330      1.0  0.61518  0.58158  0.34739  1.0000
  H   H331      1.0  0.79182  0.63712  0.39676  1.0000
  C   C211      1.0  0.76130  0.54337  0.49478  1.0000
  H   H332      1.0  0.76605  0.65470  0.35578  1.0000
  C   C212      1.0  0.82335  0.62386  0.35244  1.0000
  C   C213      1.0  0.79175  0.53814  0.48001  1.0000
  H   H333      1.0  0.82501  0.62241  0.33117  1.0000
  S   S88       1.0  0.73614  0.50375  0.41124  1.0000
  C   C214      1.0  0.75409  0.62194  0.35047  1.0000
  H   H334      1.0  0.84339  0.60980  0.36063  1.0000
  H   H335      1.0  0.63950  0.58271  0.26656  1.0000
  H   H336      1.0  0.72100  0.60653  0.35707  1.0000
  C   C215      1.0  0.72306  0.53752  0.48360  1.0000
  H   H337      1.0  0.58730  0.61072  0.25797  1.0000
  C   C216      1.0  0.77905  0.60499  0.39004  1.0000
  H   H338      1.0  0.74667  0.58896  0.39779  1.0000
  C   C217      1.0  0.74520  0.51936  0.44331  1.0000
  S   S89       1.0  0.53458  0.63100  0.29241  1.0000
  N   N21       1.0  0.77979  0.60258  0.36174  1.0000
  H   H339      1.0  0.68512  0.52021  0.44940  1.0000
  H   H340      1.0  0.82164  0.54341  0.48832  1.0000
  H   H341      1.0  0.52867  0.55082  0.36200  1.0000
  H   H342      1.0  0.80731  0.52182  0.44310  1.0000
  H   H343      1.0  0.76193  0.55600  0.33273  1.0000
  H   H344      1.0  0.61904  0.50086  0.27103  1.0000
  H   H345      1.0  0.55886  0.50950  0.29188  1.0000
  Fe  Fe46      1.0  0.82499  0.54458  0.54095  1.0000
  Fe  Fe47      1.0  0.89204  0.57545  0.58100  1.0000
  S   S90       1.0  0.91977  0.62663  0.60907  1.0000
  H   H346      1.0  0.98081  0.66881  0.64697  1.0000
  H   H347      1.0  0.74947  0.60372  0.57122  1.0000
  S   S91       1.0  0.89000  0.59423  0.54018  1.0000
  S   S92       1.0  0.82566  0.52854  0.58253  1.0000
  C   C218      1.0  0.90314  0.56618  0.67683  1.0000
  N   N22       1.0  0.80116  0.63124  0.59724  1.0000
  C   C219      1.0  0.81712  0.62023  0.62095  1.0000
  H   H348      1.0  0.87199  0.55483  0.64015  1.0000
  C   C220      1.0  0.92599  0.61286  0.64054  1.0000
  C   C221      1.0  0.89792  0.57581  0.65131  1.0000
  C   C222      1.0  0.76182  0.59678  0.58941  1.0000
  C   C223      1.0  0.93709  0.59288  0.69125  1.0000
  H   H349      1.0  0.82255  0.69426  0.60769  1.0000
  C   C224      1.0  0.83255  0.64026  0.57658  1.0000
  Fe  Fe48      1.0  0.91012  0.54505  0.53032  1.0000
  S   S93       1.0  0.91827  0.53071  0.57121  1.0000
  H   H350      1.0  0.76665  0.56873  0.58570  1.0000
  C   C225      1.0  0.00414  0.49921  0.65751  1.0000
  H   H351      1.0  0.88133  0.53774  0.68533  1.0000
  H   H352      1.0  0.84717  0.64537  0.62716  1.0000
  H   H353      1.0  0.79439  0.61321  0.63706  1.0000
  H   H354      1.0  0.82167  0.64835  0.55823  1.0000
  C   C226      1.0  0.96520  0.62972  0.68036  1.0000
  H   H355      1.0  0.78137  0.67681  0.58430  1.0000
  S   S94       1.0  0.77083  0.55648  0.52730  1.0000
  H   H356      1.0  0.83874  0.61323  0.57268  1.0000
  S   S95       1.0  0.94469  0.57932  0.72254  1.0000
  H   H357      1.0  0.86306  0.66560  0.58182  1.0000
  H   H358      1.0  0.73712  0.58910  0.60437  1.0000
  C   C227      1.0  0.95926  0.63997  0.65519  1.0000
  H   H359      1.0  0.82367  0.59297  0.61807  1.0000
  H   H360      1.0  0.76980  0.66204  0.61741  1.0000
  C   C228      1.0  0.79334  0.66772  0.60188  1.0000
  H   H361      1.0  0.98535  0.53071  0.54639  1.0000
  C   C229      1.0  0.94917  0.51308  0.63857  1.0000
  H   H362      1.0  0.94093  0.53461  0.62705  1.0000
  H   H363      1.0  0.99106  0.65076  0.69151  1.0000
  N   N23       1.0  0.99492  0.52803  0.64125  1.0000
  H   H364      1.0  0.93368  0.50959  0.65764  1.0000
  H   H365      1.0  0.99819  0.56755  0.67264  1.0000
  H   H366      1.0  0.96422  0.50976  0.74803  1.0000
  H   H367      1.0  0.00223  0.50093  0.60603  1.0000
  C   C230      1.0  0.00195  0.54685  0.50691  1.0000
  H   H368      1.0  0.00556  0.59125  0.64161  1.0000
  C   C231      1.0  0.00768  0.53443  0.53152  1.0000
  H   H369      1.0  0.00761  0.55257  0.60290  1.0000
  C   C232      1.0  0.55906  0.88622  0.93473  1.0000
  C   C233      1.0  0.54467  0.95357  0.84930  1.0000
  C   C234      1.0  0.91310  0.51777  0.78226  1.0000
  H   H370      1.0  0.58134  0.97792  0.90633  1.0000
  C   C235      1.0  0.66609  0.96916  0.96431  1.0000
  H   H371      1.0  0.55804  0.93172  0.85133  1.0000
  H   H372      1.0  0.54756  0.97265  0.94859  1.0000
  H   H373      1.0  0.53622  0.86671  0.94927  1.0000
  N   N24       1.0  0.55214  0.92289  0.92862  1.0000
  C   C236      1.0  0.55154  0.94424  0.95260  1.0000
  C   C237      1.0  0.57003  0.99540  0.85163  1.0000
  H   H374      1.0  0.66779  0.95112  0.94823  1.0000
  C   C238      1.0  0.65244  0.95049  0.98824  1.0000
  H   H375      1.0  0.55564  0.86710  0.91743  1.0000
  H   H376      1.0  0.52558  0.92431  0.96544  1.0000
  H   H377      1.0  0.58118  0.95284  0.96342  1.0000
  H   H378      1.0  0.59079  0.89442  0.94276  1.0000
  H   H379      1.0  0.58814  0.93491  0.89380  1.0000
  C   C239      1.0  0.58614  0.95043  0.91179  1.0000
  H   H380      1.0  0.89731  0.53061  0.76866  1.0000
  H   H381      1.0  0.61712  0.96127  0.92121  1.0000
  H   H382      1.0  0.89760  0.51399  0.80129  1.0000
  H   H383      1.0  0.94591  0.54117  0.78423  1.0000
  S   S96       1.0  0.63302  0.89736  0.99120  1.0000
  H   H384      1.0  0.51112  0.89446  0.89706  1.0000
  C   C240      1.0  0.51174  0.91070  0.91529  1.0000
