data_image0
_chemical_formula_structural       SC6H2FeS2HFeNSHCHCH3C2H6C4HSC2H3SH2SHSC2HC2HC2H2FeSH2FeSC5HCNCH3SHCHCH3FeCH2SHCNHFeCH2CH5CSHCHSH3SFe2S2FeH4SCNHCHS2HC3HC3H4CHCH6FeHFeSC2SC2FeSHCHFeHSC4HSC2HCH4CNCH3FeH3CHCH2SH2CSHCH2SCH3NHCHFe2SH2S2H3CNHFeH2CH3CSC2H4CHCHCNSH3CS2HCFeH3CH3CH2C2HCHCHS2Fe2HCNH3C2SHSCH2CSFeHCH2CHNCH3SH2CHCHCH3NHC2H2CH4CSC3FeS2HFe2S2FeH2CH3SC3H3C2H4CNC2H3CHSHC2H2C2H3CSH2CHFeSC2HFe2SFeS3H2CH2CH3CH2NHCNHCH3SH2CHCH6CH2SC2FeSFeSHSH4C2FeS2C2HC2HFe2HCH3SH2C3H5CHFeHSHC3H2CS3CHNC3HCHCHC2H2CHSC2H2SH5CHCHFeCH3S2CHC2H3CHCHCS2H2FeS2FeNCH2CHSHC2H4CH3CH3CHCNHSC3HC2HC2HFeCH2FeH5C2HSHCHCHC2H3NFeSCHSHCH2Fe2HCSCSH2CNSHSHCH4CHCHSC2Fe2CHSH2NHFeSHSH4C2HC2H2SC3H2FeSH4NC2H2SH5C4H2S2C2H2CH6C2HC2NCSH2C4HCH3C3H4FeH3CH2SH2CHCNHC2HCH2CH3SH3CH2C2H3C2HC2HC2HS2CH6CSHC2SH2CSCH3FeCH4C4H2CHCHCH3FeNSCHCHNH2CHC2H6SCHC4HCHSH4NC2H2FeCHCH2SCH3FeSNCH2CSC2H3C3HSFeCS2CH4CNHS2CHC4NCHCFeH3CH3SFeSFeSCH6C2H5CSHCHSHCH4CH3CH2CSFeCNC2H2SH5CH3CFeCFeS2HS2C2HFe2HCH2CHCH2CH2NS2CHC4HCH2SH4CH3CFeCSNHFeCH3SH2CHS2CFeCH3SC2HNH2CHCSH3FeSCHCHCH2CH8NC3H2SHCH3CSC5FeHSCH3SCH2FeH2CNCH5C3HCHCSFeS2FeC2HCFeCHS2FeH2NSH3FeHC2HSCH3C2HCHSHS2FeSFeCHC2HCSH2FeHCH2CH2NCHFeHSCH3C2NCH2CHCH3CH3CSFeSFeSCH4SNCHCH2CH3S3CH2CH3CH2C2HCH3NHCHSFe2H2S2HCHC3H4CH2NH3CHC2SC2H2CS2FeCFeH3FeCH2SFeH3CH2CHCH3CH3CHNSHCS2HFeSFeHCH4FeH3CHSCHSCHCH2C2NCH2CHCHCHCSHCHSFeNHCHCH2CHCH2SH3SCH5SH5CHC2H2C2HCHC2SCH2FeS2H4CHNH3CHCH2CH5CH3NCH2C2SCHC3SH2FeCH2CHCH2FeC2HCHSCSCH2C2H3SHCH2NH2CH3CHS2CFeS2Fe2SFeC2SCH2CH2CH4S2NHCH3SCHC3H2SFeHFeS2FeCHC2FeHCH2CH3SCSFeSFeHCSFeSHNHC2H4CH2CHCHC2HCH4NC4HCH3C2H2SCH2SHCH3CH2SCHC2H2CHCH2C2H4CH2C3FeS2FeHC2SFeH2CH3SCNHSHC2H6C2H3NCHC2HCH7CSHC2HSC2HFeH4NHCH2CHCFeSC2H2FeS4HSCHCHFe2SH2SFeCHCH3CH4C2NH5C2HC2SH3SC5NH2CH3C2SCHCH4S2C2H3C2HNHCH2CHCHSCHSFeHCHCH2FeCHCSC3HSFeHFeSH2CHNH2SCSHCH2CH2CH2SCHCHCHFeSH2NH2C2H2C2HCHSHCH4C2HCH3
_chemical_formula_sum              "S232 C580 H928 Fe116 N58"
_cell_length_a       54.9864
_cell_length_b       54.8919
_cell_length_c       50.2016
_cell_angle_alpha    82.3107
_cell_angle_beta     83.2183
_cell_angle_gamma    82.3644

_space_group_name_H-M_alt    "P 1"
_space_group_IT_number       1

loop_
  _space_group_symop_operation_xyz
  'x, y, z'

loop_
  _atom_site_type_symbol
  _atom_site_label
  _atom_site_symmetry_multiplicity
  _atom_site_fract_x
  _atom_site_fract_y
  _atom_site_fract_z
  _atom_site_occupancy
  S   S1        1.0  0.02844  0.03048  0.12482  1.0000
  C   C1        1.0  0.07949  0.09145  0.11052  1.0000
  C   C2        1.0  0.06976  0.08413  0.08864  1.0000
  C   C3        1.0  0.05408  0.06544  0.09278  1.0000
  C   C4        1.0  0.04797  0.05405  0.11889  1.0000
  C   C5        1.0  0.05754  0.06152  0.14081  1.0000
  C   C6        1.0  0.07330  0.08018  0.13666  1.0000
  H   H1        1.0  0.07456  0.09277  0.06837  1.0000
  H   H2        1.0  0.04682  0.05979  0.07577  1.0000
  Fe  Fe1       1.0  0.01399  0.01805  0.08914  1.0000
  S   S2        1.0  0.01209  0.03432  0.04573  1.0000
  S   S3        1.0  0.09902  0.11498  0.10445  1.0000
  H   H3        1.0  0.05426  0.15108  0.08517  1.0000
  Fe  Fe2       1.0  0.11574  0.12625  0.13931  1.0000
  N   N1        1.0  0.05259  0.18216  0.10750  1.0000
  S   S4        1.0  0.13042  0.16293  0.12875  1.0000
  H   H4        1.0  0.09023  0.16926  0.09474  1.0000
  C   C7        1.0  0.04286  0.16920  0.08779  1.0000
  H   H5        1.0  0.08626  0.19623  0.11240  1.0000
  C   C8        1.0  0.07816  0.18686  0.09775  1.0000
  H   H6        1.0  0.04298  0.18033  0.06757  1.0000
  H   H7        1.0  0.06362  0.14832  0.13209  1.0000
  H   H8        1.0  0.07911  0.19888  0.07808  1.0000
  C   C9        1.0  0.03721  0.20600  0.11076  1.0000
  C   C10       1.0  0.05228  0.16651  0.13384  1.0000
  H   H9        1.0  0.02363  0.16520  0.09451  1.0000
  H   H10       1.0  0.04434  0.21599  0.12562  1.0000
  H   H11       1.0  0.03328  0.16266  0.14192  1.0000
  H   H12       1.0  0.05976  0.17559  0.14915  1.0000
  H   H13       1.0  0.01779  0.20321  0.11824  1.0000
  H   H14       1.0  0.03708  0.21839  0.09132  1.0000
  C   C11       1.0  0.20438  0.18479  0.13653  1.0000
  C   C12       1.0  0.22794  0.19242  0.13438  1.0000
  C   C13       1.0  0.23063  0.21761  0.13350  1.0000
  C   C14       1.0  0.20977  0.23526  0.13399  1.0000
  H   H15       1.0  0.24409  0.17881  0.13384  1.0000
  S   S5        1.0  0.20112  0.15309  0.14068  1.0000
  C   C15       1.0  0.18629  0.22768  0.13537  1.0000
  C   C16       1.0  0.18357  0.20246  0.13697  1.0000
  H   H16       1.0  0.16533  0.19677  0.13869  1.0000
  H   H17       1.0  0.17012  0.24129  0.13578  1.0000
  H   H18       1.0  0.08241  0.43337  0.39259  1.0000
  S   S6        1.0  0.21263  0.26669  0.13399  1.0000
  H   H19       1.0  0.08076  0.08569  0.15363  1.0000
  H   H20       1.0  0.05290  0.05275  0.16105  1.0000
  S   S7        1.0  0.12894  0.10179  0.23873  1.0000
  H   H21       1.0  0.00340  0.01222  0.17854  1.0000
  S   S8        1.0  0.14928  0.10846  0.15947  1.0000
  C   C17       1.0  0.20259  0.10252  0.23674  1.0000
  C   C18       1.0  0.17895  0.10261  0.22885  1.0000
  H   H22       1.0  0.17639  0.10456  0.20762  1.0000
  C   C19       1.0  0.20591  0.10111  0.26412  1.0000
  C   C20       1.0  0.15882  0.09987  0.24837  1.0000
  H   H23       1.0  0.14709  0.09417  0.29098  1.0000
  C   C21       1.0  0.16244  0.09689  0.27579  1.0000
  C   C22       1.0  0.18582  0.09821  0.28364  1.0000
  H   H24       1.0  0.18826  0.09669  0.30482  1.0000
  H   H25       1.0  0.21813  0.10414  0.22153  1.0000
  Fe  Fe3       1.0  0.12842  0.12204  0.19694  1.0000
  S   S9        1.0  0.09364  0.13632  0.17771  1.0000
  H   H26       1.0  0.05962  0.18467  0.21397  1.0000
  H   H27       1.0  0.04601  0.19558  0.26026  1.0000
  Fe  Fe4       1.0  0.11040  0.17184  0.16827  1.0000
  S   S10       1.0  0.08837  0.20917  0.16913  1.0000
  C   C23       1.0  0.08645  0.23753  0.21041  1.0000
  C   C24       1.0  0.07963  0.21621  0.20225  1.0000
  C   C25       1.0  0.06528  0.20093  0.22036  1.0000
  C   C26       1.0  0.05767  0.20707  0.24657  1.0000
  C   C27       1.0  0.06506  0.22803  0.25501  1.0000
  H   H28       1.0  0.09566  0.16765  0.25282  1.0000
  C   C28       1.0  0.07943  0.24329  0.23687  1.0000
  N   N2        1.0  0.10591  0.15733  0.29316  1.0000
  C   C29       1.0  0.11211  0.16567  0.26420  1.0000
  H   H29       1.0  0.12613  0.15208  0.25457  1.0000
  H   H30       1.0  0.07076  0.17974  0.29627  1.0000
  H   H31       1.0  0.09731  0.24956  0.19633  1.0000
  S   S11       1.0  0.05693  0.23440  0.28852  1.0000
  H   H32       1.0  0.11935  0.18394  0.26113  1.0000
  C   C30       1.0  0.08843  0.17648  0.30559  1.0000
  H   H33       1.0  0.09604  0.19457  0.30311  1.0000
  C   C31       1.0  0.09447  0.13410  0.29596  1.0000
  H   H34       1.0  0.07758  0.13658  0.28517  1.0000
  H   H35       1.0  0.10729  0.11911  0.28724  1.0000
  H   H36       1.0  0.08922  0.12742  0.31752  1.0000
  Fe  Fe5       1.0  0.16165  0.14639  0.15247  1.0000
  C   C32       1.0  0.12859  0.15300  0.30706  1.0000
  H   H37       1.0  0.13691  0.17044  0.30687  1.0000
  H   H38       1.0  0.20645  0.15265  0.25607  1.0000
  S   S12       1.0  0.14304  0.15876  0.19129  1.0000
  H   H39       1.0  0.14279  0.13963  0.29749  1.0000
  C   C33       1.0  0.19682  0.16789  0.24287  1.0000
  N   N3        1.0  0.21406  0.17788  0.22049  1.0000
  H   H40       1.0  0.18835  0.18237  0.25575  1.0000
  Fe  Fe6       1.0  0.23038  0.12110  0.31275  1.0000
  C   C34       1.0  0.22433  0.15806  0.20370  1.0000
  H   H41       1.0  0.23654  0.16512  0.18584  1.0000
  H   H42       1.0  0.21344  0.20709  0.18745  1.0000
  C   C35       1.0  0.20074  0.19845  0.20381  1.0000
  H   H43       1.0  0.19183  0.21335  0.21591  1.0000
  H   H44       1.0  0.21835  0.21765  0.29051  1.0000
  H   H45       1.0  0.18646  0.21880  0.30466  1.0000
  H   H46       1.0  0.18610  0.19189  0.19396  1.0000
  H   H47       1.0  0.18168  0.16013  0.23509  1.0000
  C   C36       1.0  0.20342  0.22821  0.30275  1.0000
  S   S13       1.0  0.21232  0.15964  0.31611  1.0000
  H   H48       1.0  0.20947  0.14993  0.19588  1.0000
  C   C37       1.0  0.23445  0.18697  0.23155  1.0000
  H   H49       1.0  0.22770  0.20228  0.24390  1.0000
  S   S14       1.0  0.23478  0.10490  0.27357  1.0000
  H   H50       1.0  0.23541  0.14273  0.21538  1.0000
  H   H51       1.0  0.24452  0.17188  0.24461  1.0000
  H   H52       1.0  0.08492  0.25972  0.24305  1.0000
  S   S15       1.0  0.06186  0.30690  0.27715  1.0000
  Fe  Fe7       1.0  0.07235  0.26833  0.29659  1.0000
  Fe  Fe8       1.0  0.10256  0.30948  0.27312  1.0000
  S   S16       1.0  0.11310  0.26996  0.28951  1.0000
  S   S17       1.0  0.10237  0.32435  0.31252  1.0000
  Fe  Fe9       1.0  0.24431  0.27267  0.15546  1.0000
  H   H53       1.0  0.24057  0.35579  0.18615  1.0000
  H   H54       1.0  0.20428  0.24601  0.24972  1.0000
  H   H55       1.0  0.17278  0.24725  0.26495  1.0000
  H   H56       1.0  0.23597  0.25807  0.27295  1.0000
  S   S18       1.0  0.12185  0.32500  0.23410  1.0000
  C   C38       1.0  0.19030  0.25560  0.26384  1.0000
  N   N4        1.0  0.19894  0.25434  0.29084  1.0000
  H   H57       1.0  0.18656  0.27512  0.25454  1.0000
  C   C39       1.0  0.22203  0.26585  0.28845  1.0000
  H   H58       1.0  0.21881  0.28612  0.28233  1.0000
  S   S19       1.0  0.24341  0.25897  0.19963  1.0000
  S   S20       1.0  0.23687  0.31800  0.23688  1.0000
  H   H59       1.0  0.15100  0.33382  0.27548  1.0000
  C   C40       1.0  0.16959  0.31793  0.21244  1.0000
  C   C41       1.0  0.15367  0.32395  0.23505  1.0000
  C   C42       1.0  0.16332  0.32893  0.25807  1.0000
  H   H60       1.0  0.16215  0.31400  0.19464  1.0000
  C   C43       1.0  0.20486  0.32149  0.23581  1.0000
  C   C44       1.0  0.19514  0.31629  0.21298  1.0000
  C   C45       1.0  0.18894  0.32815  0.25826  1.0000
  H   H61       1.0  0.20718  0.31090  0.19565  1.0000
  H   H62       1.0  0.19639  0.33222  0.27596  1.0000
  H   H63       1.0  0.17566  0.28751  0.30012  1.0000
  H   H64       1.0  0.23035  0.26304  0.30798  1.0000
  C   C46       1.0  0.17990  0.26778  0.30850  1.0000
  H   H65       1.0  0.16235  0.25939  0.31089  1.0000
  C   C47       1.0  0.24319  0.37413  0.19175  1.0000
  H   H66       1.0  0.23338  0.38856  0.17776  1.0000
  H   H67       1.0  0.23372  0.37514  0.21252  1.0000
  H   H68       1.0  0.12471  0.14527  0.32856  1.0000
  H   H69       1.0  0.08395  0.17110  0.32760  1.0000
  H   H70       1.0  0.10529  0.23517  0.34986  1.0000
  H   H71       1.0  0.11267  0.18947  0.35340  1.0000
  Fe  Fe10      1.0  0.24386  0.16330  0.33903  1.0000
  H   H72       1.0  0.20937  0.22674  0.32344  1.0000
  Fe  Fe11      1.0  0.24234  0.11250  0.37050  1.0000
  S   S21       1.0  0.21017  0.10473  0.35078  1.0000
  C   C48       1.0  0.12257  0.22566  0.35607  1.0000
  C   C49       1.0  0.12680  0.19980  0.35788  1.0000
  S   S22       1.0  0.15491  0.15517  0.36584  1.0000
  C   C50       1.0  0.14941  0.18736  0.36504  1.0000
  C   C51       1.0  0.16763  0.20078  0.37091  1.0000
  Fe  Fe12      1.0  0.19521  0.14385  0.35625  1.0000
  S   S23       1.0  0.22543  0.15034  0.37987  1.0000
  H   H73       1.0  0.18510  0.19126  0.37651  1.0000
  C   C52       1.0  0.16299  0.22658  0.37026  1.0000
  H   H74       1.0  0.00342  0.36348  0.38374  1.0000
  Fe  Fe13      1.0  0.06242  0.31831  0.31841  1.0000
  H   H75       1.0  0.05054  0.31027  0.42557  1.0000
  S   S24       1.0  0.03305  0.34443  0.33847  1.0000
  C   C53       1.0  0.04096  0.35172  0.36899  1.0000
  C   C54       1.0  0.02253  0.36115  0.38789  1.0000
  C   C55       1.0  0.07180  0.35492  0.39872  1.0000
  C   C56       1.0  0.06558  0.34851  0.37453  1.0000
  H   H76       1.0  0.07991  0.34154  0.35999  1.0000
  S   S25       1.0  0.06877  0.27937  0.33842  1.0000
  C   C57       1.0  0.05568  0.29282  0.41611  1.0000
  C   C58       1.0  0.05337  0.36391  0.41780  1.0000
  H   H77       1.0  0.04031  0.28124  0.42188  1.0000
  C   C59       1.0  0.02870  0.36700  0.41243  1.0000
  H   H78       1.0  0.05667  0.29797  0.39381  1.0000
  H   H79       1.0  0.07085  0.24405  0.41714  1.0000
  H   H80       1.0  0.08731  0.26074  0.38913  1.0000
  H   H81       1.0  0.06253  0.26125  0.46117  1.0000
  C   C60       1.0  0.08539  0.25663  0.41149  1.0000
  N   N5        1.0  0.07935  0.27964  0.42444  1.0000
  C   C61       1.0  0.07721  0.27347  0.45413  1.0000
  H   H82       1.0  0.07251  0.29049  0.46448  1.0000
  H   H83       1.0  0.09485  0.26373  0.46108  1.0000
  H   H84       1.0  0.10327  0.24630  0.41707  1.0000
  Fe  Fe14      1.0  0.10867  0.28450  0.32958  1.0000
  H   H85       1.0  0.09096  0.35314  0.40251  1.0000
  H   H86       1.0  0.10014  0.30213  0.39399  1.0000
  H   H87       1.0  0.17696  0.23688  0.37526  1.0000
  C   C62       1.0  0.14053  0.23902  0.36265  1.0000
  H   H88       1.0  0.09615  0.31236  0.42697  1.0000
  C   C63       1.0  0.09915  0.29568  0.41606  1.0000
  H   H89       1.0  0.18574  0.26749  0.32904  1.0000
  H   H90       1.0  0.11760  0.28571  0.42006  1.0000
  S   S26       1.0  0.13528  0.27132  0.36042  1.0000
  H   H91       1.0  0.08312  0.41976  0.34748  1.0000
  H   H92       1.0  0.06018  0.39977  0.36071  1.0000
  C   C64       1.0  0.05487  0.46252  0.35683  1.0000
  S   S27       1.0  0.05063  0.43547  0.47270  1.0000
  H   H93       1.0  0.01485  0.44882  0.38812  1.0000
  C   C65       1.0  0.02437  0.43516  0.37468  1.0000
  H   H94       1.0  0.05497  0.42193  0.33184  1.0000
  H   H95       1.0  0.04670  0.46686  0.33724  1.0000
  S   S28       1.0  0.00305  0.42164  0.44592  1.0000
  C   C66       1.0  0.06217  0.43245  0.39557  1.0000
  H   H96       1.0  0.01432  0.37342  0.42735  1.0000
  H   H97       1.0  0.05397  0.44617  0.40953  1.0000
  H   H98       1.0  0.05920  0.41381  0.40616  1.0000
  N   N6        1.0  0.05109  0.43727  0.36965  1.0000
  H   H99       1.0  0.07483  0.46480  0.35286  1.0000
  C   C67       1.0  0.06290  0.41895  0.35160  1.0000
  H   H100      1.0  0.02087  0.41638  0.38456  1.0000
  Fe  Fe15      1.0  0.01642  0.45566  0.45619  1.0000
  Fe  Fe16      1.0  0.03536  0.40114  0.46599  1.0000
  S   S29       1.0  0.01810  0.48722  0.42278  1.0000
  H   H101      1.0  0.01546  0.43846  0.35553  1.0000
  H   H102      1.0  0.04612  0.47674  0.37005  1.0000
  S   S30       1.0  0.06167  0.37127  0.44807  1.0000
  S   S31       1.0  0.01473  0.39596  0.50724  1.0000
  H   H103      1.0  0.03986  0.40157  0.59670  1.0000
  H   H104      1.0  0.03975  0.39368  0.63254  1.0000
  H   H105      1.0  0.03261  0.37163  0.61196  1.0000
  C   C68       1.0  0.03016  0.39160  0.61480  1.0000
  N   N7        1.0  0.00377  0.40138  0.61846  1.0000
  H   H106      1.0  0.00047  0.40826  0.57570  1.0000
  Fe  Fe17      1.0  0.02708  0.43214  0.51231  1.0000
  H   H107      1.0  0.01046  0.43886  0.60424  1.0000
  H   H108      1.0  0.00119  0.48898  0.58883  1.0000
  C   C69       1.0  0.00140  0.42793  0.62202  1.0000
  H   H109      1.0  0.00998  0.43087  0.64019  1.0000
  H   H110      1.0  0.04848  0.46668  0.59290  1.0000
  H   H111      1.0  0.04277  0.47723  0.50736  1.0000
  C   C70       1.0  0.04858  0.47856  0.57387  1.0000
  S   S32       1.0  0.03796  0.43874  0.55209  1.0000
  C   C71       1.0  0.04492  0.46912  0.55029  1.0000
  C   C72       1.0  0.04544  0.48443  0.52567  1.0000
  H   H112      1.0  0.00005  0.38974  0.66130  1.0000
  H   H113      1.0  0.00361  0.47213  0.67926  1.0000
  H   H114      1.0  0.02490  0.89988  0.03082  1.0000
  H   H115      1.0  0.08951  0.88932  0.99461  1.0000
  C   C73       1.0  0.03074  0.91265  0.01367  1.0000
  H   H116      1.0  0.99706  0.86838  0.02940  1.0000
  C   C74       1.0  0.03670  0.90460  0.98814  1.0000
  H   H117      1.0  0.10458  0.89526  0.02256  1.0000
  C   C75       1.0  0.09859  0.90346  0.00255  1.0000
  N   N8        1.0  0.11952  0.91144  0.98360  1.0000
  S   S33       1.0  0.03405  0.87381  0.98428  1.0000
  H   H118      1.0  0.14572  0.88208  0.99972  1.0000
  H   H119      1.0  0.99670  0.94576  0.20129  1.0000
  H   H120      1.0  0.02855  0.94312  0.03717  1.0000
  C   C76       1.0  0.03290  0.93712  0.01732  1.0000
  S   S34       1.0  0.02683  0.97939  0.07932  1.0000
  S   S35       1.0  0.04626  0.98340  0.00046  1.0000
  H   H121      1.0  0.08429  0.91934  0.00612  1.0000
  C   C77       1.0  0.04151  0.95347  0.99552  1.0000
  Fe  Fe18      1.0  0.02140  0.99492  0.03656  1.0000
  H   H122      1.0  0.11620  0.94735  0.99729  1.0000
  H   H123      1.0  0.00401  0.98095  0.13312  1.0000
  H   H124      1.0  0.13697  0.92413  0.01448  1.0000
  C   C78       1.0  0.13018  0.93094  0.99448  1.0000
  H   H125      1.0  0.02176  0.64171  0.47093  1.0000
  H   H126      1.0  0.02620  0.97703  0.15693  1.0000
  H   H127      1.0  0.01038  0.95133  0.15204  1.0000
  C   C79       1.0  0.03328  0.59238  0.48136  1.0000
  H   H128      1.0  0.01231  0.97142  0.20598  1.0000
  H   H129      1.0  0.04839  0.60155  0.46897  1.0000
  C   C80       1.0  0.00816  0.97161  0.15332  1.0000
  C   C81       1.0  0.00603  0.51674  0.43143  1.0000
  H   H130      1.0  0.01866  0.53525  0.39266  1.0000
  C   C82       1.0  0.00864  0.53745  0.41223  1.0000
  H   H131      1.0  0.02178  0.58626  0.46722  1.0000
  C   C83       1.0  0.99815  0.56107  0.41819  1.0000
  H   H132      1.0  0.00006  0.57701  0.40320  1.0000
  S   S36       1.0  0.05419  0.55058  0.54717  1.0000
  S   S37       1.0  0.05038  0.60154  0.59473  1.0000
  Fe  Fe19      1.0  0.03867  0.56635  0.58543  1.0000
  Fe  Fe20      1.0  0.01034  0.61536  0.59836  1.0000
  H   H133      1.0  0.04943  0.62632  0.50677  1.0000
  C   C84       1.0  0.03411  0.61664  0.51798  1.0000
  N   N9        1.0  0.01831  0.60911  0.49940  1.0000
  H   H134      1.0  0.02334  0.62929  0.53183  1.0000
  H   H135      1.0  0.04254  0.60041  0.53084  1.0000
  H   H136      1.0  0.04957  0.52110  0.50562  1.0000
  C   C85       1.0  0.05176  0.51901  0.54848  1.0000
  C   C86       1.0  0.05149  0.50365  0.57306  1.0000
  S   S38       1.0  0.99904  0.58155  0.58558  1.0000
  H   H137      1.0  0.05388  0.51101  0.59137  1.0000
  S   S39       1.0  0.03457  0.54874  0.62850  1.0000
  C   C87       1.0  0.00732  0.63141  0.48312  1.0000
  H   H138      1.0  0.04190  0.57540  0.49311  1.0000
  H   H139      1.0  0.00629  0.57867  0.52698  1.0000
  C   C88       1.0  0.04926  0.50928  0.52470  1.0000
  S   S40       1.0  0.00324  0.60264  0.64250  1.0000
  Fe  Fe21      1.0  0.04281  0.58563  0.63808  1.0000
  H   H140      1.0  0.99936  0.51118  0.54218  1.0000
  C   C89       1.0  0.99851  0.59601  0.51522  1.0000
  H   H141      1.0  0.02083  0.65768  0.62170  1.0000
  H   H142      1.0  0.01822  0.71329  0.62053  1.0000
  C   C90       1.0  0.02044  0.66545  0.64114  1.0000
  H   H143      1.0  0.03840  0.67266  0.64130  1.0000
  N   N10       1.0  0.99937  0.68486  0.64481  1.0000
  C   C91       1.0  0.00082  0.70468  0.62185  1.0000
  H   H144      1.0  0.00031  0.69730  0.60229  1.0000
  H   H145      1.0  0.24652  0.93297  0.62875  1.0000
  H   H146      1.0  0.00060  0.51696  0.66223  1.0000
  S   S41       1.0  0.07000  0.59158  0.66601  1.0000
  H   H147      1.0  0.02407  0.60220  0.69870  1.0000
  H   H148      1.0  0.11389  0.58647  0.73395  1.0000
  C   C92       1.0  0.11913  0.59133  0.75322  1.0000
  H   H149      1.0  0.11281  0.57721  0.76972  1.0000
  C   C93       1.0  0.05866  0.61622  0.68453  1.0000
  H   H150      1.0  0.07346  0.60541  0.77709  1.0000
  C   C94       1.0  0.03523  0.61701  0.69885  1.0000
  H   H151      1.0  0.13964  0.58955  0.75174  1.0000
  H   H152      1.0  0.07487  0.61303  0.74115  1.0000
  H   H153      1.0  0.99783  0.68097  0.68813  1.0000
  N   N11       1.0  0.10814  0.61659  0.75822  1.0000
  H   H154      1.0  0.11288  0.63025  0.71599  1.0000
  C   C95       1.0  0.11707  0.63461  0.73583  1.0000
  C   C96       1.0  0.11550  0.62228  0.78391  1.0000
  H   H155      1.0  0.01811  0.70233  0.67114  1.0000
  H   H156      1.0  0.01943  0.64980  0.65750  1.0000
  C   C97       1.0  0.08095  0.61812  0.75984  1.0000
  H   H157      1.0  0.07196  0.63720  0.76243  1.0000
  H   H158      1.0  0.00806  0.63752  0.72452  1.0000
  H   H159      1.0  0.10839  0.65378  0.73836  1.0000
  H   H160      1.0  0.09112  0.63480  0.67356  1.0000
  C   C98       1.0  0.07312  0.63528  0.68498  1.0000
  S   S42       1.0  0.02858  0.68110  0.73161  1.0000
  C   C99       1.0  0.04068  0.65602  0.71394  1.0000
  C   C100      1.0  0.06414  0.65520  0.69967  1.0000
  C   C101      1.0  0.02623  0.63694  0.71348  1.0000
  Fe  Fe22      1.0  0.05627  0.70253  0.74465  1.0000
  S   S43       1.0  0.09163  0.71147  0.72048  1.0000
  S   S44       1.0  0.07400  0.68721  0.78217  1.0000
  H   H161      1.0  0.07517  0.67009  0.69952  1.0000
  Fe  Fe23      1.0  0.06682  0.72595  0.79285  1.0000
  Fe  Fe24      1.0  0.10846  0.69973  0.75937  1.0000
  S   S45       1.0  0.04549  0.74049  0.75747  1.0000
  S   S46       1.0  0.10263  0.73739  0.77279  1.0000
  Fe  Fe25      1.0  0.08235  0.74840  0.73612  1.0000
  H   H162      1.0  0.10759  0.64124  0.78824  1.0000
  H   H163      1.0  0.11297  0.68896  0.81090  1.0000
  C   C102      1.0  0.00018  0.69523  0.67035  1.0000
  H   H164      1.0  0.10924  0.60904  0.80133  1.0000
  H   H165      1.0  0.13740  0.63478  0.73481  1.0000
  H   H166      1.0  0.13591  0.62165  0.78323  1.0000
  S   S47       1.0  0.14536  0.67776  0.76357  1.0000
  C   C103      1.0  0.15014  0.67428  0.79794  1.0000
  C   C104      1.0  0.17320  0.66460  0.80643  1.0000
  C   C105      1.0  0.21044  0.71847  0.79333  1.0000
  H   H167      1.0  0.18847  0.65966  0.79171  1.0000
  H   H168      1.0  0.19179  0.71381  0.79463  1.0000
  H   H169      1.0  0.16531  0.75532  0.65230  1.0000
  C   C106      1.0  0.15461  0.74715  0.67079  1.0000
  C   C107      1.0  0.22794  0.70302  0.80779  1.0000
  H   H170      1.0  0.15479  0.72705  0.66946  1.0000
  H   H171      1.0  0.19156  0.71889  0.69557  1.0000
  H   H172      1.0  0.14982  0.72024  0.71963  1.0000
  H   H173      1.0  0.20248  0.74675  0.67777  1.0000
  C   C108      1.0  0.21683  0.74037  0.77821  1.0000
  N   N12       1.0  0.16483  0.75128  0.69553  1.0000
  C   C109      1.0  0.19054  0.73927  0.69562  1.0000
  C   C110      1.0  0.14975  0.74055  0.71943  1.0000
  H   H174      1.0  0.13030  0.74923  0.71984  1.0000
  H   H175      1.0  0.15673  0.74340  0.73858  1.0000
  H   H176      1.0  0.19873  0.74234  0.71398  1.0000
  C   C111      1.0  0.13063  0.68093  0.81711  1.0000
  H   H177      1.0  0.05528  0.77624  0.79732  1.0000
  S   S48       1.0  0.08655  0.78256  0.70679  1.0000
  H   H178      1.0  0.08212  0.83456  0.68951  1.0000
  C   C112      1.0  0.09872  0.80671  0.71850  1.0000
  C   C113      1.0  0.09426  0.83079  0.70542  1.0000
  H   H179      1.0  0.10230  0.86854  0.70219  1.0000
  H   H180      1.0  0.05324  0.82072  0.80324  1.0000
  C   C114      1.0  0.10566  0.85001  0.71258  1.0000
  C   C115      1.0  0.11451  0.80194  0.73901  1.0000
  H   H181      1.0  0.11829  0.78345  0.74906  1.0000
  H   H182      1.0  0.07729  0.88219  0.80502  1.0000
  H   H183      1.0  0.13507  0.75583  0.67047  1.0000
  C   C116      1.0  0.24118  0.74584  0.77576  1.0000
  S   S49       1.0  0.23917  0.81439  0.76299  1.0000
  H   H184      1.0  0.14543  0.78805  0.69426  1.0000
  H   H185      1.0  0.17691  0.78667  0.67985  1.0000
  C   C117      1.0  0.16425  0.77817  0.69637  1.0000
  H   H186      1.0  0.16977  0.78204  0.71587  1.0000
  Fe  Fe26      1.0  0.22984  0.84115  0.72687  1.0000
  S   S50       1.0  0.13867  0.86855  0.73881  1.0000
  C   C118      1.0  0.12232  0.84502  0.73214  1.0000
  C   C119      1.0  0.12668  0.82097  0.74542  1.0000
  H   H187      1.0  0.13955  0.81690  0.76048  1.0000
  Fe  Fe27      1.0  0.21576  0.84253  0.78637  1.0000
  Fe  Fe28      1.0  0.17619  0.85118  0.74830  1.0000
  S   S51       1.0  0.19614  0.82446  0.72108  1.0000
  Fe  Fe29      1.0  0.20336  0.80034  0.75938  1.0000
  S   S52       1.0  0.18082  0.82582  0.78650  1.0000
  S   S53       1.0  0.20913  0.87070  0.75041  1.0000
  S   S54       1.0  0.19376  0.76158  0.76436  1.0000
  H   H188      1.0  0.24638  0.76224  0.76321  1.0000
  H   H189      1.0  0.12563  0.84927  0.79594  1.0000
  C   C120      1.0  0.11937  0.85434  0.81660  1.0000
  H   H190      1.0  0.16505  0.75034  0.81444  1.0000
  H   H191      1.0  0.10047  0.88657  0.77713  1.0000
  C   C121      1.0  0.09456  0.89084  0.79816  1.0000
  H   H192      1.0  0.08988  0.91124  0.79734  1.0000
  H   H193      1.0  0.23605  0.94210  0.66172  1.0000
  H   H194      1.0  0.13314  0.91366  0.80573  1.0000
  C   C122      1.0  0.13662  0.89316  0.80657  1.0000
  H   H195      1.0  0.14394  0.88883  0.78591  1.0000
  H   H196      1.0  0.15151  0.88657  0.82000  1.0000
  N   N13       1.0  0.11396  0.88148  0.81628  1.0000
  H   H197      1.0  0.24024  0.90992  0.65682  1.0000
  C   C123      1.0  0.07089  0.69347  0.89631  1.0000
  N   N14       1.0  0.07827  0.69299  0.92376  1.0000
  H   H198      1.0  0.06523  0.65791  0.93821  1.0000
  C   C124      1.0  0.06291  0.67730  0.94322  1.0000
  H   H199      1.0  0.04297  0.68443  0.94328  1.0000
  H   H200      1.0  0.05129  0.70145  0.89496  1.0000
  H   H201      1.0  0.07319  0.67462  0.88984  1.0000
  S   S55       1.0  0.05872  0.73199  0.83629  1.0000
  H   H202      1.0  0.06793  0.67670  0.96418  1.0000
  H   H203      1.0  0.10804  0.66368  0.91832  1.0000
  C   C125      1.0  0.07477  0.71844  0.93129  1.0000
  H   H204      1.0  0.08220  0.70507  0.88115  1.0000
  C   C126      1.0  0.10452  0.68279  0.92421  1.0000
  H   H205      1.0  0.08048  0.71902  0.95175  1.0000
  H   H206      1.0  0.05517  0.72680  0.93131  1.0000
  H   H207      1.0  0.22275  0.68651  0.82025  1.0000
  H   H208      1.0  0.11083  0.68208  0.94461  1.0000
  H   H209      1.0  0.13972  0.73229  0.81878  1.0000
  H   H210      1.0  0.11669  0.69421  0.90986  1.0000
  C   C127      1.0  0.17661  0.66156  0.83405  1.0000
  H   H211      1.0  0.19444  0.65411  0.84060  1.0000
  H   H212      1.0  0.11850  0.68197  0.85928  1.0000
  S   S56       1.0  0.16027  0.66340  0.88773  1.0000
  C   C128      1.0  0.13380  0.67716  0.84463  1.0000
  C   C129      1.0  0.15677  0.66752  0.85316  1.0000
  Fe  Fe30      1.0  0.19881  0.66841  0.89422  1.0000
  S   S57       1.0  0.20818  0.67260  0.93551  1.0000
  Fe  Fe31      1.0  0.22300  0.70726  0.91499  1.0000
  S   S58       1.0  0.21085  0.70443  0.87487  1.0000
  H   H213      1.0  0.17517  0.71533  0.92977  1.0000
  S   S59       1.0  0.23473  0.64612  0.88195  1.0000
  H   H214      1.0  0.16310  0.72565  0.84168  1.0000
  H   H215      1.0  0.13005  0.72489  0.93715  1.0000
  H   H216      1.0  0.13167  0.73011  0.88031  1.0000
  H   H217      1.0  0.08591  0.73083  0.91689  1.0000
  C   C130      1.0  0.05600  0.78155  0.81717  1.0000
  C   C131      1.0  0.05486  0.80673  0.82051  1.0000
  Fe  Fe32      1.0  0.06544  0.84660  0.89196  1.0000
  S   S60       1.0  0.05417  0.84507  0.85083  1.0000
  S   S61       1.0  0.04927  0.82697  0.93078  1.0000
  C   C132      1.0  0.05565  0.81371  0.84619  1.0000
  C   C133      1.0  0.05803  0.79544  0.86830  1.0000
  H   H218      1.0  0.05907  0.80045  0.88805  1.0000
  C   C134      1.0  0.05847  0.77048  0.86514  1.0000
  C   C135      1.0  0.05738  0.76348  0.83964  1.0000
  H   H219      1.0  0.05959  0.75663  0.88253  1.0000
  Fe  Fe33      1.0  0.05877  0.85874  0.94979  1.0000
  Fe  Fe34      1.0  0.08835  0.81097  0.93531  1.0000
  H   H220      1.0  0.22244  0.76958  0.83353  1.0000
  C   C136      1.0  0.23760  0.78151  0.83126  1.0000
  H   H221      1.0  0.24085  0.74368  0.87123  1.0000
  H   H222      1.0  0.13517  0.78849  0.81506  1.0000
  H   H223      1.0  0.10269  0.84496  0.82399  1.0000
  S   S62       1.0  0.22835  0.85319  0.82357  1.0000
  H   H224      1.0  0.13402  0.84659  0.82987  1.0000
  H   H225      1.0  0.23715  0.79004  0.89714  1.0000
  C   C137      1.0  0.15206  0.74095  0.82985  1.0000
  C   C138      1.0  0.16468  0.85278  0.87302  1.0000
  C   C139      1.0  0.20396  0.86058  0.84799  1.0000
  H   H226      1.0  0.14958  0.84182  0.87723  1.0000
  H   H227      1.0  0.21301  0.78229  0.88001  1.0000
  H   H228      1.0  0.11002  0.77012  0.82010  1.0000
  H   H229      1.0  0.16647  0.75549  0.87381  1.0000
  H   H230      1.0  0.14484  0.78288  0.87515  1.0000
  C   C140      1.0  0.15501  0.76985  0.86129  1.0000
  H   H231      1.0  0.10778  0.73672  0.85784  1.0000
  Fe  Fe35      1.0  0.10848  0.85994  0.91734  1.0000
  H   H232      1.0  0.11201  0.79160  0.84343  1.0000
  S   S63       1.0  0.09890  0.77015  0.94314  1.0000
  H   H233      1.0  0.16776  0.78030  0.84657  1.0000
  C   C141      1.0  0.16725  0.73407  0.93181  1.0000
  C   C142      1.0  0.12318  0.77811  0.83079  1.0000
  C   C143      1.0  0.14161  0.73952  0.93583  1.0000
  H   H234      1.0  0.11034  0.75790  0.88154  1.0000
  H   H235      1.0  0.18336  0.83134  0.84210  1.0000
  C   C144      1.0  0.12115  0.74519  0.86771  1.0000
  S   S64       1.0  0.21458  0.74543  0.92720  1.0000
  S   S65       1.0  0.10385  0.82840  0.89534  1.0000
  S   S66       1.0  0.09663  0.84077  0.95814  1.0000
  C   C145      1.0  0.14611  0.78264  0.93680  1.0000
  H   H236      1.0  0.13801  0.80143  0.93882  1.0000
  N   N15       1.0  0.13786  0.75855  0.84740  1.0000
  C   C146      1.0  0.13102  0.76374  0.93844  1.0000
  C   C147      1.0  0.18382  0.84690  0.85301  1.0000
  C   C148      1.0  0.17188  0.77705  0.93343  1.0000
  H   H237      1.0  0.18355  0.79155  0.93282  1.0000
  C   C149      1.0  0.18245  0.75268  0.93120  1.0000
  H   H238      1.0  0.22458  0.81170  0.87078  1.0000
  C   C150      1.0  0.23002  0.79169  0.87704  1.0000
  H   H239      1.0  0.22990  0.80067  0.82395  1.0000
  C   C151      1.0  0.16536  0.87266  0.88759  1.0000
  C   C152      1.0  0.04490  0.92107  0.96624  1.0000
  H   H240      1.0  0.05357  0.95829  0.95298  1.0000
  H   H241      1.0  0.04908  0.91515  0.94640  1.0000
  C   C153      1.0  0.04731  0.94550  0.96994  1.0000
  H   H242      1.0  0.08793  0.87933  0.85163  1.0000
  S   S67       1.0  0.07121  0.88024  0.91037  1.0000
  C   C154      1.0  0.11075  0.92141  0.95713  1.0000
  C   C155      1.0  0.20504  0.87990  0.86316  1.0000
  H   H243      1.0  0.22072  0.89035  0.85952  1.0000
  H   H244      1.0  0.10115  0.90788  0.84438  1.0000
  S   S68       1.0  0.14102  0.88150  0.91161  1.0000
  H   H245      1.0  0.13093  0.87500  0.97212  1.0000
  H   H246      1.0  0.18638  0.90141  0.89403  1.0000
  H   H247      1.0  0.10143  0.90763  0.94892  1.0000
  H   H248      1.0  0.11909  0.88044  0.85827  1.0000
  H   H249      1.0  0.09741  0.93838  0.95865  1.0000
  C   C156      1.0  0.10519  0.88754  0.84385  1.0000
  H   H250      1.0  0.15439  0.89525  0.96563  1.0000
  C   C157      1.0  0.18564  0.88612  0.88271  1.0000
  H   H251      1.0  0.12627  0.92635  0.94188  1.0000
  Fe  Fe36      1.0  0.24533  0.65364  0.92174  1.0000
  C   C158      1.0  0.13850  0.89002  0.98022  1.0000
  H   H252      1.0  0.14594  0.93750  0.98059  1.0000
  H   H253      1.0  0.35223  0.24890  0.13266  1.0000
  H   H254      1.0  0.38982  0.22341  0.14816  1.0000
  S   S69       1.0  0.28402  0.25872  0.14536  1.0000
  S   S70       1.0  0.31965  0.31722  0.12840  1.0000
  C   C159      1.0  0.34578  0.35607  0.12902  1.0000
  H   H255      1.0  0.34451  0.35945  0.10745  1.0000
  C   C160      1.0  0.35760  0.37196  0.14152  1.0000
  C   C161      1.0  0.33512  0.33627  0.14440  1.0000
  H   H256      1.0  0.36504  0.38765  0.12962  1.0000
  H   H257      1.0  0.27248  0.38923  0.14779  1.0000
  H   H258      1.0  0.38950  0.26891  0.13568  1.0000
  C   C162      1.0  0.47236  0.39420  0.06594  1.0000
  H   H259      1.0  0.46383  0.38550  0.02758  1.0000
  C   C163      1.0  0.47778  0.39073  0.03849  1.0000
  H   H260      1.0  0.45436  0.39137  0.07621  1.0000
  C   C164      1.0  0.49039  0.40107  0.08003  1.0000
  S   S71       1.0  0.48429  0.40660  0.11386  1.0000
  S   S72       1.0  0.41087  0.40678  0.11535  1.0000
  H   H261      1.0  0.44008  0.43463  0.03992  1.0000
  H   H262      1.0  0.42868  0.46461  0.04941  1.0000
  Fe  Fe37      1.0  0.39699  0.44676  0.10459  1.0000
  S   S73       1.0  0.37886  0.46046  0.06689  1.0000
  S   S74       1.0  0.43249  0.46043  0.10979  1.0000
  Fe  Fe38      1.0  0.44473  0.42105  0.12499  1.0000
  N   N16       1.0  0.45513  0.46497  0.01442  1.0000
  C   C165      1.0  0.43469  0.45422  0.03177  1.0000
  H   H263      1.0  0.41832  0.45452  0.02056  1.0000
  H   H264      1.0  0.47119  0.47377  0.04846  1.0000
  C   C166      1.0  0.47631  0.46386  0.03030  1.0000
  H   H265      1.0  0.48304  0.44441  0.03761  1.0000
  S   S75       1.0  0.37926  0.45338  0.14585  1.0000
  H   H266      1.0  0.46604  0.43059  0.99786  1.0000
  C   C167      1.0  0.46238  0.45072  0.99118  1.0000
  C   C168      1.0  0.44704  0.49104  0.00452  1.0000
  H   H267      1.0  0.46193  0.49965  0.99103  1.0000
  H   H268      1.0  0.49204  0.47210  0.01802  1.0000
  H   H269      1.0  0.37232  0.49822  0.10275  1.0000
  H   H270      1.0  0.43097  0.49252  0.99253  1.0000
  C   C169      1.0  0.37954  0.49245  0.06079  1.0000
  H   H271      1.0  0.38705  0.49253  0.01772  1.0000
  H   H272      1.0  0.28324  0.08695  0.29672  1.0000
  H   H273      1.0  0.30725  0.06477  0.28398  1.0000
  C   C170      1.0  0.28827  0.06695  0.29452  1.0000
  H   H274      1.0  0.27541  0.06217  0.28096  1.0000
  H   H275      1.0  0.28095  0.01903  0.30403  1.0000
  H   H276      1.0  0.31263  0.02188  0.30733  1.0000
  C   C171      1.0  0.29342  0.02518  0.31709  1.0000
  H   H277      1.0  0.33493  0.23653  0.16297  1.0000
  C   C172      1.0  0.34640  0.25149  0.15419  1.0000
  N   N17       1.0  0.36774  0.25137  0.16953  1.0000
  H   H278      1.0  0.37246  0.21179  0.17875  1.0000
  S   S76       1.0  0.30290  0.21225  0.20736  1.0000
  C   C173      1.0  0.29330  0.20834  0.24197  1.0000
  C   C174      1.0  0.27848  0.22582  0.28362  1.0000
  C   C175      1.0  0.28747  0.22892  0.25623  1.0000
  H   H279      1.0  0.27669  0.16365  0.29178  1.0000
  C   C176      1.0  0.27406  0.20237  0.29639  1.0000
  C   C177      1.0  0.27991  0.18181  0.28209  1.0000
  H   H280      1.0  0.29462  0.16876  0.24410  1.0000
  C   C178      1.0  0.29010  0.18471  0.25509  1.0000
  C   C179      1.0  0.38313  0.22718  0.16919  1.0000
  H   H281      1.0  0.34665  0.24129  0.20744  1.0000
  Fe  Fe39      1.0  0.28389  0.24835  0.19004  1.0000
  C   C180      1.0  0.33030  0.09902  0.48276  1.0000
  H   H282      1.0  0.39955  0.22642  0.18042  1.0000
  H   H283      1.0  0.33433  0.26939  0.15423  1.0000
  Fe  Fe40      1.0  0.29169  0.29578  0.15447  1.0000
  H   H284      1.0  0.37100  0.28987  0.15636  1.0000
  H   H285      1.0  0.28072  0.35663  0.15648  1.0000
  H   H286      1.0  0.30134  0.37811  0.16105  1.0000
  H   H287      1.0  0.27450  0.24168  0.29478  1.0000
  H   H288      1.0  0.34819  0.27392  0.19887  1.0000
  C   C181      1.0  0.28152  0.37520  0.16277  1.0000
  C   C182      1.0  0.35890  0.25536  0.19778  1.0000
  H   H289      1.0  0.29011  0.24721  0.24628  1.0000
  S   S77       1.0  0.29453  0.28417  0.19855  1.0000
  H   H290      1.0  0.32882  0.31692  0.18429  1.0000
  C   C183      1.0  0.33671  0.33216  0.17227  1.0000
  H   H291      1.0  0.35032  0.34441  0.20623  1.0000
  C   C184      1.0  0.34893  0.34775  0.18469  1.0000
  H   H292      1.0  0.28088  0.33883  0.20362  1.0000
  C   C185      1.0  0.28171  0.35753  0.20946  1.0000
  C   C186      1.0  0.35934  0.36773  0.16936  1.0000
  H   H293      1.0  0.30145  0.35977  0.20995  1.0000
  H   H294      1.0  0.27253  0.35769  0.23045  1.0000
  H   H295      1.0  0.37450  0.25425  0.21031  1.0000
  N   N18       1.0  0.26965  0.37712  0.19055  1.0000
  Fe  Fe41      1.0  0.25401  0.29625  0.20336  1.0000
  S   S78       1.0  0.25185  0.31103  0.15984  1.0000
  C   C187      1.0  0.38237  0.27144  0.15695  1.0000
  H   H296      1.0  0.39840  0.27234  0.16825  1.0000
  S   S79       1.0  0.37392  0.38731  0.18559  1.0000
  H   H297      1.0  0.29210  0.40440  0.19755  1.0000
  C   C188      1.0  0.27228  0.40162  0.19829  1.0000
  H   H298      1.0  0.26366  0.40364  0.21921  1.0000
  H   H299      1.0  0.26342  0.41688  0.18443  1.0000
  Fe  Fe42      1.0  0.39548  0.41413  0.15741  1.0000
  Fe  Fe43      1.0  0.41621  0.46351  0.15236  1.0000
  H   H300      1.0  0.46420  0.46174  0.15718  1.0000
  C   C189      1.0  0.47115  0.47862  0.15991  1.0000
  S   S80       1.0  0.43083  0.42485  0.16821  1.0000
  C   C190      1.0  0.49653  0.47996  0.15602  1.0000
  S   S81       1.0  0.42298  0.49777  0.16920  1.0000
  H   H301      1.0  0.24753  0.05017  0.32118  1.0000
  H   H302      1.0  0.25547  0.07447  0.33770  1.0000
  C   C191      1.0  0.26098  0.05495  0.33402  1.0000
  N   N19       1.0  0.28655  0.05150  0.32102  1.0000
  S   S82       1.0  0.37024  0.08695  0.41436  1.0000
  H   H303      1.0  0.30608  0.06311  0.47086  1.0000
  S   S83       1.0  0.35764  0.03394  0.47353  1.0000
  H   H304      1.0  0.29870  0.07869  0.34196  1.0000
  C   C192      1.0  0.30345  0.05893  0.33849  1.0000
  H   H305      1.0  0.29226  0.01304  0.33673  1.0000
  H   H306      1.0  0.30241  0.04779  0.35875  1.0000
  H   H307      1.0  0.32296  0.05662  0.32945  1.0000
  H   H308      1.0  0.25887  0.04355  0.35407  1.0000
  C   C193      1.0  0.30476  0.06177  0.41250  1.0000
  H   H309      1.0  0.29662  0.04479  0.41910  1.0000
  C   C194      1.0  0.32961  0.06271  0.41540  1.0000
  H   H310      1.0  0.34070  0.04631  0.42348  1.0000
  S   S84       1.0  0.25938  0.08104  0.39814  1.0000
  C   C195      1.0  0.29050  0.08264  0.40095  1.0000
  C   C196      1.0  0.34013  0.08469  0.40746  1.0000
  Fe  Fe44      1.0  0.39069  0.00554  0.47194  1.0000
  Fe  Fe45      1.0  0.38265  0.05937  0.44885  1.0000
  C   C197      1.0  0.48438  0.03292  0.41811  1.0000
  H   H311      1.0  0.46603  0.03540  0.42996  1.0000
  S   S85       1.0  0.41465  0.02991  0.44425  1.0000
  H   H312      1.0  0.49619  0.04468  0.42613  1.0000
  H   H313      1.0  0.33418  0.12243  0.38884  1.0000
  N   N20       1.0  0.49508  0.00665  0.42063  1.0000
  H   H314      1.0  0.48201  0.04039  0.39674  1.0000
  Fe  Fe46      1.0  0.42515  0.04059  0.48258  1.0000
  S   S86       1.0  0.25991  0.19924  0.32960  1.0000
  H   H315      1.0  0.33734  0.09219  0.46309  1.0000
  S   S87       1.0  0.26381  0.12607  0.33193  1.0000
  H   H316      1.0  0.33388  0.11867  0.48110  1.0000
  H   H317      1.0  0.29550  0.10563  0.44860  1.0000
  H   H318      1.0  0.26941  0.10967  0.47322  1.0000
  H   H319      1.0  0.29181  0.13145  0.46765  1.0000
  C   C198      1.0  0.28947  0.11149  0.46896  1.0000
  C   C199      1.0  0.32605  0.10540  0.39519  1.0000
  H   H320      1.0  0.29028  0.12058  0.38291  1.0000
  C   C200      1.0  0.30123  0.10436  0.39184  1.0000
  C   C201      1.0  0.45491  0.49898  0.16715  1.0000
  H   H321      1.0  0.24881  0.22340  0.13219  1.0000
  H   H322      1.0  0.24818  0.19400  0.21510  1.0000
  S   S88       1.0  0.34789  0.05233  0.54582  1.0000
  C   C202      1.0  0.34066  0.02327  0.56105  1.0000
  C   C203      1.0  0.32974  0.00827  0.54660  1.0000
  C   C204      1.0  0.34749  0.01423  0.58683  1.0000
  H   H323      1.0  0.35628  0.02568  0.59785  1.0000
  H   H324      1.0  0.32475  0.01505  0.52651  1.0000
  Fe  Fe47      1.0  0.37301  0.04470  0.50884  1.0000
  S   S89       1.0  0.40379  0.01354  0.51004  1.0000
  H   H325      1.0  0.34160  0.08832  0.49833  1.0000
  H   H326      1.0  0.31068  0.05818  0.50610  1.0000
  H   H327      1.0  0.30620  0.09355  0.53246  1.0000
  H   H328      1.0  0.28025  0.06738  0.49584  1.0000
  N   N21       1.0  0.30383  0.09637  0.48970  1.0000
  C   C205      1.0  0.30002  0.07010  0.49068  1.0000
  C   C206      1.0  0.29565  0.10479  0.51643  1.0000
  H   H329      1.0  0.27574  0.10309  0.52237  1.0000
  H   H330      1.0  0.29850  0.12447  0.51653  1.0000
  S   S90       1.0  0.39548  0.07267  0.48462  1.0000
  H   H331      1.0  0.48909  0.10296  0.64432  1.0000
  H   H332      1.0  0.43788  0.00239  0.58281  1.0000
  H   H333      1.0  0.44715  0.01432  0.54848  1.0000
  H   H334      1.0  0.46080  0.02344  0.57578  1.0000
  H   H335      1.0  0.48912  0.00065  0.52711  1.0000
  C   C207      1.0  0.47734  0.07578  0.56175  1.0000
  C   C208      1.0  0.45340  0.07661  0.55449  1.0000
  C   C209      1.0  0.44951  0.06651  0.53130  1.0000
  C   C210      1.0  0.46959  0.05597  0.51511  1.0000
  H   H336      1.0  0.43782  0.08441  0.56720  1.0000
  H   H337      1.0  0.43094  0.06656  0.52625  1.0000
  S   S91       1.0  0.48202  0.08606  0.59217  1.0000
  S   S92       1.0  0.46507  0.04133  0.48741  1.0000
  C   C211      1.0  0.45397  0.00754  0.56849  1.0000
  C   C212      1.0  0.49357  0.05587  0.52192  1.0000
  H   H338      1.0  0.48246  0.16972  0.61825  1.0000
  H   H339      1.0  0.46430  0.15577  0.64706  1.0000
  C   C213      1.0  0.47900  0.15182  0.63045  1.0000
  H   H340      1.0  0.47156  0.14045  0.61712  1.0000
  H   H341      1.0  0.46807  0.47592  0.93472  1.0000
  H   H342      1.0  0.48209  0.11807  0.67435  1.0000
  H   H343      1.0  0.44758  0.45313  0.97738  1.0000
  H   H344      1.0  0.44134  0.01701  0.66673  1.0000
  H   H345      1.0  0.48637  0.01790  0.66145  1.0000
  C   C214      1.0  0.49623  0.11508  0.65698  1.0000
  C   C215      1.0  0.48018  0.49026  0.93129  1.0000
  H   H346      1.0  0.47949  0.45641  0.97924  1.0000
  C   C216      1.0  0.45358  0.99998  0.66518  1.0000
  C   C217      1.0  0.47913  0.00052  0.66213  1.0000
  N   N22       1.0  0.31684  0.58906  0.02243  1.0000
  C   C218      1.0  0.38453  0.54307  0.05098  1.0000
  S   S93       1.0  0.38829  0.57456  0.04495  1.0000
  H   H347      1.0  0.39309  0.53676  0.00925  1.0000
  H   H348      1.0  0.37524  0.54335  0.09387  1.0000
  C   C219      1.0  0.38804  0.52865  0.02958  1.0000
  C   C220      1.0  0.37820  0.53223  0.07726  1.0000
  C   C221      1.0  0.32964  0.56828  0.00830  1.0000
  C   C222      1.0  0.32947  0.61137  0.01353  1.0000
  H   H349      1.0  0.34925  0.56426  0.01254  1.0000
  C   C223      1.0  0.31730  0.58248  0.05192  1.0000
  H   H350      1.0  0.33654  0.57878  0.05755  1.0000
  H   H351      1.0  0.34913  0.60813  0.01791  1.0000
  H   H352      1.0  0.30768  0.59769  0.06324  1.0000
  C   C224      1.0  0.29096  0.59405  0.01597  1.0000
  C   C225      1.0  0.38480  0.50353  0.03438  1.0000
  C   C226      1.0  0.37642  0.50675  0.08229  1.0000
  H   H353      1.0  0.28086  0.61006  0.02567  1.0000
  H   H354      1.0  0.28078  0.57774  0.02276  1.0000
  H   H355      1.0  0.30831  0.56548  0.05928  1.0000
  H   H356      1.0  0.32090  0.55098  0.01473  1.0000
  Fe  Fe48      1.0  0.40627  0.58297  0.00295  1.0000
  H   H357      1.0  0.32044  0.62744  0.02384  1.0000
  H   H358      1.0  0.32937  0.61693  0.99140  1.0000
  H   H359      1.0  0.28989  0.59854  0.99385  1.0000
  C   C227      1.0  0.49016  0.61714  0.01028  1.0000
  H   H360      1.0  0.42003  0.53059  0.10320  1.0000
  H   H361      1.0  0.48272  0.57031  0.09459  1.0000
  S   S94       1.0  0.44414  0.56446  0.99215  1.0000
  H   H362      1.0  0.46557  0.56323  0.05327  1.0000
  H   H363      1.0  0.47179  0.51734  0.11439  1.0000
  C   C228      1.0  0.46829  0.52566  0.09359  1.0000
  H   H364      1.0  0.45952  0.51198  0.08462  1.0000
  C   C229      1.0  0.42854  0.54573  0.10986  1.0000
  N   N23       1.0  0.45238  0.54957  0.09389  1.0000
  H   H365      1.0  0.43840  0.54744  0.05617  1.0000
  C   C230      1.0  0.46471  0.56698  0.10616  1.0000
  C   C231      1.0  0.44802  0.55995  0.06592  1.0000
  H   H366      1.0  0.43615  0.57808  0.06541  1.0000
  C   C232      1.0  0.46911  0.61823  0.02887  1.0000
  H   H367      1.0  0.41510  0.56279  0.10821  1.0000
  H   H368      1.0  0.45325  0.58523  0.10687  1.0000
  C   C233      1.0  0.47122  0.61970  0.05614  1.0000
  H   H369      1.0  0.45116  0.61820  0.02225  1.0000
  H   H370      1.0  0.45485  0.62096  0.07036  1.0000
  H   H371      1.0  0.44124  0.50235  0.02147  1.0000
  S   S95       1.0  0.41472  0.62097  0.98570  1.0000
  H   H372      1.0  0.48659  0.52793  0.08211  1.0000
  H   H373      1.0  0.43078  0.54044  0.13166  1.0000
  H   H374      1.0  0.46847  0.55981  0.12723  1.0000
  C   C234      1.0  0.49450  0.61880  0.06509  1.0000
  H   H375      1.0  0.47655  0.99757  0.38846  1.0000
  H   H376      1.0  0.45180  0.53653  0.17659  1.0000
  C   C235      1.0  0.46429  0.52077  0.17070  1.0000
  C   C236      1.0  0.48984  0.52237  0.16586  1.0000
  H   H377      1.0  0.45997  0.99316  0.42142  1.0000
  H   H378      1.0  0.43503  0.97642  0.47721  1.0000
  H   H379      1.0  0.48609  0.97157  0.41238  1.0000
  C   C237      1.0  0.42066  0.92852  0.44790  1.0000
  C   C238      1.0  0.44389  0.91455  0.44601  1.0000
  H   H380      1.0  0.44635  0.89732  0.43720  1.0000
  C   C239      1.0  0.41743  0.95082  0.45914  1.0000
  C   C240      1.0  0.43747  0.95922  0.46844  1.0000
  H   H381      1.0  0.47594  0.95135  0.47428  1.0000
  C   C241      1.0  0.46390  0.92271  0.45556  1.0000
  C   C242      1.0  0.46066  0.94503  0.46683  1.0000
  H   H382      1.0  0.40521  0.92205  0.44058  1.0000
  S   S96       1.0  0.38802  0.96739  0.46265  1.0000
  S   S97       1.0  0.49266  0.90466  0.45289  1.0000
  C   C243      1.0  0.47874  0.99160  0.41020  1.0000
  H   H383      1.0  0.47934  0.99771  0.46145  1.0000
  H   H384      1.0  0.32956  0.57254  0.98601  1.0000
  H   H385      1.0  0.35919  0.90200  0.56316  1.0000
  H   H386      1.0  0.36036  0.90786  0.51327  1.0000
  H   H387      1.0  0.28157  0.88845  0.64724  1.0000
  H   H388      1.0  0.38685  0.88027  0.56024  1.0000
  C   C244      1.0  0.37971  0.90022  0.56045  1.0000
  S   S98       1.0  0.43212  0.87898  0.59764  1.0000
  H   H389      1.0  0.46685  0.87734  0.55082  1.0000
  C   C245      1.0  0.47413  0.88686  0.56511  1.0000
  C   C246      1.0  0.46079  0.89010  0.59009  1.0000
  S   S99       1.0  0.36873  0.89176  0.63589  1.0000
  H   H390      1.0  0.42431  0.89322  0.53313  1.0000
  H   H391      1.0  0.38860  0.88719  0.50986  1.0000
  C   C247      1.0  0.38082  0.90671  0.51193  1.0000
  S   S100      1.0  0.33025  0.94416  0.59626  1.0000
  C   C248      1.0  0.33299  0.97502  0.58344  1.0000
  H   H392      1.0  0.28927  0.91171  0.61984  1.0000
  H   H393      1.0  0.34999  0.98281  0.61746  1.0000
  H   H394      1.0  0.31700  0.97277  0.54680  1.0000
  Fe  Fe49      1.0  0.35903  0.93224  0.62471  1.0000
  C   C249      1.0  0.32540  0.98434  0.55805  1.0000
  H   H395      1.0  0.28275  0.95582  0.62665  1.0000
  H   H396      1.0  0.35851  0.94423  0.53763  1.0000
  H   H397      1.0  0.30325  0.94877  0.65251  1.0000
  H   H398      1.0  0.30842  0.90399  0.64695  1.0000
  C   C250      1.0  0.28892  0.90665  0.64210  1.0000
  C   C251      1.0  0.28357  0.94989  0.64866  1.0000
  C   C252      1.0  0.34400  0.98995  0.59786  1.0000
  C   C253      1.0  0.49465  0.99423  0.54777  1.0000
  H   H399      1.0  0.38580  0.90606  0.57865  1.0000
  H   H400      1.0  0.42292  0.91961  0.55087  1.0000
  C   C254      1.0  0.41620  0.91290  0.53342  1.0000
  H   H401      1.0  0.38680  0.91820  0.49296  1.0000
  C   C255      1.0  0.47031  0.90239  0.60851  1.0000
  H   H402      1.0  0.38373  0.94851  0.55535  1.0000
  C   C256      1.0  0.37897  0.94161  0.53700  1.0000
  H   H403      1.0  0.38626  0.95377  0.51914  1.0000
  H   H404      1.0  0.46004  0.90487  0.62789  1.0000
  H   H405      1.0  0.42385  0.92357  0.51458  1.0000
  Fe  Fe50      1.0  0.40760  0.90060  0.62693  1.0000
  N   N24       1.0  0.38895  0.91537  0.53569  1.0000
  S   S101      1.0  0.39778  0.94075  0.61296  1.0000
  C   C257      1.0  0.46383  0.96592  0.55652  1.0000
  H   H406      1.0  0.47833  0.94992  0.55435  1.0000
  C   C258      1.0  0.49363  0.91066  0.60220  1.0000
  H   H407      1.0  0.44831  0.95911  0.57062  1.0000
  N   N25       1.0  0.47357  0.98644  0.56658  1.0000
  H   H408      1.0  0.45700  0.97181  0.53636  1.0000
  H   H409      1.0  0.46664  0.97126  0.60806  1.0000
  C   C259      1.0  0.48188  0.97806  0.59358  1.0000
  H   H410      1.0  0.48853  0.99334  0.60219  1.0000
  C   C260      1.0  0.25192  0.70918  0.80660  1.0000
  C   C261      1.0  0.25884  0.73011  0.78987  1.0000
  H   H411      1.0  0.27749  0.73474  0.78870  1.0000
  H   H412      1.0  0.31483  0.66048  0.81516  1.0000
  H   H413      1.0  0.34772  0.65407  0.80935  1.0000
  H   H414      1.0  0.32880  0.62918  0.81406  1.0000
  H   H415      1.0  0.25158  0.77495  0.81509  1.0000
  H   H416      1.0  0.30605  0.84630  0.66303  1.0000
  S   S102      1.0  0.25788  0.84800  0.69146  1.0000
  C   C262      1.0  0.28604  0.85344  0.70124  1.0000
  H   H417      1.0  0.27131  0.86156  0.74128  1.0000
  C   C263      1.0  0.28736  0.86102  0.72654  1.0000
  C   C264      1.0  0.30683  0.85271  0.68235  1.0000
  C   C265      1.0  0.32942  0.86998  0.71251  1.0000
  C   C266      1.0  0.32848  0.86086  0.68804  1.0000
  H   H418      1.0  0.34450  0.85995  0.67347  1.0000
  C   C267      1.0  0.30909  0.86936  0.73215  1.0000
  H   H419      1.0  0.30979  0.87621  0.75125  1.0000
  S   S103      1.0  0.35504  0.88422  0.71740  1.0000
  H   H420      1.0  0.26503  0.93364  0.69816  1.0000
  H   H421      1.0  0.26624  0.90178  0.69349  1.0000
  H   H422      1.0  0.29437  0.91548  0.69157  1.0000
  H   H423      1.0  0.27295  0.96480  0.65972  1.0000
  N   N26       1.0  0.27388  0.92586  0.65697  1.0000
  C   C268      1.0  0.27497  0.91894  0.68632  1.0000
  C   C269      1.0  0.24801  0.92786  0.65077  1.0000
  H   H424      1.0  0.40544  0.89781  0.73019  1.0000
  H   H425      1.0  0.41856  0.89512  0.76170  1.0000
  Fe  Fe51      1.0  0.39787  0.94565  0.65643  1.0000
  C   C270      1.0  0.48541  0.95611  0.66177  1.0000
  H   H426      1.0  0.45237  0.93832  0.66436  1.0000
  C   C271      1.0  0.40358  0.90525  0.75000  1.0000
  H   H427      1.0  0.38560  0.90042  0.76069  1.0000
  H   H428      1.0  0.44435  0.92913  0.74294  1.0000
  S   S104      1.0  0.35774  0.94149  0.66681  1.0000
  C   C272      1.0  0.45974  0.95566  0.66398  1.0000
  H   H429      1.0  0.36601  0.94061  0.74097  1.0000
  H   H430      1.0  0.38450  0.96524  0.72768  1.0000
  H   H431      1.0  0.38623  0.93854  0.71054  1.0000
  Fe  Fe52      1.0  0.37146  0.90149  0.67735  1.0000
  S   S105      1.0  0.41170  0.90615  0.66958  1.0000
  N   N27       1.0  0.40464  0.93230  0.74646  1.0000
  C   C273      1.0  0.40194  0.94138  0.77319  1.0000
  H   H432      1.0  0.38401  0.93758  0.78478  1.0000
  H   H433      1.0  0.42967  0.95819  0.72791  1.0000
  C   C274      1.0  0.42855  0.93786  0.73169  1.0000
  S   S106      1.0  0.41173  0.97771  0.67043  1.0000
  C   C275      1.0  0.38439  0.94477  0.73086  1.0000
  C   C276      1.0  0.44383  0.97762  0.66602  1.0000
  H   H434      1.0  0.40267  0.96174  0.77113  1.0000
  H   H435      1.0  0.43125  0.93102  0.71155  1.0000
  H   H436      1.0  0.41692  0.93232  0.78554  1.0000
  C   C277      1.0  0.49512  0.97862  0.66069  1.0000
  C   C278      1.0  0.25670  0.75469  0.86698  1.0000
  C   C279      1.0  0.48583  0.53368  0.92567  1.0000
  H   H437      1.0  0.47823  0.55291  0.92511  1.0000
  S   S107      1.0  0.43847  0.52233  0.93929  1.0000
  Fe  Fe53      1.0  0.42989  0.55976  0.95350  1.0000
  C   C280      1.0  0.47023  0.51508  0.93114  1.0000
  S   S108      1.0  0.39099  0.57497  0.96613  1.0000
  S   S109      1.0  0.27201  0.69259  0.82879  1.0000
  C   C281      1.0  0.33098  0.64714  0.82093  1.0000
  H   H438      1.0  0.31004  0.58868  0.93998  1.0000
  H   H439      1.0  0.30768  0.61673  0.85963  1.0000
  H   H440      1.0  0.31052  0.63359  0.88712  1.0000
  H   H441      1.0  0.29328  0.64803  0.86002  1.0000
  C   C282      1.0  0.31008  0.63526  0.86488  1.0000
  N   N28       1.0  0.24859  0.78069  0.85688  1.0000
  H   H442      1.0  0.33699  0.66735  0.88069  1.0000
  S   S110      1.0  0.26120  0.68888  0.90517  1.0000
  S   S111      1.0  0.26628  0.62284  0.94698  1.0000
  C   C283      1.0  0.29746  0.62716  0.94309  1.0000
  H   H443      1.0  0.29068  0.66628  0.94600  1.0000
  C   C284      1.0  0.31546  0.60697  0.93963  1.0000
  C   C285      1.0  0.30445  0.65083  0.94227  1.0000
  C   C286      1.0  0.33521  0.66881  0.85865  1.0000
  C   C287      1.0  0.34730  0.63448  0.93279  1.0000
  N   N29       1.0  0.33267  0.64449  0.85037  1.0000
  C   C288      1.0  0.34040  0.61064  0.93446  1.0000
  H   H444      1.0  0.33466  0.67296  0.93579  1.0000
  C   C289      1.0  0.32933  0.65453  0.93685  1.0000
  Fe  Fe54      1.0  0.24780  0.68285  0.86666  1.0000
  H   H445      1.0  0.31887  0.68250  0.85438  1.0000
  H   H446      1.0  0.35189  0.67654  0.84789  1.0000
  H   H447      1.0  0.35622  0.62423  0.87907  1.0000
  C   C290      1.0  0.35443  0.62677  0.85702  1.0000
  H   H448      1.0  0.35322  0.60821  0.85104  1.0000
  H   H449      1.0  0.37186  0.63336  0.84679  1.0000
  H   H450      1.0  0.35415  0.59521  0.93053  1.0000
  S   S112      1.0  0.48800  0.61373  0.97645  1.0000
  Fe  Fe55      1.0  0.45158  0.60179  0.97147  1.0000
  S   S113      1.0  0.44074  0.59559  0.93140  1.0000
  Fe  Fe56      1.0  0.40294  0.61143  0.94749  1.0000
  S   S114      1.0  0.37803  0.63965  0.92376  1.0000
  C   C291      1.0  0.27003  0.79491  0.85222  1.0000
  H   H451      1.0  0.27025  0.74555  0.85200  1.0000
  H   H452      1.0  0.28454  0.78701  0.83731  1.0000
  H   H453      1.0  0.27848  0.79502  0.87128  1.0000
  H   H454      1.0  0.26460  0.81456  0.84417  1.0000
  H   H455      1.0  0.26524  0.75328  0.88625  1.0000
  H   H456      1.0  0.66322  0.08711  0.98772  1.0000
  C   C292      1.0  0.55773  0.33479  0.00279  1.0000
  C   C293      1.0  0.51880  0.40172  0.03932  1.0000
  H   H457      1.0  0.53656  0.40535  0.02932  1.0000
  H   H458      1.0  0.55360  0.32043  0.01999  1.0000
  H   H459      1.0  0.62527  0.32734  0.00284  1.0000
  H   H460      1.0  0.53859  0.39465  0.12490  1.0000
  H   H461      1.0  0.56509  0.39822  0.10065  1.0000
  C   C294      1.0  0.51368  0.40438  0.06672  1.0000
  S   S115      1.0  0.57663  0.39829  0.99218  1.0000
  H   H462      1.0  0.52018  0.31064  0.99519  1.0000
  C   C295      1.0  0.50095  0.39494  0.02506  1.0000
  H   H463      1.0  0.56304  0.28891  0.98848  1.0000
  S   S116      1.0  0.50717  0.39398  0.99010  1.0000
  H   H464      1.0  0.57758  0.33724  0.00213  1.0000
  C   C296      1.0  0.55775  0.39985  0.12209  1.0000
  H   H465      1.0  0.59421  0.03231  0.46158  1.0000
  H   H466      1.0  0.56913  0.38592  0.13507  1.0000
  H   H467      1.0  0.54673  0.35255  0.00747  1.0000
  H   H468      1.0  0.53237  0.01539  0.41268  1.0000
  C   C297      1.0  0.58700  0.02571  0.48187  1.0000
  H   H469      1.0  0.52762  0.40981  0.07731  1.0000
  H   H470      1.0  0.54244  0.46225  0.11574  1.0000
  H   H471      1.0  0.52300  0.43869  0.11425  1.0000
  C   C298      1.0  0.54248  0.44289  0.11133  1.0000
  H   H472      1.0  0.54907  0.44231  0.08957  1.0000
  H   H473      1.0  0.57748  0.47386  0.08495  1.0000
  C   C299      1.0  0.59074  0.47445  0.04288  1.0000
  S   S117      1.0  0.58505  0.44395  0.04184  1.0000
  Fe  Fe57      1.0  0.57795  0.43711  0.00068  1.0000
  C   C300      1.0  0.58503  0.48463  0.06719  1.0000
  N   N30       1.0  0.55816  0.42519  0.12880  1.0000
  C   C301      1.0  0.60048  0.48880  0.01990  1.0000
  C   C302      1.0  0.58374  0.43155  0.12432  1.0000
  H   H474      1.0  0.59145  0.43087  0.10281  1.0000
  H   H475      1.0  0.58464  0.45060  0.12927  1.0000
  S   S118      1.0  0.54065  0.45186  0.98786  1.0000
  H   H476      1.0  0.60523  0.48095  0.00110  1.0000
  H   H477      1.0  0.59614  0.41854  0.13708  1.0000
  H   H478      1.0  0.50867  0.46402  0.15065  1.0000
  H   H479      1.0  0.52928  0.42192  0.16146  1.0000
  H   H480      1.0  0.55996  0.41338  0.17123  1.0000
  C   C303      1.0  0.54863  0.42651  0.15744  1.0000
  H   H481      1.0  0.54874  0.44546  0.16315  1.0000
  H   H482      1.0  0.50846  0.00960  0.45852  1.0000
  H   H483      1.0  0.51851  0.01086  0.38325  1.0000
  C   C304      1.0  0.51966  0.00431  0.40507  1.0000
  Fe  Fe58      1.0  0.51652  0.06481  0.60679  1.0000
  C   C305      1.0  0.58627  0.02507  0.53041  1.0000
  Fe  Fe59      1.0  0.56827  0.04050  0.59190  1.0000
  S   S119      1.0  0.53108  0.02736  0.59521  1.0000
  S   S120      1.0  0.55314  0.07914  0.59910  1.0000
  H   H484      1.0  0.51600  0.06536  0.55048  1.0000
  S   S121      1.0  0.59793  0.03393  0.55815  1.0000
  S   S122      1.0  0.57510  0.02783  0.63495  1.0000
  C   C306      1.0  0.56839  0.00871  0.53439  1.0000
  C   C307      1.0  0.59564  0.03351  0.50414  1.0000
  H   H485      1.0  0.60944  0.04623  0.50104  1.0000
  Fe  Fe60      1.0  0.53659  0.01726  0.63895  1.0000
  Fe  Fe61      1.0  0.55651  0.06565  0.64280  1.0000
  H   H486      1.0  0.56128  0.00209  0.55458  1.0000
  C   C308      1.0  0.56048  0.00013  0.51222  1.0000
  H   H487      1.0  0.50919  0.04788  0.50937  1.0000
  H   H488      1.0  0.51408  0.12190  0.60483  1.0000
  C   C309      1.0  0.56973  0.00868  0.48597  1.0000
  H   H489      1.0  0.50235  0.00979  0.55464  1.0000
  C   C310      1.0  0.49742  0.06559  0.54531  1.0000
  H   H490      1.0  0.70791  0.08253  0.64582  1.0000
  H   H491      1.0  0.53805  0.12398  0.62565  1.0000
  C   C311      1.0  0.52056  0.13372  0.61832  1.0000
  H   H492      1.0  0.52509  0.15110  0.60572  1.0000
  H   H493      1.0  0.51589  0.17200  0.64733  1.0000
  N   N31       1.0  0.50176  0.13872  0.64111  1.0000
  S   S123      1.0  0.51864  0.05376  0.65106  1.0000
  S   S124      1.0  0.56648  0.09405  0.66678  1.0000
  C   C312      1.0  0.58727  0.08250  0.69075  1.0000
  H   H494      1.0  0.61825  0.02866  0.71753  1.0000
  C   C313      1.0  0.62080  0.06463  0.72895  1.0000
  C   C314      1.0  0.61265  0.08994  0.72472  1.0000
  C   C315      1.0  0.59534  0.05719  0.69511  1.0000
  C   C316      1.0  0.61208  0.04828  0.71417  1.0000
  H   H495      1.0  0.58854  0.04444  0.68398  1.0000
  C   C317      1.0  0.59590  0.09887  0.70561  1.0000
  H   H496      1.0  0.61910  0.10263  0.73628  1.0000
  H   H497      1.0  0.51303  0.10470  0.66533  1.0000
  S   S125      1.0  0.64276  0.05296  0.75156  1.0000
  H   H498      1.0  0.67185  0.05849  0.66037  1.0000
  H   H499      1.0  0.72811  0.05733  0.66103  1.0000
  H   H500      1.0  0.66599  0.04652  0.69521  1.0000
  H   H501      1.0  0.69243  0.03334  0.67522  1.0000
  C   C318      1.0  0.68092  0.05104  0.67895  1.0000
  H   H502      1.0  0.71940  0.04127  0.70917  1.0000
  H   H503      1.0  0.69236  0.05387  0.72857  1.0000
  H   H504      1.0  0.71759  0.07188  0.71883  1.0000
  C   C319      1.0  0.70680  0.05855  0.71188  1.0000
  Fe  Fe62      1.0  0.65868  0.08075  0.77151  1.0000
  C   C320      1.0  0.71559  0.07440  0.66504  1.0000
  S   S126      1.0  0.69733  0.06866  0.78215  1.0000
  N   N32       1.0  0.69576  0.06902  0.68676  1.0000
  H   H505      1.0  0.72708  0.08786  0.67062  1.0000
  Fe  Fe63      1.0  0.70402  0.10699  0.76426  1.0000
  C   C321      1.0  0.67967  0.09218  0.69129  1.0000
  H   H506      1.0  0.69022  0.10619  0.69733  1.0000
  H   H507      1.0  0.67081  0.10057  0.67287  1.0000
  H   H508      1.0  0.66455  0.08873  0.70760  1.0000
  S   S127      1.0  0.64525  0.09367  0.81181  1.0000
  H   H509      1.0  0.58959  0.11846  0.70241  1.0000
  H   H510      1.0  0.52852  0.14438  0.66691  1.0000
  C   C322      1.0  0.51132  0.15406  0.65864  1.0000
  H   H511      1.0  0.60589  0.47272  0.82944  1.0000
  S   S128      1.0  0.66628  0.11836  0.75114  1.0000
  S   S129      1.0  0.63590  0.16671  0.80199  1.0000
  C   C323      1.0  0.73067  0.18633  0.73822  1.0000
  Fe  Fe64      1.0  0.65665  0.13029  0.79253  1.0000
  C   C324      1.0  0.72556  0.16207  0.73759  1.0000
  H   H512      1.0  0.70670  0.15833  0.73782  1.0000
  H   H513      1.0  0.71580  0.20135  0.73851  1.0000
  H   H514      1.0  0.71167  0.23274  0.77668  1.0000
  S   S130      1.0  0.69548  0.12261  0.80364  1.0000
  C   C325      1.0  0.68767  0.19508  0.80255  1.0000
  C   C326      1.0  0.70327  0.23460  0.79774  1.0000
  H   H515      1.0  0.66848  0.20438  0.80152  1.0000
  N   N33       1.0  0.70296  0.21024  0.81426  1.0000
  H   H516      1.0  0.69508  0.19163  0.78172  1.0000
  H   H517      1.0  0.68657  0.17673  0.81476  1.0000
  C   C327      1.0  0.72841  0.19762  0.81462  1.0000
  H   H518      1.0  0.73673  0.19447  0.79389  1.0000
  C   C328      1.0  0.74489  0.14283  0.73614  1.0000
  S   S131      1.0  0.73858  0.11229  0.73684  1.0000
  H   H519      1.0  0.68433  0.24454  0.79671  1.0000
  H   H520      1.0  0.71413  0.24668  0.80645  1.0000
  H   H521      1.0  0.73413  0.27959  0.81298  1.0000
  Fe  Fe65      1.0  0.68478  0.08524  0.82048  1.0000
  S   S132      1.0  0.69421  0.07055  0.86240  1.0000
  C   C329      1.0  0.72549  0.05959  0.86401  1.0000
  H   H522      1.0  0.72490  0.06747  0.90490  1.0000
  C   C330      1.0  0.73597  0.06059  0.88779  1.0000
  H   H523      1.0  0.73216  0.04932  0.82361  1.0000
  C   C331      1.0  0.74022  0.05051  0.84193  1.0000
  H   H524      1.0  0.70212  0.05968  0.94981  1.0000
  H   H525      1.0  0.67060  0.05356  0.95790  1.0000
  C   C332      1.0  0.68301  0.06510  0.94403  1.0000
  H   H526      1.0  0.68274  0.06013  0.92323  1.0000
  H   H527      1.0  0.63656  0.08777  0.95102  1.0000
  H   H528      1.0  0.72882  0.17933  0.82721  1.0000
  H   H529      1.0  0.74051  0.20901  0.82273  1.0000
  H   H530      1.0  0.64890  0.09396  0.91635  1.0000
  H   H531      1.0  0.62570  0.20774  0.83432  1.0000
  H   H532      1.0  0.63328  0.21047  0.88177  1.0000
  H   H533      1.0  0.67391  0.22472  0.84259  1.0000
  N   N34       1.0  0.67529  0.09181  0.94519  1.0000
  C   C333      1.0  0.64996  0.09824  0.93726  1.0000
  C   C334      1.0  0.72525  0.16503  0.96860  1.0000
  C   C335      1.0  0.72736  0.13952  0.96778  1.0000
  H   H534      1.0  0.70808  0.17617  0.96475  1.0000
  H   H535      1.0  0.71170  0.13142  0.96359  1.0000
  S   S133      1.0  0.74319  0.20834  0.97187  1.0000
  H   H536      1.0  0.69219  0.10254  0.90523  1.0000
  C   C336      1.0  0.69244  0.21367  0.84217  1.0000
  H   H537      1.0  0.71166  0.10176  0.93170  1.0000
  H   H538      1.0  0.65181  0.13013  0.84452  1.0000
  H   H539      1.0  0.65877  0.13279  0.89113  1.0000
  C   C337      1.0  0.65147  0.14917  0.87906  1.0000
  S   S134      1.0  0.65264  0.17269  0.92307  1.0000
  C   C338      1.0  0.64660  0.17173  0.88971  1.0000
  C   C339      1.0  0.63826  0.16869  0.83618  1.0000
  C   C340      1.0  0.63731  0.19296  0.87358  1.0000
  C   C341      1.0  0.63288  0.19138  0.84684  1.0000
  C   C342      1.0  0.64756  0.14768  0.85242  1.0000
  Fe  Fe66      1.0  0.66591  0.20827  0.92937  1.0000
  H   H540      1.0  0.68716  0.12657  0.92695  1.0000
  S   S135      1.0  0.70461  0.21340  0.91241  1.0000
  C   C343      1.0  0.69232  0.10630  0.92645  1.0000
  H   H541      1.0  0.69031  0.19565  0.85480  1.0000
  H   H542      1.0  0.70438  0.22366  0.85218  1.0000
  H   H543      1.0  0.64365  0.11837  0.93773  1.0000
  S   S136      1.0  0.67092  0.21612  0.97097  1.0000
  C   C344      1.0  0.67590  0.09762  0.97300  1.0000
  H   H544      1.0  0.67029  0.11772  0.97447  1.0000
  H   H545      1.0  0.62898  0.48541  0.84413  1.0000
  Fe  Fe67      1.0  0.70864  0.22423  0.95290  1.0000
  H   H546      1.0  0.69482  0.09292  0.97960  1.0000
  H   H547      1.0  0.52056  0.31995  0.95940  1.0000
  C   C345      1.0  0.55837  0.34711  0.95475  1.0000
  N   N35       1.0  0.55208  0.32773  0.97699  1.0000
  C   C346      1.0  0.56671  0.30391  0.97182  1.0000
  H   H548      1.0  0.55456  0.34235  0.93491  1.0000
  H   H549      1.0  0.56282  0.29783  0.95264  1.0000
  H   H550      1.0  0.57828  0.34963  0.95309  1.0000
  H   H551      1.0  0.54757  0.36531  0.95796  1.0000
  H   H552      1.0  0.58679  0.30537  0.97005  1.0000
  C   C347      1.0  0.52552  0.32511  0.97859  1.0000
  C   C348      1.0  0.74497  0.27337  0.82977  1.0000
  C   C349      1.0  0.63491  0.31135  0.96560  1.0000
  H   H553      1.0  0.64489  0.30099  0.92547  1.0000
  C   C350      1.0  0.63968  0.31613  0.93751  1.0000
  H   H554      1.0  0.63964  0.34414  0.90301  1.0000
  C   C351      1.0  0.63674  0.34056  0.92481  1.0000
  S   S137      1.0  0.65034  0.24711  0.91530  1.0000
  Fe  Fe68      1.0  0.65921  0.25559  0.95540  1.0000
  S   S138      1.0  0.70114  0.27265  0.86132  1.0000
  S   S139      1.0  0.69751  0.26464  0.94102  1.0000
  Fe  Fe69      1.0  0.68974  0.25306  0.90208  1.0000
  C   C352      1.0  0.73336  0.26993  0.85607  1.0000
  C   C353      1.0  0.62580  0.35541  0.96840  1.0000
  H   H555      1.0  0.73880  0.26087  0.89823  1.0000
  C   C354      1.0  0.62922  0.36015  0.94024  1.0000
  Fe  Fe70      1.0  0.54049  0.41369  0.97690  1.0000
  C   C355      1.0  0.50578  0.48394  0.92758  1.0000
  H   H556      1.0  0.51340  0.46468  0.92862  1.0000
  S   S140      1.0  0.55665  0.42276  0.93428  1.0000
  S   S141      1.0  0.55342  0.49469  0.91957  1.0000
  Fe  Fe71      1.0  0.56077  0.45945  0.94677  1.0000
  H   H557      1.0  0.62609  0.44253  0.90775  1.0000
  H   H558      1.0  0.58516  0.43824  0.85482  1.0000
  N   N36       1.0  0.61522  0.45356  0.86779  1.0000
  S   S142      1.0  0.62182  0.39016  0.92422  1.0000
  H   H559      1.0  0.59715  0.49024  0.85758  1.0000
  H   H560      1.0  0.64029  0.46820  0.88962  1.0000
  H   H561      1.0  0.57694  0.45531  0.88339  1.0000
  Fe  Fe72      1.0  0.59318  0.41125  0.95063  1.0000
  H   H562      1.0  0.63748  0.41817  0.86975  1.0000
  C   C356      1.0  0.62284  0.45953  0.89319  1.0000
  C   C357      1.0  0.59177  0.44255  0.87357  1.0000
  H   H563      1.0  0.60847  0.47260  0.90319  1.0000
  S   S143      1.0  0.59830  0.44867  0.96062  1.0000
  C   C358      1.0  0.61169  0.47649  0.84885  1.0000
  H   H564      1.0  0.62933  0.43053  0.83660  1.0000
  H   H565      1.0  0.65251  0.44324  0.85121  1.0000
  H   H566      1.0  0.59396  0.42492  0.88733  1.0000
  C   C359      1.0  0.63449  0.43565  0.85572  1.0000
  C   C360      1.0  0.74530  0.17603  0.97406  1.0000
  H   H567      1.0  0.49769  0.15813  0.67616  1.0000
  C   C361      1.0  0.62835  0.33101  0.98107  1.0000
  H   H568      1.0  0.62141  0.37052  0.98048  1.0000
  S   S144      1.0  0.63471  0.28092  0.98128  1.0000
  H   H569      1.0  0.51392  0.34274  0.98257  1.0000
  S   S145      1.0  0.56938  0.60267  0.09759  1.0000
  S   S146      1.0  0.53948  0.55551  0.09338  1.0000
  Fe  Fe73      1.0  0.57854  0.56419  0.08620  1.0000
  S   S147      1.0  0.60067  0.55472  0.04775  1.0000
  Fe  Fe74      1.0  0.53127  0.59224  0.10915  1.0000
  C   C362      1.0  0.59844  0.52346  0.04592  1.0000
  H   H570      1.0  0.61234  0.52436  0.00387  1.0000
  C   C363      1.0  0.51333  0.61741  0.01906  1.0000
  C   C364      1.0  0.51559  0.61753  0.04657  1.0000
  H   H571      1.0  0.52962  0.61702  0.00468  1.0000
  C   C365      1.0  0.55080  0.55474  0.01275  1.0000
  S   S148      1.0  0.58878  0.54698  0.12704  1.0000
  H   H572      1.0  0.53362  0.61696  0.05335  1.0000
  H   H573      1.0  0.61605  0.61337  0.11107  1.0000
  Fe  Fe75      1.0  0.54882  0.54089  0.13521  1.0000
  H   H574      1.0  0.57049  0.55709  0.00631  1.0000
  C   C366      1.0  0.51227  0.54690  0.99893  1.0000
  H   H575      1.0  0.54925  0.50888  0.00155  1.0000
  H   H576      1.0  0.54190  0.57252  0.01952  1.0000
  C   C367      1.0  0.60465  0.51327  0.02151  1.0000
  H   H577      1.0  0.58362  0.51670  0.08749  1.0000
  H   H578      1.0  0.55017  0.54047  0.03071  1.0000
  N   N37       1.0  0.53883  0.54784  0.99049  1.0000
  C   C368      1.0  0.58856  0.50908  0.06863  1.0000
  H   H579      1.0  0.50310  0.56515  0.00433  1.0000
  Fe  Fe76      1.0  0.57624  0.58476  0.13937  1.0000
  H   H580      1.0  0.50930  0.53293  0.01681  1.0000
  S   S149      1.0  0.49725  0.61759  0.09963  1.0000
  C   C369      1.0  0.55039  0.52326  0.98371  1.0000
  H   H581      1.0  0.69328  0.60028  0.12621  1.0000
  H   H582      1.0  0.73684  0.60293  0.13425  1.0000
  H   H583      1.0  0.66842  0.61607  0.14607  1.0000
  C   C370      1.0  0.68746  0.60619  0.14659  1.0000
  C   C371      1.0  0.61987  0.62771  0.12223  1.0000
  N   N38       1.0  0.54515  0.67157  0.12854  1.0000
  C   C372      1.0  0.63219  0.64737  0.10881  1.0000
  H   H584      1.0  0.50951  0.66452  0.11963  1.0000
  H   H585      1.0  0.52589  0.68335  0.09319  1.0000
  C   C373      1.0  0.52815  0.66744  0.10930  1.0000
  H   H586      1.0  0.53426  0.71085  0.12554  1.0000
  C   C374      1.0  0.53572  0.69433  0.14103  1.0000
  H   H587      1.0  0.53503  0.65069  0.09908  1.0000
  H   H588      1.0  0.63754  0.64827  0.08728  1.0000
  H   H589      1.0  0.56926  0.69020  0.09775  1.0000
  C   C375      1.0  0.56981  0.67426  0.11398  1.0000
  H   H590      1.0  0.58318  0.67729  0.12789  1.0000
  H   H591      1.0  0.57749  0.65739  0.10432  1.0000
  H   H592      1.0  0.55394  0.63274  0.14123  1.0000
  C   C376      1.0  0.63762  0.66582  0.12317  1.0000
  S   S150      1.0  0.65277  0.69036  0.10587  1.0000
  Fe  Fe77      1.0  0.67288  0.70983  0.13170  1.0000
  S   S151      1.0  0.71237  0.71541  0.11804  1.0000
  Fe  Fe78      1.0  0.70259  0.75274  0.13251  1.0000
  S   S152      1.0  0.66227  0.74867  0.14172  1.0000
  C   C377      1.0  0.70525  0.64449  0.13398  1.0000
  H   H593      1.0  0.71096  0.63964  0.11314  1.0000
  H   H594      1.0  0.71836  0.65679  0.13855  1.0000
  H   H595      1.0  0.68686  0.65557  0.13369  1.0000
  H   H596      1.0  0.72411  0.87141  0.09188  1.0000
  S   S153      1.0  0.71463  0.78863  0.11167  1.0000
  N   N39       1.0  0.71216  0.86692  0.13445  1.0000
  C   C378      1.0  0.70833  0.89390  0.13587  1.0000
  H   H597      1.0  0.68080  0.86749  0.11238  1.0000
  C   C379      1.0  0.68846  0.85825  0.13120  1.0000
  H   H598      1.0  0.67445  0.86202  0.14855  1.0000
  H   H599      1.0  0.69072  0.83790  0.12999  1.0000
  C   C380      1.0  0.73025  0.86145  0.11116  1.0000
  H   H600      1.0  0.73289  0.84135  0.10895  1.0000
  H   H601      1.0  0.72596  0.90109  0.13781  1.0000
  H   H602      1.0  0.70079  0.90419  0.11743  1.0000
  S   S154      1.0  0.53707  0.57707  0.15187  1.0000
  S   S155      1.0  0.59561  0.60331  0.16676  1.0000
  S   S156      1.0  0.53792  0.50313  0.15126  1.0000
  C   C381      1.0  0.50599  0.50189  0.15840  1.0000
  H   H603      1.0  0.74282  0.62036  0.16015  1.0000
  H   H604      1.0  0.72986  0.59165  0.16930  1.0000
  C   C382      1.0  0.72962  0.60863  0.15444  1.0000
  H   H605      1.0  0.68629  0.58923  0.16133  1.0000
  H   H606      1.0  0.69557  0.61330  0.19683  1.0000
  H   H607      1.0  0.51709  0.69294  0.15212  1.0000
  C   C383      1.0  0.54695  0.65024  0.14987  1.0000
  H   H608      1.0  0.54817  0.69786  0.15571  1.0000
  H   H609      1.0  0.52871  0.64755  0.16131  1.0000
  C   C384      1.0  0.61270  0.62662  0.14997  1.0000
  C   C385      1.0  0.63093  0.66443  0.15104  1.0000
  H   H610      1.0  0.55991  0.65248  0.16460  1.0000
  C   C386      1.0  0.61856  0.64480  0.16443  1.0000
  H   H611      1.0  0.61301  0.64402  0.18592  1.0000
  H   H612      1.0  0.63457  0.67887  0.16215  1.0000
  H   H613      1.0  0.74176  0.73958  0.30001  1.0000
  N   N40       1.0  0.70456  0.62221  0.15403  1.0000
  H   H614      1.0  0.70818  0.64213  0.18718  1.0000
  C   C387      1.0  0.69592  0.62964  0.18112  1.0000
  H   H615      1.0  0.67687  0.63959  0.18167  1.0000
  S   S157      1.0  0.67978  0.69386  0.17400  1.0000
  Fe  Fe79      1.0  0.67280  0.73318  0.18292  1.0000
  Fe  Fe80      1.0  0.71845  0.70202  0.16108  1.0000
  H   H616      1.0  0.71604  0.68296  0.21686  1.0000
  H   H617      1.0  0.72183  0.68256  0.26518  1.0000
  S   S158      1.0  0.71248  0.73982  0.17447  1.0000
  S   S159      1.0  0.65138  0.74522  0.22063  1.0000
  H   H618      1.0  0.70610  0.72442  0.24825  1.0000
  C   C388      1.0  0.73430  0.67854  0.22346  1.0000
  H   H619      1.0  0.72567  0.71679  0.29000  1.0000
  C   C389      1.0  0.73759  0.67853  0.25074  1.0000
  C   C390      1.0  0.72472  0.73693  0.29140  1.0000
  C   C391      1.0  0.70259  0.74416  0.25184  1.0000
  H   H620      1.0  0.68460  0.74663  0.26450  1.0000
  H   H621      1.0  0.70865  0.74190  0.30615  1.0000
  H   H622      1.0  0.69523  0.89858  0.15366  1.0000
  H   H623      1.0  0.74030  0.85876  0.16178  1.0000
  C   C392      1.0  0.72159  0.85407  0.15964  1.0000
  H   H624      1.0  0.72274  0.83367  0.16022  1.0000
  H   H625      1.0  0.70042  0.75521  0.23186  1.0000
  N   N41       1.0  0.72268  0.75173  0.26474  1.0000
  H   H626      1.0  0.71581  0.79009  0.24850  1.0000
  H   H627      1.0  0.69923  0.78213  0.28068  1.0000
  H   H628      1.0  0.64972  0.82049  0.26336  1.0000
  C   C393      1.0  0.64905  0.78766  0.24447  1.0000
  H   H629      1.0  0.64095  0.77743  0.26252  1.0000
  C   C394      1.0  0.65477  0.77651  0.22066  1.0000
  C   C395      1.0  0.65426  0.81192  0.24503  1.0000
  S   S160      1.0  0.66023  0.84889  0.30270  1.0000
  C   C396      1.0  0.67005  0.81410  0.19784  1.0000
  C   C397      1.0  0.66471  0.82518  0.22166  1.0000
  H   H630      1.0  0.67822  0.82412  0.17980  1.0000
  H   H631      1.0  0.66999  0.78131  0.17900  1.0000
  C   C398      1.0  0.66535  0.78976  0.19741  1.0000
  S   S161      1.0  0.71721  0.84241  0.27457  1.0000
  S   S162      1.0  0.67187  0.85530  0.22193  1.0000
  Fe  Fe81      1.0  0.68072  0.86095  0.26293  1.0000
  C   C399      1.0  0.71719  0.77829  0.26825  1.0000
  Fe  Fe82      1.0  0.69742  0.83368  0.31542  1.0000
  H   H632      1.0  0.73156  0.78449  0.27879  1.0000
  H   H633      1.0  0.70930  0.85922  0.17778  1.0000
  H   H634      1.0  0.74476  0.75745  0.22664  1.0000
  Fe  Fe83      1.0  0.72122  0.87846  0.28864  1.0000
  C   C400      1.0  0.74375  0.89471  0.22605  1.0000
  H   H635      1.0  0.73215  0.89661  0.18646  1.0000
  H   H636      1.0  0.72546  0.89328  0.23585  1.0000
  S   S163      1.0  0.68596  0.89801  0.27383  1.0000
  Fe  Fe84      1.0  0.66885  0.88433  0.31490  1.0000
  H   H637      1.0  0.61165  0.79358  0.40885  1.0000
  H   H638      1.0  0.60161  0.82877  0.37300  1.0000
  H   H639      1.0  0.62687  0.81322  0.42568  1.0000
  C   C401      1.0  0.62957  0.80073  0.40951  1.0000
  H   H640      1.0  0.74434  0.82477  0.32882  1.0000
  H   H641      1.0  0.62392  0.78930  0.36028  1.0000
  C   C402      1.0  0.74498  0.76242  0.34399  1.0000
  H   H642      1.0  0.62579  0.84612  0.35641  1.0000
  C   C403      1.0  0.61953  0.83500  0.37564  1.0000
  H   H643      1.0  0.64785  0.80606  0.34210  1.0000
  H   H644      1.0  0.66840  0.83379  0.36570  1.0000
  H   H645      1.0  0.61589  0.84771  0.39150  1.0000
  C   C404      1.0  0.64141  0.79671  0.36227  1.0000
  H   H646      1.0  0.64320  0.78471  0.41577  1.0000
  H   H647      1.0  0.66022  0.83536  0.40116  1.0000
  H   H648      1.0  0.67654  0.80755  0.38956  1.0000
  C   C405      1.0  0.66182  0.82306  0.38501  1.0000
  H   H649      1.0  0.65556  0.78070  0.36707  1.0000
  N   N42       1.0  0.63808  0.81387  0.38309  1.0000
  S   S164      1.0  0.70374  0.79529  0.33691  1.0000
  H   H650      1.0  0.73262  0.74831  0.34865  1.0000
  C   C406      1.0  0.73550  0.78727  0.33845  1.0000
  S   S165      1.0  0.70463  0.86811  0.33113  1.0000
  S   S166      1.0  0.56148  0.99613  0.45858  1.0000
  H   H651      1.0  0.52841  0.98474  0.40681  1.0000
  Fe  Fe85      1.0  0.52310  0.91645  0.47230  1.0000
  S   S167      1.0  0.55514  0.93033  0.44573  1.0000
  Fe  Fe86      1.0  0.55348  0.95786  0.47478  1.0000
  H   H652      1.0  0.50720  0.97853  0.45165  1.0000
  C   C407      1.0  0.63101  0.96979  0.45458  1.0000
  H   H653      1.0  0.61540  0.98479  0.45660  1.0000
  H   H654      1.0  0.64770  0.97670  0.45997  1.0000
  H   H655      1.0  0.65744  0.99110  0.41114  1.0000
  H   H656      1.0  0.59241  0.90728  0.36928  1.0000
  Fe  Fe87      1.0  0.57840  0.90546  0.47454  1.0000
  H   H657      1.0  0.58294  0.89547  0.41829  1.0000
  H   H658      1.0  0.62658  0.95397  0.46994  1.0000
  H   H659      1.0  0.61430  0.94735  0.40038  1.0000
  C   C408      1.0  0.60187  0.89451  0.40963  1.0000
  H   H660      1.0  0.65166  0.92585  0.44007  1.0000
  S   S168      1.0  0.63780  0.90769  0.33573  1.0000
  C   C409      1.0  0.60723  0.90071  0.38182  1.0000
  H   H661      1.0  0.59606  0.96818  0.42177  1.0000
  S   S169      1.0  0.61462  0.88389  0.46126  1.0000
  C   C410      1.0  0.64038  0.98390  0.40723  1.0000
  H   H662      1.0  0.64314  0.97889  0.38619  1.0000
  C   C411      1.0  0.64535  0.88358  0.41430  1.0000
  H   H663      1.0  0.60724  0.93749  0.43567  1.0000
  H   H664      1.0  0.67295  0.94832  0.42962  1.0000
  C   C412      1.0  0.63165  0.89826  0.37017  1.0000
  C   C413      1.0  0.62094  0.88697  0.42605  1.0000
  N   N43       1.0  0.63476  0.96240  0.42699  1.0000
  C   C414      1.0  0.65543  0.94231  0.42530  1.0000
  H   H665      1.0  0.66964  0.88723  0.37726  1.0000
  H   H666      1.0  0.65852  0.93606  0.40481  1.0000
  C   C415      1.0  0.61208  0.95350  0.42089  1.0000
  H   H667      1.0  0.66017  0.87753  0.42696  1.0000
  C   C416      1.0  0.65072  0.88908  0.38626  1.0000
  H   H668      1.0  0.62505  0.99935  0.40809  1.0000
  C   C417      1.0  0.49764  0.99769  0.44934  1.0000
  H   H669      1.0  0.49703  0.53929  0.16818  1.0000
  C   C418      1.0  0.74612  0.74758  0.24737  1.0000
  S   S170      1.0  0.54642  0.88894  0.49879  1.0000
  H   H670      1.0  0.50684  0.89362  0.53894  1.0000
  C   C419      1.0  0.49691  0.89596  0.55842  1.0000
  H   H671      1.0  0.60932  0.91729  0.59955  1.0000
  S   S171      1.0  0.53530  0.91916  0.56830  1.0000
  Fe  Fe88      1.0  0.54470  0.92041  0.52354  1.0000
  N   N44       1.0  0.58446  0.95059  0.60400  1.0000
  H   H672      1.0  0.54536  0.94868  0.60983  1.0000
  C   C420      1.0  0.55905  0.96047  0.59841  1.0000
  H   H673      1.0  0.55672  0.96150  0.57657  1.0000
  C   C421      1.0  0.59034  0.92554  0.59549  1.0000
  H   H674      1.0  0.57720  0.91281  0.60626  1.0000
  H   H675      1.0  0.58885  0.92590  0.57348  1.0000
  C   C422      1.0  0.60180  0.96713  0.58881  1.0000
  H   H676      1.0  0.60058  0.96874  0.56664  1.0000
  C   C423      1.0  0.58643  0.94935  0.63328  1.0000
  H   H677      1.0  0.55413  0.97928  0.60449  1.0000
  H   H678      1.0  0.57307  0.93753  0.64533  1.0000
  S   S172      1.0  0.57905  0.93443  0.50193  1.0000
  H   H679      1.0  0.59773  0.98624  0.59469  1.0000
  H   H680      1.0  0.58209  0.96802  0.64028  1.0000
  H   H681      1.0  0.60527  0.94172  0.63848  1.0000
  S   S173      1.0  0.51904  0.94669  0.49893  1.0000
  C   C424      1.0  0.50689  0.90752  0.57706  1.0000
  H   H682      1.0  0.54730  0.98684  0.51541  1.0000
  H   H683      1.0  0.50983  0.97876  0.54618  1.0000
  H   H684      1.0  0.50130  0.91955  0.61671  1.0000
  H   H685      1.0  0.49728  0.96273  0.59282  1.0000
  H   H686      1.0  0.62122  0.96034  0.59250  1.0000
  S   S174      1.0  0.52715  0.97941  0.65671  1.0000
  H   H687      1.0  0.49772  0.93912  0.66053  1.0000
  H   H688      1.0  0.53473  0.58545  0.97150  1.0000
  H   H689      1.0  0.57029  0.52348  0.97637  1.0000
  H   H690      1.0  0.56176  0.56681  0.95882  1.0000
  H   H691      1.0  0.53194  0.56285  0.94990  1.0000
  C   C425      1.0  0.54199  0.56650  0.96661  1.0000
  H   H692      1.0  0.52336  0.54180  0.91542  1.0000
  C   C426      1.0  0.52138  0.50254  0.92206  1.0000
  C   C427      1.0  0.51136  0.52741  0.92035  1.0000
  H   H693      1.0  0.54129  0.51715  0.96758  1.0000
  H   H694      1.0  0.50265  0.54215  0.98231  1.0000
  C   C428      1.0  0.89545  0.05642  0.02199  1.0000
  C   C429      1.0  0.87665  0.04800  0.01039  1.0000
  H   H695      1.0  0.89406  0.07565  0.02536  1.0000
  C   C430      1.0  0.87851  0.02328  0.00569  1.0000
  H   H696      1.0  0.86076  0.06069  0.00515  1.0000
  C   C431      1.0  0.91766  0.01525  0.02506  1.0000
  C   C432      1.0  0.91640  0.04029  0.02845  1.0000
  S   S175      1.0  0.85609  0.01289  0.98933  1.0000
  C   C433      1.0  0.89867  0.00672  0.01379  1.0000
  H   H697      1.0  0.83162  0.00945  0.08013  1.0000
  H   H698      1.0  0.83209  0.01050  0.04415  1.0000
  Fe  Fe89      1.0  0.97304  0.02497  0.05167  1.0000
  S   S176      1.0  0.94153  0.05254  0.03799  1.0000
  S   S177      1.0  0.97397  0.01243  0.09580  1.0000
  H   H699      1.0  0.93352  0.00259  0.03033  1.0000
  H   H700      1.0  0.94120  0.46973  0.47809  1.0000
  H   H701      1.0  0.97113  0.01222  0.19026  1.0000
  H   H702      1.0  0.98113  0.01603  0.15473  1.0000
  C   C434      1.0  0.98581  0.00598  0.17461  1.0000
  H   H703      1.0  0.92460  0.44521  0.44807  1.0000
  N   N45       1.0  0.92850  0.48400  0.43951  1.0000
  H   H704      1.0  0.95450  0.49703  0.40698  1.0000
  H   H705      1.0  0.94854  0.45266  0.42196  1.0000
  H   H706      1.0  0.88940  0.49225  0.43685  1.0000
  C   C435      1.0  0.92962  0.45920  0.43071  1.0000
  H   H707      1.0  0.91671  0.45918  0.41525  1.0000
  C   C436      1.0  0.90322  0.49169  0.45146  1.0000
  H   H708      1.0  0.96516  0.47698  0.45157  1.0000
  H   H709      1.0  0.89786  0.47883  0.46973  1.0000
  C   C437      1.0  0.94597  0.48293  0.45991  1.0000
  H   H710      1.0  0.85971  0.99999  0.06008  1.0000
  H   H711      1.0  0.78307  0.16967  0.98342  1.0000
  H   H712      1.0  0.85571  0.30064  0.61145  1.0000
  H   H713      1.0  0.84140  0.33163  0.64413  1.0000
  H   H714      1.0  0.86430  0.34433  0.60012  1.0000
  C   C438      1.0  0.87338  0.29662  0.62085  1.0000
  H   H715      1.0  0.87151  0.28068  0.63697  1.0000
  H   H716      1.0  0.88814  0.29050  0.60516  1.0000
  H   H717      1.0  0.89685  0.33448  0.59431  1.0000
  N   N46       1.0  0.87923  0.31850  0.63202  1.0000
  C   C439      1.0  0.88157  0.33918  0.61011  1.0000
  H   H718      1.0  0.88582  0.35598  0.61794  1.0000
  H   H719      1.0  0.97150  0.37005  0.51992  1.0000
  C   C440      1.0  0.95729  0.37637  0.53507  1.0000
  C   C441      1.0  0.95608  0.36404  0.56140  1.0000
  S   S178      1.0  0.93893  0.35943  0.61481  1.0000
  C   C442      1.0  0.93811  0.37259  0.58118  1.0000
  H   H720      1.0  0.96963  0.34847  0.56662  1.0000
  C   C443      1.0  0.94011  0.39680  0.52832  1.0000
  C   C444      1.0  0.92039  0.39247  0.57430  1.0000
  C   C445      1.0  0.92114  0.40429  0.54770  1.0000
  S   S179      1.0  0.94369  0.41421  0.49653  1.0000
  H   H721      1.0  0.90622  0.39887  0.58946  1.0000
  H   H722      1.0  0.91851  0.30793  0.62895  1.0000
  Fe  Fe90      1.0  0.92054  0.38716  0.64186  1.0000
  C   C446      1.0  0.99178  0.39832  0.59446  1.0000
  H   H723      1.0  0.99303  0.37848  0.59136  1.0000
  H   H724      1.0  0.99297  0.36750  0.64070  1.0000
  C   C447      1.0  0.90274  0.31221  0.64434  1.0000
  H   H725      1.0  0.97188  0.39450  0.64598  1.0000
  C   C448      1.0  0.99175  0.38760  0.64267  1.0000
  H   H726      1.0  0.97184  0.40552  0.59649  1.0000
  H   H727      1.0  0.90754  0.41977  0.54239  1.0000
  Fe  Fe91      1.0  0.98360  0.41951  0.48771  1.0000
  C   C449      1.0  0.87503  0.47692  0.59534  1.0000
  C   C450      1.0  0.89408  0.46227  0.58197  1.0000
  H   H728      1.0  0.90035  0.44400  0.59110  1.0000
  C   C451      1.0  0.90483  0.47114  0.55644  1.0000
  H   H729      1.0  0.91970  0.45980  0.54622  1.0000
  S   S180      1.0  0.92774  0.42674  0.63382  1.0000
  C   C452      1.0  0.89673  0.49481  0.54440  1.0000
  S   S181      1.0  0.86374  0.46765  0.62876  1.0000
  C   C453      1.0  0.96584  0.48015  0.56081  1.0000
  H   H730      1.0  0.95568  0.48323  0.54250  1.0000
  H   H731      1.0  0.95568  0.46780  0.57638  1.0000
  C   C454      1.0  0.86579  0.49989  0.58243  1.0000
  C   C455      1.0  0.98278  0.49902  0.59407  1.0000
  H   H732      1.0  0.98428  0.47000  0.55518  1.0000
  H   H733      1.0  0.98171  0.43588  0.62488  1.0000
  H   H734      1.0  0.97348  0.48752  0.61122  1.0000
  S   S182      1.0  0.99413  0.45535  0.49653  1.0000
  H   H735      1.0  0.76432  0.08434  0.80069  1.0000
  C   C456      1.0  0.77116  0.10240  0.79292  1.0000
  H   H736      1.0  0.82109  0.09156  0.79762  1.0000
  H   H737      1.0  0.78202  0.10016  0.77306  1.0000
  N   N47       1.0  0.78607  0.11039  0.81205  1.0000
  H   H738      1.0  0.75471  0.11605  0.78920  1.0000
  H   H739      1.0  0.80596  0.13347  0.78128  1.0000
  C   C457      1.0  0.79436  0.13459  0.80096  1.0000
  H   H740      1.0  0.80583  0.14109  0.81482  1.0000
  H   H741      1.0  0.77851  0.14904  0.79726  1.0000
  H   H742      1.0  0.79299  0.17545  0.73824  1.0000
  C   C458      1.0  0.76927  0.14782  0.73558  1.0000
  H   H743      1.0  0.78430  0.13305  0.73411  1.0000
  S   S183      1.0  0.80578  0.20197  0.79692  1.0000
  S   S184      1.0  0.76043  0.22090  0.74376  1.0000
  C   C459      1.0  0.77421  0.17185  0.73778  1.0000
  Fe  Fe92      1.0  0.79836  0.22090  0.75595  1.0000
  S   S185      1.0  0.85591  0.14846  0.78715  1.0000
  S   S186      1.0  0.83397  0.20488  0.73487  1.0000
  Fe  Fe93      1.0  0.84263  0.18864  0.77664  1.0000
  Fe  Fe94      1.0  0.84889  0.23860  0.74438  1.0000
  S   S187      1.0  0.86095  0.22077  0.78440  1.0000
  Fe  Fe95      1.0  0.82317  0.23561  0.80104  1.0000
  C   C460      1.0  0.75490  0.19113  0.73909  1.0000
  C   C461      1.0  0.85927  0.32589  0.65283  1.0000
  S   S188      1.0  0.81237  0.25610  0.76181  1.0000
  C   C462      1.0  0.84942  0.30447  0.72690  1.0000
  H   H744      1.0  0.82950  0.33984  0.73459  1.0000
  H   H745      1.0  0.83312  0.29508  0.73021  1.0000
  C   C463      1.0  0.84732  0.32990  0.72895  1.0000
  H   H746      1.0  0.77923  0.26995  0.80458  1.0000
  H   H747      1.0  0.82660  0.32396  0.78625  1.0000
  C   C464      1.0  0.83427  0.30701  0.79875  1.0000
  H   H748      1.0  0.85643  0.31035  0.66910  1.0000
  H   H749      1.0  0.86354  0.34168  0.66260  1.0000
  H   H750      1.0  0.83899  0.29208  0.78538  1.0000
  H   H751      1.0  0.81927  0.30120  0.81426  1.0000
  S   S189      1.0  0.87987  0.39607  0.65203  1.0000
  S   S190      1.0  0.87524  0.26005  0.71557  1.0000
  N   N48       1.0  0.85606  0.31139  0.81130  1.0000
  H   H752      1.0  0.86866  0.33745  0.77838  1.0000
  C   C465      1.0  0.87521  0.31951  0.78998  1.0000
  H   H753      1.0  0.89225  0.32227  0.79856  1.0000
  H   H754      1.0  0.90205  0.29579  0.65993  1.0000
  H   H755      1.0  0.88046  0.30569  0.77531  1.0000
  S   S191      1.0  0.86545  0.37409  0.72698  1.0000
  C   C466      1.0  0.87238  0.29159  0.71945  1.0000
  H   H756      1.0  0.90714  0.32787  0.65423  1.0000
  C   C467      1.0  0.89318  0.30431  0.71375  1.0000
  C   C468      1.0  0.89103  0.32980  0.71544  1.0000
  C   C469      1.0  0.86811  0.34259  0.72316  1.0000
  H   H757      1.0  0.91103  0.29439  0.70817  1.0000
  H   H758      1.0  0.90724  0.33938  0.71149  1.0000
  S   S192      1.0  0.92982  0.38190  0.68453  1.0000
  Fe  Fe96      1.0  0.88961  0.39411  0.69444  1.0000
  H   H759      1.0  0.87034  0.27278  0.81427  1.0000
  Fe  Fe97      1.0  0.88782  0.43547  0.64828  1.0000
  S   S193      1.0  0.89431  0.43445  0.69173  1.0000
  S   S194      1.0  0.96801  0.43709  0.68544  1.0000
  Fe  Fe98      1.0  0.93380  0.42239  0.67744  1.0000
  C   C470      1.0  0.94373  0.48130  0.66562  1.0000
  H   H760      1.0  0.92780  0.47152  0.66652  1.0000
  C   C471      1.0  0.96588  0.46884  0.67406  1.0000
  C   C472      1.0  0.98644  0.48172  0.67274  1.0000
  Fe  Fe99      1.0  0.83674  0.04275  0.96128  1.0000
  H   H761      1.0  0.80246  0.07285  0.82155  1.0000
  C   C473      1.0  0.80780  0.09184  0.81615  1.0000
  H   H762      1.0  0.81781  0.09555  0.83289  1.0000
  H   H763      1.0  0.86079  0.10213  0.82091  1.0000
  C   C474      1.0  0.76110  0.05338  0.88939  1.0000
  H   H764      1.0  0.76447  0.09476  0.84700  1.0000
  H   H765      1.0  0.76891  0.05496  0.90768  1.0000
  H   H766      1.0  0.77685  0.03548  0.82680  1.0000
  S   S195      1.0  0.80788  0.03795  0.86907  1.0000
  C   C475      1.0  0.77597  0.04445  0.86745  1.0000
  S   S196      1.0  0.80009  0.03831  0.94836  1.0000
  Fe  Fe100     1.0  0.81628  0.05169  0.90673  1.0000
  S   S197      1.0  0.85410  0.05219  0.91898  1.0000
  Fe  Fe101     1.0  0.79076  0.07867  0.95277  1.0000
  H   H767      1.0  0.86216  0.09188  0.87036  1.0000
  C   C476      1.0  0.76544  0.04257  0.84380  1.0000
  S   S198      1.0  0.80436  0.09182  0.91018  1.0000
  Fe  Fe102     1.0  0.84067  0.09130  0.92619  1.0000
  S   S199      1.0  0.82602  0.08220  0.96951  1.0000
  H   H768      1.0  0.92464  0.04417  0.97194  1.0000
  N   N49       1.0  0.92297  0.07533  0.94110  1.0000
  H   H769      1.0  0.93314  0.03642  0.93831  1.0000
  C   C477      1.0  0.92038  0.04903  0.95063  1.0000
  C   C478      1.0  0.91855  0.08066  0.91230  1.0000
  H   H770      1.0  0.93198  0.06912  0.89943  1.0000
  H   H771      1.0  0.89971  0.07701  0.90923  1.0000
  H   H772      1.0  0.96238  0.06858  0.93256  1.0000
  H   H773      1.0  0.95202  0.07635  0.96599  1.0000
  C   C479      1.0  0.94815  0.08032  0.94439  1.0000
  H   H774      1.0  0.88568  0.08693  0.95672  1.0000
  H   H775      1.0  0.90127  0.04474  0.94975  1.0000
  C   C480      1.0  0.74974  0.12485  0.97148  1.0000
  H   H776      1.0  0.75420  0.12632  0.83572  1.0000
  C   C481      1.0  0.77091  0.11272  0.83814  1.0000
  H   H777      1.0  0.78161  0.11854  0.85319  1.0000
  C   C482      1.0  0.76990  0.13571  0.97713  1.0000
  C   C483      1.0  0.85988  0.14136  0.82157  1.0000
  H   H778      1.0  0.75419  0.18657  0.89222  1.0000
  C   C484      1.0  0.86206  0.11090  0.86129  1.0000
  H   H779      1.0  0.78631  0.19648  0.93855  1.0000
  H   H780      1.0  0.77046  0.15616  0.88898  1.0000
  H   H781      1.0  0.80390  0.17592  0.85890  1.0000
  H   H782      1.0  0.80419  0.15480  0.93215  1.0000
  N   N50       1.0  0.79220  0.18229  0.90011  1.0000
  C   C485      1.0  0.78890  0.20307  0.91664  1.0000
  C   C486      1.0  0.76847  0.17226  0.90066  1.0000
  C   C487      1.0  0.81053  0.16259  0.91125  1.0000
  C   C488      1.0  0.86106  0.11671  0.83336  1.0000
  H   H783      1.0  0.81888  0.19881  0.87075  1.0000
  C   C489      1.0  0.80096  0.19113  0.87194  1.0000
  H   H784      1.0  0.78761  0.20617  0.86300  1.0000
  H   H785      1.0  0.82842  0.16969  0.91217  1.0000
  H   H786      1.0  0.81415  0.14695  0.89881  1.0000
  C   C490      1.0  0.86332  0.12962  0.87725  1.0000
  C   C491      1.0  0.86092  0.16012  0.83758  1.0000
  H   H787      1.0  0.80520  0.21354  0.91345  1.0000
  H   H788      1.0  0.77231  0.21629  0.91214  1.0000
  S   S200      1.0  0.86328  0.12262  0.91237  1.0000
  C   C492      1.0  0.86329  0.15417  0.86529  1.0000
  H   H789      1.0  0.76119  0.16584  0.92167  1.0000
  H   H790      1.0  0.86023  0.17918  0.82856  1.0000
  S   S201      1.0  0.75225  0.09325  0.96791  1.0000
  H   H791      1.0  0.86451  0.16869  0.87750  1.0000
  C   C493      1.0  0.76754  0.16127  0.97893  1.0000
  H   H792      1.0  0.78718  0.12441  0.98041  1.0000
  H   H793      1.0  0.90868  0.08911  0.97866  1.0000
  H   H794      1.0  0.91990  0.10048  0.90454  1.0000
  C   C494      1.0  0.90482  0.09131  0.95719  1.0000
  H   H795      1.0  0.95071  0.10004  0.93758  1.0000
  H   H796      1.0  0.90504  0.11125  0.94933  1.0000
  S   S202      1.0  0.81644  0.25119  0.84060  1.0000
  C   C495      1.0  0.84876  0.33083  0.82939  1.0000
  H   H797      1.0  0.84127  0.34856  0.81805  1.0000
  C   C496      1.0  0.77059  0.26806  0.82500  1.0000
  C   C497      1.0  0.77341  0.25915  0.87308  1.0000
  H   H798      1.0  0.85237  0.28222  0.84410  1.0000
  H   H799      1.0  0.83420  0.32531  0.84563  1.0000
  C   C498      1.0  0.78480  0.26060  0.84662  1.0000
  H   H800      1.0  0.78445  0.25434  0.88986  1.0000
  C   C499      1.0  0.74762  0.26305  0.87779  1.0000
  H   H801      1.0  0.88306  0.29047  0.83580  1.0000
  H   H802      1.0  0.86473  0.33459  0.83928  1.0000
  C   C500      1.0  0.86595  0.28823  0.82704  1.0000
  C   C501      1.0  0.80211  0.73215  0.12298  1.0000
  H   H803      1.0  0.81165  0.74514  0.10752  1.0000
  H   H804      1.0  0.80251  0.71452  0.11420  1.0000
  H   H805      1.0  0.85028  0.73241  0.12852  1.0000
  H   H806      1.0  0.84261  0.70113  0.13368  1.0000
  C   C502      1.0  0.84032  0.71881  0.14276  1.0000
  H   H807      1.0  0.78243  0.74015  0.12622  1.0000
  H   H808      1.0  0.79594  0.78395  0.06012  1.0000
  C   C503      1.0  0.79666  0.79647  0.09886  1.0000
  C   C504      1.0  0.78299  0.80103  0.12339  1.0000
  C   C505      1.0  0.78542  0.78759  0.07909  1.0000
  Fe  Fe103     1.0  0.83698  0.83310  0.11113  1.0000
  S   S203      1.0  0.82815  0.80019  0.09335  1.0000
  S   S204      1.0  0.82358  0.87184  0.09445  1.0000
  Fe  Fe104     1.0  0.81356  0.87800  0.13768  1.0000
  H   H809      1.0  0.79161  0.80745  0.13892  1.0000
  C   C506      1.0  0.75822  0.79662  0.12815  1.0000
  C   C507      1.0  0.76034  0.78425  0.08340  1.0000
  S   S205      1.0  0.84968  0.89028  0.14320  1.0000
  Fe  Fe105     1.0  0.86087  0.88087  0.10100  1.0000
  H   H810      1.0  0.74864  0.86696  0.11344  1.0000
  H   H811      1.0  0.75142  0.77852  0.06756  1.0000
  C   C508      1.0  0.74669  0.78887  0.10789  1.0000
  H   H812      1.0  0.82169  0.76579  0.14622  1.0000
  H   H813      1.0  0.74783  0.79981  0.14724  1.0000
  H   H814      1.0  0.98113  0.89098  0.98756  1.0000
  S   S206      1.0  0.87562  0.84135  0.11331  1.0000
  C   C509      1.0  0.93440  0.87733  0.03576  1.0000
  N   N51       1.0  0.95940  0.88372  0.02565  1.0000
  H   H815      1.0  0.90797  0.88844  0.11511  1.0000
  S   S207      1.0  0.87974  0.90779  0.07027  1.0000
  H   H816      1.0  0.97618  0.84589  0.02985  1.0000
  C   C510      1.0  0.97798  0.86406  0.03647  1.0000
  C   C511      1.0  0.96278  0.90750  0.03462  1.0000
  H   H817      1.0  0.97615  0.86179  0.05897  1.0000
  H   H818      1.0  0.93147  0.87549  0.05825  1.0000
  H   H819      1.0  0.98091  0.91360  0.02632  1.0000
  H   H820      1.0  0.96190  0.90604  0.05702  1.0000
  H   H821      1.0  0.93107  0.85952  0.02937  1.0000
  H   H822      1.0  0.91984  0.89187  0.02823  1.0000
  C   C512      1.0  0.91518  0.90507  0.10502  1.0000
  C   C513      1.0  0.96245  0.88604  0.99579  1.0000
  H   H823      1.0  0.94487  0.90194  0.13021  1.0000
  H   H824      1.0  0.96029  0.86837  0.98825  1.0000
  H   H825      1.0  0.94867  0.90070  0.98698  1.0000
  N   N52       1.0  0.83306  0.97392  0.06591  1.0000
  C   C514      1.0  0.80596  0.97423  0.06857  1.0000
  H   H826      1.0  0.79710  0.98334  0.08638  1.0000
  C   C515      1.0  0.84393  0.96164  0.04205  1.0000
  C   C516      1.0  0.83936  0.99959  0.06248  1.0000
  H   H827      1.0  0.80067  0.95508  0.07116  1.0000
  C   C517      1.0  0.84295  0.96021  0.09049  1.0000
  H   H828      1.0  0.83516  0.96891  0.10891  1.0000
  H   H829      1.0  0.79793  0.98444  0.05031  1.0000
  H   H830      1.0  0.84013  0.94200  0.04421  1.0000
  H   H831      1.0  0.83653  0.97124  0.02319  1.0000
  H   H832      1.0  0.83861  0.94070  0.09365  1.0000
  H   H833      1.0  0.86430  0.96155  0.03900  1.0000
  H   H834      1.0  0.94836  0.92254  0.02791  1.0000
  C   C518      1.0  0.90429  0.91842  0.08287  1.0000
  S   S208      1.0  0.98230  0.98673  0.03941  1.0000
  H   H835      1.0  0.86338  0.95948  0.08907  1.0000
  C   C519      1.0  0.93603  0.91273  0.11359  1.0000
  C   C520      1.0  0.91367  0.93995  0.06997  1.0000
  H   H836      1.0  0.90536  0.95037  0.05283  1.0000
  S   S209      1.0  0.97322  0.94190  0.10945  1.0000
  C   C521      1.0  0.94573  0.93398  0.10033  1.0000
  C   C522      1.0  0.93416  0.94791  0.07893  1.0000
  H   H837      1.0  0.94128  0.96453  0.06890  1.0000
  Fe  Fe106     1.0  0.98663  0.97493  0.08324  1.0000
  H   H838      1.0  0.90007  0.98750  0.01044  1.0000
  H   H839      1.0  0.84671  0.74538  0.38242  1.0000
  H   H840      1.0  0.95965  0.98059  0.14821  1.0000
  H   H841      1.0  0.84976  0.71521  0.16159  1.0000
  N   N53       1.0  0.81398  0.72817  0.14839  1.0000
  H   H842      1.0  0.80275  0.69186  0.15974  1.0000
  C   C523      1.0  0.80168  0.70991  0.16787  1.0000
  H   H843      1.0  0.78176  0.71636  0.17264  1.0000
  H   H844      1.0  0.81032  0.70635  0.18726  1.0000
  C   C524      1.0  0.81183  0.75180  0.16001  1.0000
  H   H845      1.0  0.81990  0.74923  0.17965  1.0000
  C   C525      1.0  0.76133  0.67426  0.25914  1.0000
  Fe  Fe107     1.0  0.80306  0.69031  0.29373  1.0000
  S   S210      1.0  0.76567  0.67874  0.29209  1.0000
  C   C526      1.0  0.78152  0.66798  0.24065  1.0000
  C   C527      1.0  0.77808  0.66652  0.21374  1.0000
  H   H846      1.0  0.79979  0.66394  0.24713  1.0000
  H   H847      1.0  0.79376  0.66130  0.19967  1.0000
  Fe  Fe108     1.0  0.84516  0.71278  0.25905  1.0000
  S   S211      1.0  0.80802  0.72912  0.27586  1.0000
  S   S212      1.0  0.85637  0.72436  0.21516  1.0000
  S   S213      1.0  0.83900  0.67349  0.27403  1.0000
  S   S214      1.0  0.86400  0.71816  0.29468  1.0000
  H   H848      1.0  0.86347  0.75664  0.16589  1.0000
  S   S215      1.0  0.75109  0.67451  0.17049  1.0000
  C   C528      1.0  0.75462  0.67270  0.20492  1.0000
  H   H849      1.0  0.75135  0.72752  0.24547  1.0000
  C   C529      1.0  0.86637  0.75384  0.20864  1.0000
  H   H850      1.0  0.82626  0.73309  0.41018  1.0000
  Fe  Fe109     1.0  0.85443  0.68020  0.31146  1.0000
  Fe  Fe110     1.0  0.82616  0.73098  0.31295  1.0000
  S   S216      1.0  0.77603  0.89682  0.14969  1.0000
  H   H851      1.0  0.79223  0.75971  0.16373  1.0000
  H   H852      1.0  0.76149  0.75411  0.25592  1.0000
  S   S217      1.0  0.82383  0.83855  0.15400  1.0000
  Fe  Fe111     1.0  0.86125  0.84988  0.15520  1.0000
  C   C530      1.0  0.86716  0.76601  0.18229  1.0000
  H   H853      1.0  0.77524  0.84323  0.24474  1.0000
  C   C531      1.0  0.82470  0.84049  0.24263  1.0000
  H   H854      1.0  0.82175  0.81214  0.29038  1.0000
  H   H855      1.0  0.81857  0.85252  0.22443  1.0000
  H   H856      1.0  0.84436  0.83341  0.23750  1.0000
  C   C532      1.0  0.82028  0.80270  0.27244  1.0000
  H   H857      1.0  0.77219  0.81527  0.26749  1.0000
  H   H858      1.0  0.79766  0.79067  0.23280  1.0000
  H   H859      1.0  0.79947  0.81926  0.21072  1.0000
  H   H860      1.0  0.82704  0.79974  0.21860  1.0000
  C   C533      1.0  0.80826  0.80681  0.22719  1.0000
  C   C534      1.0  0.78416  0.83018  0.26067  1.0000
  N   N54       1.0  0.80936  0.82005  0.25072  1.0000
  H   H861      1.0  0.78432  0.84066  0.27818  1.0000
  H   H862      1.0  0.82405  0.85239  0.25907  1.0000
  H   H863      1.0  0.80903  0.78720  0.27930  1.0000
  H   H864      1.0  0.83915  0.79436  0.26570  1.0000
  H   H865      1.0  0.87182  0.80011  0.15681  1.0000
  C   C535      1.0  0.87213  0.79063  0.17707  1.0000
  C   C536      1.0  0.87233  0.76583  0.22949  1.0000
  H   H866      1.0  0.87224  0.75639  0.24978  1.0000
  C   C537      1.0  0.87746  0.80288  0.19796  1.0000
  C   C538      1.0  0.87839  0.79021  0.22403  1.0000
  S   S218      1.0  0.88023  0.83464  0.19204  1.0000
  H   H867      1.0  0.88286  0.79954  0.24016  1.0000
  H   H868      1.0  0.80968  0.89784  0.18983  1.0000
  H   H869      1.0  0.80237  0.89701  0.23980  1.0000
  S   S219      1.0  0.75845  0.89135  0.27669  1.0000
  C   C539      1.0  0.78712  0.89663  0.22813  1.0000
  C   C540      1.0  0.79125  0.89710  0.19989  1.0000
  C   C541      1.0  0.76338  0.89499  0.24127  1.0000
  C   C542      1.0  0.77141  0.89704  0.18479  1.0000
  C   C543      1.0  0.74763  0.89636  0.19790  1.0000
  N   N55       1.0  0.98833  0.97885  0.17431  1.0000
  H   H870      1.0  0.98005  0.97128  0.21731  1.0000
  H   H871      1.0  0.96615  0.95118  0.16755  1.0000
  C   C544      1.0  0.96482  0.97152  0.16830  1.0000
  H   H872      1.0  0.94936  0.97665  0.18367  1.0000
  H   H873      1.0  0.90165  0.51046  0.45806  1.0000
  H   H874      1.0  0.93468  0.52099  0.42238  1.0000
  C   C545      1.0  0.98192  0.54328  0.46235  1.0000
  C   C546      1.0  0.98436  0.56393  0.44304  1.0000
  S   S220      1.0  0.90994  0.56412  0.46095  1.0000
  C   C547      1.0  0.99316  0.51980  0.45674  1.0000
  H   H875      1.0  0.92262  0.50348  0.40024  1.0000
  C   C548      1.0  0.99461  0.96626  0.20095  1.0000
  H   H876      1.0  0.99152  0.50411  0.47189  1.0000
  H   H877      1.0  0.97152  0.54541  0.48168  1.0000
  H   H878      1.0  0.77783  0.73629  0.34583  1.0000
  H   H879      1.0  0.82629  0.72410  0.37715  1.0000
  S   S221      1.0  0.84780  0.60548  0.44804  1.0000
  S   S222      1.0  0.81780  0.69364  0.33275  1.0000
  C   C549      1.0  0.84893  0.63650  0.37028  1.0000
  C   C550      1.0  0.84104  0.62556  0.39622  1.0000
  H   H880      1.0  0.83567  0.64300  0.35587  1.0000
  H   H881      1.0  0.82166  0.62392  0.40186  1.0000
  H   H882      1.0  0.86241  0.69748  0.35763  1.0000
  C   C551      1.0  0.85813  0.61705  0.41498  1.0000
  C   C552      1.0  0.83838  0.72843  0.39176  1.0000
  H   H883      1.0  0.83337  0.68828  0.42833  1.0000
  N   N56       1.0  0.85748  0.70746  0.39801  1.0000
  H   H884      1.0  0.83383  0.67999  0.39488  1.0000
  C   C553      1.0  0.84546  0.68527  0.40938  1.0000
  H   H885      1.0  0.85933  0.66905  0.41423  1.0000
  H   H886      1.0  0.88212  0.73034  0.40990  1.0000
  C   C554      1.0  0.87278  0.71367  0.41786  1.0000
  H   H887      1.0  0.86146  0.71747  0.43707  1.0000
  C   C555      1.0  0.87393  0.63891  0.36307  1.0000
  H   H888      1.0  0.88736  0.69812  0.42287  1.0000
  S   S223      1.0  0.88397  0.65463  0.33178  1.0000
  C   C556      1.0  0.87331  0.70238  0.37299  1.0000
  H   H889      1.0  0.88785  0.68650  0.37678  1.0000
  S   S224      1.0  0.96998  0.59325  0.44978  1.0000
  Fe  Fe112     1.0  0.87915  0.59267  0.47328  1.0000
  H   H890      1.0  0.91046  0.63149  0.37601  1.0000
  C   C557      1.0  0.89108  0.62978  0.38159  1.0000
  H   H891      1.0  0.89651  0.61240  0.42190  1.0000
  C   C558      1.0  0.88320  0.61896  0.40755  1.0000
  H   H892      1.0  0.99528  0.62655  0.46881  1.0000
  H   H893      1.0  0.88260  0.71871  0.36361  1.0000
  Fe  Fe113     1.0  0.93415  0.58847  0.47488  1.0000
  C   C559      1.0  0.75154  0.80549  0.33288  1.0000
  H   H894      1.0  0.78936  0.81298  0.32882  1.0000
  C   C560      1.0  0.77056  0.75562  0.34248  1.0000
  S   S225      1.0  0.81855  0.76534  0.33355  1.0000
  C   C561      1.0  0.78660  0.77383  0.33695  1.0000
  C   C562      1.0  0.77705  0.79881  0.33276  1.0000
  C   C563      1.0  0.93535  0.50212  0.41618  1.0000
  H   H895      1.0  0.94579  0.50137  0.46687  1.0000
  S   S226      1.0  0.87245  0.57389  0.51560  1.0000
  Fe  Fe114     1.0  0.90580  0.54781  0.50425  1.0000
  H   H896      1.0  0.87004  0.52697  0.54750  1.0000
  Fe  Fe115     1.0  0.89967  0.59765  0.52501  1.0000
  S   S227      1.0  0.89460  0.61289  0.56477  1.0000
  H   H897      1.0  0.86091  0.58114  0.59405  1.0000
  H   H898      1.0  0.87780  0.55247  0.58599  1.0000
  C   C564      1.0  0.86367  0.56091  0.60092  1.0000
  H   H899      1.0  0.84599  0.55352  0.59977  1.0000
  N   N57       1.0  0.87145  0.55591  0.62853  1.0000
  H   H900      1.0  0.88822  0.51889  0.62336  1.0000
  H   H901      1.0  0.85002  0.58873  0.64136  1.0000
  S   S228      1.0  0.91266  0.50665  0.51426  1.0000
  C   C565      1.0  0.87692  0.50905  0.55716  1.0000
  S   S229      1.0  0.90376  0.61882  0.48357  1.0000
  H   H902      1.0  0.85022  0.51068  0.59215  1.0000
  C   C566      1.0  0.89523  0.56561  0.62869  1.0000
  H   H903      1.0  0.90986  0.55707  0.61437  1.0000
  H   H904      1.0  0.89353  0.58592  0.62247  1.0000
  C   C567      1.0  0.87425  0.52895  0.63715  1.0000
  H   H905      1.0  0.85661  0.52098  0.63736  1.0000
  H   H906      1.0  0.93219  0.52107  0.56159  1.0000
  C   C568      1.0  0.94343  0.51629  0.57900  1.0000
  H   H907      1.0  0.94478  0.53378  0.58743  1.0000
  H   H908      1.0  0.98721  0.60774  0.52966  1.0000
  S   S230      1.0  0.93261  0.56990  0.51736  1.0000
  C   C569      1.0  0.92068  0.62683  0.56830  1.0000
  H   H909      1.0  0.91997  0.61478  0.61100  1.0000
  C   C570      1.0  0.92961  0.62431  0.59358  1.0000
  H   H910      1.0  0.97014  0.52385  0.53079  1.0000
  C   C571      1.0  0.98066  0.52000  0.54884  1.0000
  H   H911      1.0  0.98283  0.53805  0.55554  1.0000
  Fe  Fe116     1.0  0.99542  0.56714  0.62935  1.0000
  S   S231      1.0  0.95974  0.55086  0.64174  1.0000
  H   H912      1.0  0.98581  0.59072  0.50189  1.0000
  H   H913      1.0  0.98579  0.51657  0.60137  1.0000
  N   N58       1.0  0.96815  0.50386  0.57067  1.0000
  H   H914      1.0  0.93309  0.50422  0.59474  1.0000
  H   H915      1.0  0.95944  0.62928  0.61543  1.0000
  C   C572      1.0  0.95195  0.63280  0.59615  1.0000
  C   C573      1.0  0.93343  0.63928  0.54585  1.0000
  H   H916      1.0  0.92648  0.64140  0.52630  1.0000
  H   H917      1.0  0.98511  0.71958  0.62378  1.0000
  C   C574      1.0  0.96485  0.64499  0.57376  1.0000
  C   C575      1.0  0.95527  0.64891  0.54874  1.0000
  H   H918      1.0  0.96525  0.65829  0.53139  1.0000
  C   C576      1.0  0.97602  0.67399  0.64589  1.0000
  H   H919      1.0  0.97449  0.66653  0.62671  1.0000
  S   S232      1.0  0.99477  0.65115  0.57647  1.0000
  H   H920      1.0  0.99575  0.64425  0.49617  1.0000
  C   C577      1.0  0.85262  0.56833  0.64735  1.0000
  H   H921      1.0  0.90203  0.56205  0.64906  1.0000
  H   H922      1.0  0.83442  0.56140  0.64773  1.0000
  H   H923      1.0  0.85800  0.56506  0.66835  1.0000
  H   H924      1.0  0.88010  0.52448  0.65790  1.0000
  C   C578      1.0  0.94200  0.50660  0.65632  1.0000
  C   C579      1.0  0.98476  0.50706  0.66307  1.0000
  H   H925      1.0  0.92486  0.51612  0.64992  1.0000
  C   C580      1.0  0.96245  0.51952  0.65498  1.0000
  H   H926      1.0  0.97469  0.65840  0.66246  1.0000
  H   H927      1.0  0.95971  0.68797  0.64923  1.0000
  H   H928      1.0  0.98528  0.71074  0.67323  1.0000
