data_image0
_chemical_formula_structural       SNCHCFeH4C3HCH3CSH3CSFeCHC3HNCH2CSHC2SCSCFeCFeSCFeS2FeSFeSHSHC2NH3C7H3CH3SHCHNSCHCHCH3CH8CH5SH2SHCH2C2FeCH2SCH3SCHSC2HCNH3CH3NH2CHSC2HSHC2SCH4C2HSC2HCSH3FeH2C2H3CHCH2SCHCH2FeSHSCFeCH6CH4C2HC2FeH4SH5SCH2C2FeH2FeCN2HSHCHFeCHCHFeSCS2H3SHCHCH2C3HC6SHC2H6SCHCSHCNH2C2NHC2HSHC2S2FeCFeSFeSFe3HS2H2CHC3H4CH3SHFeSH2S3HNHCHCHCH3NH2CHCHCHSH3CH4CH2FeHNCH3CH5NCSH2C2HSHC3HCH2CH7C2H5SHCSFeCHCHCHFeCH3CH3CH4SH3NCHCFeHSH2SCHC5H2C3H2S3FeC4H2NHC3HCH5FeHC2H3S2CHC2H2Fe2H4S2HC3FeNS3C2FeH2CSHNC2H3CH2SHC2H2CH3CHFeH4C2H3CHNSH3NHSCH3CH3CH2CH3CH3CHSCHC2H2FeHFeSFeCSH3NSHNFeSCSCS2HFeHC2FeSHCSH3C4H2FeC3H4CH2CSC2H4CHCHC4H3C2H2C2H2CH3CH2NCH2CH6CH2C2H2CSNH2SHCH2C3HSHC2H2SH4CSCFeSHFeSFeSHFeHFeHSC3H2SC3H2S2C2FeH2NCH4CH3CHC2S2HFeCH3CHCSHCHC2H2CH3NH2CHCHCHCSH2S3FeH2CH2CFeHCH2SH2CH5CSFeS2C2Fe2SH2FeS2FeHC2SH3C6H4FeC2HCH3C2SH2CSHC2H3CHCH2SHNH2NH4CHCHC3H2CH2CH4SH2FeH2CH4NH2NHC2SC3HFeSHC2HCH5CSHC2H2Fe3S2C2FeS2HFeCHSHS2HC2FeH2C6H4C2H3SHCSCH3CH3CHSCNCH2C3H4CNH4SHCH3CHCH2CHS
_chemical_formula_sum              "S128 N32 C320 H512 Fe64"
_cell_length_a       30.4335
_cell_length_b       28.5963
_cell_length_c       30.0144
_cell_angle_alpha    89.7672
_cell_angle_beta     90.2133
_cell_angle_gamma    90.3934

_space_group_name_H-M_alt    "P 1"
_space_group_IT_number       1

loop_
  _space_group_symop_operation_xyz
  'x, y, z'

loop_
  _atom_site_type_symbol
  _atom_site_label
  _atom_site_symmetry_multiplicity
  _atom_site_fract_x
  _atom_site_fract_y
  _atom_site_fract_z
  _atom_site_occupancy
  S   S1        1.0  0.24335  0.21803  0.23388  1.0000
  N   N1        1.0  0.13497  0.28802  0.18714  1.0000
  C   C1        1.0  0.33599  0.17729  0.14659  1.0000
  H   H1        1.0  0.15282  0.45703  0.58772  1.0000
  C   C2        1.0  0.28876  0.21777  0.19852  1.0000
  Fe  Fe1       1.0  0.24276  0.46652  0.11385  1.0000
  H   H2        1.0  0.14068  0.23773  0.24030  1.0000
  H   H3        1.0  0.11565  0.62864  0.20577  1.0000
  H   H4        1.0  0.28003  0.57168  0.14600  1.0000
  H   H5        1.0  0.15857  0.21733  0.18718  1.0000
  C   C3        1.0  0.29371  0.47674  0.36586  1.0000
  C   C4        1.0  0.31627  0.25700  0.19641  1.0000
  C   C5        1.0  0.34271  0.60210  0.57014  1.0000
  H   H6        1.0  0.23312  0.44207  0.30965  1.0000
  C   C6        1.0  0.33739  0.48355  0.29897  1.0000
  H   H7        1.0  0.20510  0.28967  0.17819  1.0000
  H   H8        1.0  0.29885  0.23684  0.49088  1.0000
  H   H9        1.0  0.16373  0.41544  0.54443  1.0000
  C   C7        1.0  0.17878  0.30860  0.19619  1.0000
  S   S2        1.0  0.14933  0.58917  0.38213  1.0000
  H   H10       1.0  0.18040  0.34592  0.18592  1.0000
  H   H11       1.0  0.18697  0.30727  0.23237  1.0000
  H   H12       1.0  0.26002  0.47555  0.38032  1.0000
  C   C8        1.0  0.13354  0.23935  0.20389  1.0000
  S   S3        1.0  0.24526  0.55191  0.45540  1.0000
  Fe  Fe2       1.0  0.24227  0.59901  0.51456  1.0000
  C   C9        1.0  0.32939  0.47132  0.51944  1.0000
  H   H13       1.0  0.31935  0.57435  0.56379  1.0000
  C   C10       1.0  0.12649  0.28835  0.13860  1.0000
  C   C11       1.0  0.33638  0.64646  0.55139  1.0000
  C   C12       1.0  0.22613  0.21805  0.53932  1.0000
  H   H14       1.0  0.10729  0.31761  0.24644  1.0000
  N   N2        1.0  0.26753  0.19132  0.53856  1.0000
  C   C13       1.0  0.10355  0.35159  0.56961  1.0000
  H   H15       1.0  0.14478  0.42296  0.34223  1.0000
  H   H16       1.0  0.31906  0.35338  0.50880  1.0000
  C   C14       1.0  0.30936  0.42781  0.51212  1.0000
  S   S4        1.0  0.18492  0.41784  0.11693  1.0000
  H   H17       1.0  0.28276  0.40944  0.30450  1.0000
  C   C15       1.0  0.32527  0.58199  0.20036  1.0000
  C   C16       1.0  0.33446  0.38706  0.51441  1.0000
  S   S5        1.0  0.15209  0.50583  0.49100  1.0000
  C   C17       1.0  0.26730  0.44367  0.29689  1.0000
  S   S6        1.0  0.17176  0.61800  0.50449  1.0000
  C   C18       1.0  0.30440  0.64035  0.25437  1.0000
  Fe  Fe3       1.0  0.22414  0.49582  0.50296  1.0000
  C   C19       1.0  0.14849  0.55122  0.29953  1.0000
  Fe  Fe4       1.0  0.15741  0.55602  0.54795  1.0000
  S   S7        1.0  0.22799  0.54135  0.56359  1.0000
  C   C20       1.0  0.29865  0.17781  0.17381  1.0000
  Fe  Fe5       1.0  0.19120  0.55044  0.14388  1.0000
  S   S8        1.0  0.20264  0.62343  0.16867  1.0000
  S   S9        1.0  0.22981  0.49643  0.18079  1.0000
  Fe  Fe6       1.0  0.17357  0.56656  0.44895  1.0000
  S   S10       1.0  0.12747  0.51087  0.14850  1.0000
  Fe  Fe7       1.0  0.16808  0.45464  0.18039  1.0000
  S   S11       1.0  0.15178  0.42183  0.24619  1.0000
  H   H18       1.0  0.28927  0.55796  0.31908  1.0000
  S   S12       1.0  0.25298  0.42417  0.50027  1.0000
  H   H19       1.0  0.23675  0.52881  0.32011  1.0000
  C   C21       1.0  0.25513  0.62150  0.19313  1.0000
  C   C22       1.0  0.33416  0.60678  0.23937  1.0000
  N   N3        1.0  0.29222  0.48287  0.31692  1.0000
  H   H20       1.0  0.26519  0.44720  0.26002  1.0000
  H   H21       1.0  0.31024  0.50290  0.51758  1.0000
  H   H22       1.0  0.28581  0.40607  0.17955  1.0000
  C   C23       1.0  0.14709  0.54216  0.34519  1.0000
  C   C24       1.0  0.29620  0.20693  0.57559  1.0000
  C   C25       1.0  0.14971  0.51418  0.26940  1.0000
  C   C26       1.0  0.14799  0.46786  0.28449  1.0000
  C   C27       1.0  0.14581  0.45870  0.33027  1.0000
  C   C28       1.0  0.14608  0.49590  0.36069  1.0000
  C   C29       1.0  0.29001  0.19934  0.49562  1.0000
  H   H23       1.0  0.15003  0.58690  0.28742  1.0000
  H   H24       1.0  0.15246  0.52189  0.23452  1.0000
  H   H25       1.0  0.30889  0.28775  0.21585  1.0000
  C   C30       1.0  0.27040  0.52751  0.30593  1.0000
  H   H26       1.0  0.14506  0.48873  0.39599  1.0000
  H   H27       1.0  0.23210  0.25605  0.53370  1.0000
  H   H28       1.0  0.26725  0.53256  0.26924  1.0000
  S   S13       1.0  0.10383  0.22202  0.55762  1.0000
  H   H29       1.0  0.32988  0.37904  0.24444  1.0000
  C   C31       1.0  0.28635  0.59032  0.17668  1.0000
  H   H30       1.0  0.31183  0.50598  0.38224  1.0000
  N   N4        1.0  0.10496  0.40156  0.58212  1.0000
  S   S14       1.0  0.31202  0.44871  0.09631  1.0000
  C   C32       1.0  0.10107  0.31584  0.20990  1.0000
  H   H31       1.0  0.20922  0.21424  0.57195  1.0000
  C   C33       1.0  0.32083  0.41277  0.18068  1.0000
  H   H32       1.0  0.31024  0.44357  0.37548  1.0000
  C   C34       1.0  0.15061  0.41926  0.57882  1.0000
  H   H33       1.0  0.20268  0.20573  0.51320  1.0000
  H   H34       1.0  0.27747  0.14735  0.17559  1.0000
  H   H35       1.0  0.10074  0.35255  0.19734  1.0000
  C   C35       1.0  0.34176  0.43406  0.14434  1.0000
  H   H36       1.0  0.33742  0.49020  0.26232  1.0000
  H   H37       1.0  0.23828  0.63166  0.37704  1.0000
  H   H38       1.0  0.30521  0.24457  0.57227  1.0000
  H   H39       1.0  0.15094  0.26692  0.12047  1.0000
  H   H40       1.0  0.32092  0.17896  0.49365  1.0000
  H   H41       1.0  0.32729  0.18681  0.57670  1.0000
  H   H42       1.0  0.27214  0.64517  0.42460  1.0000
  H   H43       1.0  0.11641  0.34601  0.53536  1.0000
  C   C36       1.0  0.34565  0.39783  0.21752  1.0000
  H   H44       1.0  0.12837  0.32447  0.12470  1.0000
  H   H45       1.0  0.26894  0.18830  0.46704  1.0000
  H   H46       1.0  0.10077  0.22289  0.19815  1.0000
  H   H47       1.0  0.10989  0.38707  0.65236  1.0000
  H   H48       1.0  0.10864  0.22054  0.65271  1.0000
  S   S15       1.0  0.10621  0.55665  0.60137  1.0000
  H   H49       1.0  0.34400  0.29313  0.07910  1.0000
  H   H50       1.0  0.27995  0.20179  0.60845  1.0000
  S   S16       1.0  0.20845  0.52347  0.07627  1.0000
  H   H51       1.0  0.17026  0.63219  0.59976  1.0000
  C   C37       1.0  0.12241  0.18846  0.64042  1.0000
  H   H52       1.0  0.32579  0.36543  0.00220  1.0000
  H   H53       1.0  0.33054  0.35394  0.08220  1.0000
  C   C38       1.0  0.12551  0.18062  0.59465  1.0000
  C   C39       1.0  0.10740  0.61196  0.62675  1.0000
  Fe  Fe8       1.0  0.14891  0.47755  0.08486  1.0000
  C   C40       1.0  0.13765  0.15504  0.67071  1.0000
  H   H54       1.0  0.33325  0.30348  0.99613  1.0000
  H   H55       1.0  0.13559  0.16170  0.70610  1.0000
  S   S17       1.0  0.10048  0.46038  0.03118  1.0000
  C   C41       1.0  0.14245  0.64298  0.61933  1.0000
  H   H56       1.0  0.17312  0.39990  0.60150  1.0000
  H   H57       1.0  0.12356  0.32973  0.59269  1.0000
  H   H58       1.0  0.31161  0.66005  0.28419  1.0000
  S   S18       1.0  0.19604  0.13468  0.32341  1.0000
  C   C42       1.0  0.27824  0.73690  0.41099  1.0000
  H   H59       1.0  0.19039  0.74152  0.41929  1.0000
  S   S19       1.0  0.31807  0.80487  0.32501  1.0000
  C   C43       1.0  0.14428  0.13920  0.57911  1.0000
  C   C44       1.0  0.23045  0.98161  0.46289  1.0000
  H   H60       1.0  0.24077  0.67183  0.24410  1.0000
  C   C45       1.0  0.11020  0.71961  0.18358  1.0000
  N   N5        1.0  0.19269  0.94076  0.13877  1.0000
  H   H61       1.0  0.30969  0.73574  0.39242  1.0000
  H   H62       1.0  0.20212  0.95954  0.45638  1.0000
  H   H63       1.0  0.25046  0.87299  0.31706  1.0000
  C   C46       1.0  0.13075  0.90874  0.25845  1.0000
  H   H64       1.0  0.28572  0.72726  0.44618  1.0000
  H   H65       1.0  0.18255  0.87932  0.17917  1.0000
  H   H66       1.0  0.17927  0.68165  0.40510  1.0000
  N   N6        1.0  0.24520  0.70496  0.39124  1.0000
  H   H67       1.0  0.16434  0.88556  0.09940  1.0000
  H   H68       1.0  0.30357  0.78229  0.55485  1.0000
  C   C47       1.0  0.26461  0.64738  0.23151  1.0000
  H   H69       1.0  0.28827  0.11974  0.54319  1.0000
  S   S20       1.0  0.30906  0.99566  0.21967  1.0000
  C   C48       1.0  0.23486  0.71996  0.34520  1.0000
  C   C49       1.0  0.25774  0.14091  0.54376  1.0000
  H   H70       1.0  0.26677  0.77376  0.41039  1.0000
  S   S21       1.0  0.28411  0.10161  0.41473  1.0000
  H   H71       1.0  0.33012  0.06198  0.48794  1.0000
  C   C50       1.0  0.20628  0.90882  0.17502  1.0000
  C   C51       1.0  0.20485  0.70590  0.41845  1.0000
  S   S22       1.0  0.28975  0.65908  0.51922  1.0000
  C   C52       1.0  0.31480  0.85573  0.29266  1.0000
  H   H72       1.0  0.20971  0.69664  0.32965  1.0000
  H   H73       1.0  0.33538  0.84170  0.44618  1.0000
  H   H74       1.0  0.22215  0.75637  0.34424  1.0000
  H   H75       1.0  0.15731  0.88429  0.26346  1.0000
  C   C53       1.0  0.29424  0.00070  0.50774  1.0000
  C   C54       1.0  0.34588  0.94898  0.39834  1.0000
  H   H76       1.0  0.22864  0.99932  0.16527  1.0000
  S   S23       1.0  0.10543  0.04437  0.28631  1.0000
  C   C55       1.0  0.26288  0.65699  0.39051  1.0000
  C   C56       1.0  0.27361  0.05131  0.44644  1.0000
  H   H77       1.0  0.14611  0.13271  0.54367  1.0000
  C   C57       1.0  0.27763  0.88381  0.29617  1.0000
  S   S24       1.0  0.21054  0.08325  0.22582  1.0000
  H   H78       1.0  0.26460  0.71940  0.32371  1.0000
  H   H79       1.0  0.24110  0.13354  0.57598  1.0000
  H   H80       1.0  0.11734  0.64911  0.12545  1.0000
  Fe  Fe9       1.0  0.25422  0.09396  0.34692  1.0000
  H   H81       1.0  0.21176  0.69518  0.45347  1.0000
  H   H82       1.0  0.15075  0.98077  0.18165  1.0000
  C   C58       1.0  0.31057  0.94088  0.24620  1.0000
  C   C59       1.0  0.30201  0.04019  0.48138  1.0000
  H   H83       1.0  0.23930  0.89368  0.16881  1.0000
  H   H84       1.0  0.20818  0.92753  0.20733  1.0000
  H   H85       1.0  0.30693  0.86570  0.39884  1.0000
  C   C60       1.0  0.23767  0.02206  0.43717  1.0000
  H   H86       1.0  0.33091  0.94015  0.36544  1.0000
  C   C61       1.0  0.27544  0.92606  0.27270  1.0000
  H   H87       1.0  0.31604  0.99282  0.53528  1.0000
  H   H88       1.0  0.25905  0.96434  0.12725  1.0000
  S   S25       1.0  0.24750  0.92495  0.53474  1.0000
  C   C62       1.0  0.25846  0.97146  0.49861  1.0000
  H   H89       1.0  0.16277  0.96419  0.29458  1.0000
  C   C63       1.0  0.22576  0.97855  0.13407  1.0000
  H   H90       1.0  0.21455  0.03133  0.41131  1.0000
  H   H91       1.0  0.24610  0.94665  0.27457  1.0000
  Fe  Fe10      1.0  0.17573  0.06783  0.29001  1.0000
  S   S26       1.0  0.23044  0.02578  0.31964  1.0000
  H   H92       1.0  0.31739  0.83473  0.58494  1.0000
  S   S27       1.0  0.29629  0.11063  0.28794  1.0000
  C   C64       1.0  0.13407  0.95413  0.27575  1.0000
  Fe  Fe11      1.0  0.26703  0.04594  0.25783  1.0000
  C   C65       1.0  0.14958  0.96128  0.14957  1.0000
  H   H93       1.0  0.21713  0.00311  0.10664  1.0000
  H   H94       1.0  0.14429  0.70578  0.18170  1.0000
  H   H95       1.0  0.29287  0.65491  0.36951  1.0000
  H   H96       1.0  0.23611  0.12772  0.51646  1.0000
  H   H97       1.0  0.10761  0.74881  0.15910  1.0000
  H   H98       1.0  0.29985  0.89118  0.45274  1.0000
  C   C66       1.0  0.32440  0.87483  0.43027  1.0000
  H   H99       1.0  0.10586  0.73506  0.21726  1.0000
  H   H100      1.0  0.13843  0.98600  0.12324  1.0000
  H   H101      1.0  0.32022  0.96699  0.41803  1.0000
  H   H102      1.0  0.12383  0.93369  0.15295  1.0000
  C   C67       1.0  0.31300  0.79613  0.58815  1.0000
  C   C68       1.0  0.10015  0.98618  0.26873  1.0000
  H   H103      1.0  0.22522  0.79266  0.57721  1.0000
  C   C69       1.0  0.18909  0.91436  0.09665  1.0000
  C   C70       1.0  0.34727  0.91206  0.24156  1.0000
  Fe  Fe12      1.0  0.23610  0.14613  0.26202  1.0000
  H   H104      1.0  0.34363  0.14639  0.12750  1.0000
  H   H105      1.0  0.14026  0.88803  0.83603  1.0000
  H   H106      1.0  0.16844  0.71224  0.63102  1.0000
  H   H107      1.0  0.12153  0.83642  0.86487  1.0000
  S   S28       1.0  0.26480  0.03553  0.60991  1.0000
  H   H108      1.0  0.34573  0.78136  0.59685  1.0000
  H   H109      1.0  0.32666  0.78687  0.67610  1.0000
  H   H110      1.0  0.22104  0.89836  0.08751  1.0000
  H   H111      1.0  0.21842  0.79742  0.79912  1.0000
  H   H112      1.0  0.17667  0.82539  0.73442  1.0000
  S   S29       1.0  0.17099  0.07083  0.69454  1.0000
  C   C71       1.0  0.12535  0.85273  0.83131  1.0000
  H   H113      1.0  0.29886  0.83100  0.82944  1.0000
  H   H114      1.0  0.17225  0.07263  0.59768  1.0000
  C   C72       1.0  0.14165  0.68820  0.63742  1.0000
  C   C73       1.0  0.27469  0.73257  0.62470  1.0000
  Fe  Fe13      1.0  0.27326  0.93678  0.69850  1.0000
  H   H115      1.0  0.17147  0.88165  0.75992  1.0000
  H   H116      1.0  0.19543  0.80042  0.85423  1.0000
  Fe  Fe14      1.0  0.32159  0.01817  0.65431  1.0000
  C   C74       1.0  0.15607  0.84630  0.75745  1.0000
  N   N7        1.0  0.27981  0.78397  0.62220  1.0000
  N   N8        1.0  0.15238  0.82355  0.80164  1.0000
  H   H117      1.0  0.12836  0.75862  0.82920  1.0000
  S   S30       1.0  0.21242  0.94701  0.65769  1.0000
  H   H118      1.0  0.29842  0.84055  0.66519  1.0000
  C   C75       1.0  0.15554  0.11325  0.65546  1.0000
  H   H119      1.0  0.24009  0.84423  0.60767  1.0000
  Fe  Fe15      1.0  0.22364  0.02319  0.67044  1.0000
  C   C76       1.0  0.32648  0.83611  0.80738  1.0000
  H   H120      1.0  0.21142  0.79714  0.63517  1.0000
  C   C77       1.0  0.32140  0.86156  0.76777  1.0000
  H   H121      1.0  0.15070  0.75431  0.77386  1.0000
  Fe  Fe16      1.0  0.25941  0.95753  0.60135  1.0000
  S   S31       1.0  0.26949  0.88214  0.75232  1.0000
  C   C78       1.0  0.15912  0.10530  0.60961  1.0000
  S   S32       1.0  0.31990  0.94099  0.64062  1.0000
  S   S33       1.0  0.28080  0.01221  0.71612  1.0000
  H   H122      1.0  0.27034  0.79351  0.69264  1.0000
  H   H123      1.0  0.17861  0.93729  0.06854  1.0000
  H   H124      1.0  0.25061  0.72203  0.65075  1.0000
  S   S34       1.0  0.10429  0.76010  0.68365  1.0000
  H   H125      1.0  0.21309  0.85279  0.82600  1.0000
  C   C79       1.0  0.19671  0.81818  0.82122  1.0000
  H   H126      1.0  0.12340  0.85023  0.74117  1.0000
  C   C80       1.0  0.29445  0.80188  0.66593  1.0000
  H   H127      1.0  0.30648  0.71525  0.63268  1.0000
  H   H128      1.0  0.26283  0.71792  0.59249  1.0000
  C   C81       1.0  0.13151  0.77701  0.79662  1.0000
  C   C82       1.0  0.10566  0.70266  0.66270  1.0000
  C   C83       1.0  0.23728  0.80539  0.61008  1.0000
  H   H129      1.0  0.09791  0.77979  0.78207  1.0000
  C   C84       1.0  0.37438  0.47407  0.52949  1.0000
  C   C85       1.0  0.56507  0.40993  0.34891  1.0000
  C   C86       1.0  0.50013  0.36223  0.35943  1.0000
  C   C87       1.0  0.56655  0.22232  0.32581  1.0000
  C   C88       1.0  0.42594  0.17461  0.58942  1.0000
  C   C89       1.0  0.46659  0.57941  0.12133  1.0000
  S   S35       1.0  0.46465  0.30474  0.58728  1.0000
  H   H130      1.0  0.53584  0.63783  0.58872  1.0000
  C   C90       1.0  0.51718  0.42414  0.41130  1.0000
  C   C91       1.0  0.59141  0.27951  0.39713  1.0000
  H   H131      1.0  0.44228  0.58030  0.09356  1.0000
  H   H132      1.0  0.39851  0.35812  0.52667  1.0000
  H   H133      1.0  0.45784  0.44231  0.34563  1.0000
  H   H134      1.0  0.56784  0.39746  0.31393  1.0000
  H   H135      1.0  0.53082  0.45997  0.41605  1.0000
  H   H136      1.0  0.58568  0.38665  0.37005  1.0000
  S   S36       1.0  0.41896  0.20773  0.50364  1.0000
  C   C92       1.0  0.39118  0.40490  0.21826  1.0000
  H   H137      1.0  0.37646  0.28556  0.17073  1.0000
  C   C93       1.0  0.43492  0.16635  0.33302  1.0000
  S   S37       1.0  0.45558  0.43683  0.54482  1.0000
  H   H138      1.0  0.47012  0.15308  0.19064  1.0000
  C   C94       1.0  0.37423  0.22016  0.33610  1.0000
  N   N9        1.0  0.47485  0.62668  0.13944  1.0000
  H   H139      1.0  0.36215  0.18259  0.41709  1.0000
  H   H140      1.0  0.39024  0.24440  0.31188  1.0000
  C   C95       1.0  0.56402  0.48533  0.13009  1.0000
  C   C96       1.0  0.59505  0.26016  0.31875  1.0000
  N   N10       1.0  0.40707  0.19437  0.36289  1.0000
  H   H141      1.0  0.45904  0.20948  0.40953  1.0000
  C   C97       1.0  0.39939  0.43329  0.53214  1.0000
  C   C98       1.0  0.35448  0.25574  0.17071  1.0000
  H   H142      1.0  0.51273  0.56700  0.48741  1.0000
  S   S38       1.0  0.38266  0.59609  0.26917  1.0000
  H   H143      1.0  0.45325  0.18900  0.30914  1.0000
  C   C99       1.0  0.41187  0.42704  0.18232  1.0000
  C   C100      1.0  0.38722  0.44142  0.14532  1.0000
  S   S39       1.0  0.41311  0.21409  0.11518  1.0000
  S   S40       1.0  0.53977  0.24460  0.53209  1.0000
  Fe  Fe17      1.0  0.46846  0.26230  0.52453  1.0000
  C   C101      1.0  0.53797  0.59506  0.48336  1.0000
  Fe  Fe18      1.0  0.55222  0.31035  0.49370  1.0000
  S   S41       1.0  0.55612  0.35635  0.55350  1.0000
  Fe  Fe19      1.0  0.54145  0.31746  0.15992  1.0000
  S   S42       1.0  0.53974  0.32313  0.23450  1.0000
  Fe  Fe20      1.0  0.46097  0.25618  0.15483  1.0000
  Fe  Fe21      1.0  0.46741  0.33233  0.22404  1.0000
  Fe  Fe22      1.0  0.52414  0.24627  0.23171  1.0000
  H   H144      1.0  0.51185  0.58439  0.56894  1.0000
  S   S43       1.0  0.47031  0.33346  0.14935  1.0000
  S   S44       1.0  0.53242  0.23945  0.15821  1.0000
  H   H145      1.0  0.45351  0.55527  0.14739  1.0000
  H   H146      1.0  0.49258  0.60185  0.20477  1.0000
  C   C102      1.0  0.59497  0.50717  0.10223  1.0000
  H   H147      1.0  0.50088  0.35029  0.32420  1.0000
  C   C103      1.0  0.55170  0.21206  0.36877  1.0000
  C   C104      1.0  0.56337  0.24127  0.40431  1.0000
  C   C105      1.0  0.56356  0.43645  0.13498  1.0000
  H   H148      1.0  0.53017  0.18245  0.37436  1.0000
  H   H149      1.0  0.55050  0.23421  0.43713  1.0000
  H   H150      1.0  0.53959  0.41976  0.15639  1.0000
  H   H151      1.0  0.49731  0.56393  0.10796  1.0000
  C   C106      1.0  0.36422  0.21604  0.14554  1.0000
  H   H152      1.0  0.46524  0.36092  0.37038  1.0000
  H   H153      1.0  0.35278  0.19590  0.31668  1.0000
  H   H154      1.0  0.46229  0.62682  0.52103  1.0000
  S   S45       1.0  0.45172  0.25621  0.22851  1.0000
  H   H155      1.0  0.45362  0.25134  0.36506  1.0000
  Fe  Fe23      1.0  0.48389  0.36487  0.54303  1.0000
  S   S46       1.0  0.48123  0.32382  0.47974  1.0000
  H   H156      1.0  0.51876  0.33643  0.37978  1.0000
  H   H157      1.0  0.53455  0.60991  0.44914  1.0000
  S   S47       1.0  0.42316  0.38067  0.26099  1.0000
  S   S48       1.0  0.54520  0.19171  0.28034  1.0000
  S   S49       1.0  0.59424  0.56822  0.09525  1.0000
  H   H158      1.0  0.54052  0.50613  0.14803  1.0000
  N   N11       1.0  0.51888  0.40981  0.36403  1.0000
  H   H159      1.0  0.40342  0.45810  0.11739  1.0000
  C   C107      1.0  0.50609  0.62363  0.17716  1.0000
  H   H160      1.0  0.48289  0.42384  0.42421  1.0000
  C   C108      1.0  0.37945  0.38978  0.52447  1.0000
  H   H161      1.0  0.53680  0.40016  0.43285  1.0000
  C   C109      1.0  0.41097  0.16608  0.54618  1.0000
  H   H162      1.0  0.41473  0.25006  0.41032  1.0000
  H   H163      1.0  0.44712  0.43232  0.18266  1.0000
  H   H164      1.0  0.50557  0.47936  0.33997  1.0000
  N   N12       1.0  0.53288  0.63176  0.51742  1.0000
  H   H165      1.0  0.41812  0.62506  0.18200  1.0000
  H   H166      1.0  0.49508  0.43369  0.30041  1.0000
  C   C110      1.0  0.53800  0.61084  0.56220  1.0000
  H   H167      1.0  0.38968  0.50777  0.53535  1.0000
  C   C111      1.0  0.43483  0.22791  0.38788  1.0000
  H   H168      1.0  0.53784  0.60799  0.16663  1.0000
  C   C112      1.0  0.49325  0.44283  0.33641  1.0000
  H   H169      1.0  0.57098  0.57853  0.48572  1.0000
  S   S50       1.0  0.59434  0.34825  0.11737  1.0000
  H   H170      1.0  0.34845  0.55654  0.18819  1.0000
  H   H171      1.0  0.57039  0.59337  0.56586  1.0000
  H   H172      1.0  0.57990  0.44556  0.35056  1.0000
  C   C113      1.0  0.38428  0.16290  0.39459  1.0000
  H   H173      1.0  0.35442  0.44978  0.30493  1.0000
  H   H174      1.0  0.37994  0.33325  0.10754  1.0000
  H   H175      1.0  0.35233  0.24132  0.35761  1.0000
  H   H176      1.0  0.35761  0.51169  0.31450  1.0000
  C   C114      1.0  0.59425  0.40941  0.11220  1.0000
  H   H177      1.0  0.52568  0.64289  0.09211  1.0000
  H   H178      1.0  0.49446  0.15128  0.11181  1.0000
  Fe  Fe24      1.0  0.53722  0.29174  0.59151  1.0000
  H   H179      1.0  0.47897  0.43065  0.71000  1.0000
  N   N13       1.0  0.50458  0.48601  0.66872  1.0000
  C   C115      1.0  0.41542  0.30093  0.02987  1.0000
  H   H180      1.0  0.46453  0.51453  0.61614  1.0000
  H   H181      1.0  0.56366  0.52246  0.68812  1.0000
  H   H182      1.0  0.38048  0.41268  0.04278  1.0000
  C   C116      1.0  0.46118  0.49714  0.64923  1.0000
  H   H183      1.0  0.51390  0.55450  0.69686  1.0000
  H   H184      1.0  0.43458  0.30648  0.99878  1.0000
  H   H185      1.0  0.51573  0.20210  0.61713  1.0000
  H   H186      1.0  0.44238  0.52127  0.67095  1.0000
  H   H187      1.0  0.53372  0.46965  0.60553  1.0000
  N   N14       1.0  0.38231  0.33790  0.03616  1.0000
  C   C117      1.0  0.57608  0.20934  0.65368  1.0000
  S   S51       1.0  0.57495  0.27062  0.65256  1.0000
  H   H188      1.0  0.53511  0.54788  0.64174  1.0000
  H   H189      1.0  0.44091  0.46504  0.64402  1.0000
  C   C118      1.0  0.52811  0.45371  0.63895  1.0000
  C   C119      1.0  0.54320  0.18401  0.63173  1.0000
  H   H190      1.0  0.43917  0.29990  0.05815  1.0000
  S   S52       1.0  0.45311  0.62115  0.64400  1.0000
  H   H191      1.0  0.48138  0.48715  0.73627  1.0000
  C   C120      1.0  0.53049  0.52958  0.67408  1.0000
  C   C121      1.0  0.35099  0.33758  0.99841  1.0000
  C   C122      1.0  0.49854  0.46354  0.71273  1.0000
  H   H192      1.0  0.36802  0.34379  0.96615  1.0000
  C   C123      1.0  0.35816  0.32911  0.07803  1.0000
  H   H193      1.0  0.39979  0.26563  0.02805  1.0000
  H   H194      1.0  0.56064  0.44382  0.65309  1.0000
  C   C124      1.0  0.40458  0.38396  0.03840  1.0000
  H   H195      1.0  0.44330  0.20660  0.59684  1.0000
  H   H196      1.0  0.53073  0.45443  0.72820  1.0000
  H   H197      1.0  0.50903  0.42081  0.63361  1.0000
  H   H198      1.0  0.42798  0.38571  0.06697  1.0000
  H   H199      1.0  0.42347  0.39158  0.00752  1.0000
  H   H200      1.0  0.38368  0.55960  0.61267  1.0000
  H   H201      1.0  0.42999  0.14868  0.65684  1.0000
  C   C125      1.0  0.40893  0.63000  0.60718  1.0000
  C   C126      1.0  0.37923  0.59374  0.59777  1.0000
  H   H202      1.0  0.43805  0.68254  0.16865  1.0000
  H   H203      1.0  0.36293  0.71602  0.54408  1.0000
  H   H204      1.0  0.38710  0.79691  0.49828  1.0000
  H   H205      1.0  0.48606  0.02265  0.12378  1.0000
  H   H206      1.0  0.37806  0.84756  0.26158  1.0000
  S   S53       1.0  0.39225  0.70187  0.35406  1.0000
  H   H207      1.0  0.53042  0.92039  0.23769  1.0000
  C   C127      1.0  0.53083  0.08975  0.16870  1.0000
  S   S54       1.0  0.38781  0.72620  0.24672  1.0000
  Fe  Fe25      1.0  0.37887  0.76421  0.31076  1.0000
  C   C128      1.0  0.46748  0.04255  0.14931  1.0000
  H   H208      1.0  0.50032  0.69293  0.11681  1.0000
  C   C129      1.0  0.45793  0.11656  0.18648  1.0000
  H   H209      1.0  0.41761  0.75760  0.43163  1.0000
  C   C130      1.0  0.42222  0.79289  0.49484  1.0000
  H   H210      1.0  0.40796  0.14386  0.41634  1.0000
  Fe  Fe26      1.0  0.40746  0.66619  0.28997  1.0000
  C   C131      1.0  0.40289  0.67397  0.58754  1.0000
  H   H211      1.0  0.53428  0.07074  0.20097  1.0000
  H   H212      1.0  0.45899  0.09927  0.21974  1.0000
  H   H213      1.0  0.37437  0.92303  0.22064  1.0000
  C   C132      1.0  0.56691  0.66824  0.51074  1.0000
  H   H214      1.0  0.47062  0.02275  0.18119  1.0000
  H   H215      1.0  0.44728  0.11656  0.09770  1.0000
  H   H216      1.0  0.37699  0.11819  0.50348  1.0000
  C   C133      1.0  0.38256  0.91997  0.46450  1.0000
  H   H217      1.0  0.35860  0.93693  0.48703  1.0000
  H   H218      1.0  0.54451  0.12561  0.17339  1.0000
  H   H219      1.0  0.41043  0.94481  0.45952  1.0000
  H   H220      1.0  0.51740  0.81223  0.10950  1.0000
  S   S55       1.0  0.55964  0.96897  0.15939  1.0000
  H   H221      1.0  0.42352  0.90593  0.38673  1.0000
  H   H222      1.0  0.55201  0.07142  0.14425  1.0000
  H   H223      1.0  0.37290  0.97456  0.39221  1.0000
  N   N15       1.0  0.36189  0.90670  0.42166  1.0000
  C   C134      1.0  0.38763  0.12489  0.53716  1.0000
  H   H224      1.0  0.48478  0.68267  0.53629  1.0000
  C   C135      1.0  0.53447  0.88190  0.13077  1.0000
  Fe  Fe27      1.0  0.45833  0.74796  0.25230  1.0000
  H   H225      1.0  0.36008  0.06103  0.56461  1.0000
  S   S56       1.0  0.49352  0.76186  0.18805  1.0000
  H   H226      1.0  0.42288  0.11872  0.17582  1.0000
  H   H227      1.0  0.36385  0.13636  0.37689  1.0000
  S   S57       1.0  0.44759  0.79282  0.31263  1.0000
  C   C136      1.0  0.45034  0.80786  0.52904  1.0000
  H   H228      1.0  0.43221  0.04202  0.13938  1.0000
  C   C137      1.0  0.52723  0.89694  0.20965  1.0000
  C   C138      1.0  0.48476  0.76268  0.45415  1.0000
  C   C139      1.0  0.51279  0.77880  0.48782  1.0000
  C   C140      1.0  0.49564  0.80157  0.52504  1.0000
  C   C141      1.0  0.51257  0.85086  0.21638  1.0000
  H   H229      1.0  0.54787  0.77357  0.48526  1.0000
  H   H230      1.0  0.51759  0.81391  0.55097  1.0000
  C   C142      1.0  0.43946  0.77038  0.45730  1.0000
  C   C143      1.0  0.50937  0.82020  0.18033  1.0000
  C   C144      1.0  0.52029  0.83576  0.13753  1.0000
  H   H231      1.0  0.50474  0.83886  0.24956  1.0000
  H   H232      1.0  0.40696  0.85050  0.40958  1.0000
  S   S58       1.0  0.47886  0.68462  0.29082  1.0000
  S   S59       1.0  0.50672  0.73013  0.41020  1.0000
  S   S60       1.0  0.42896  0.83031  0.57862  1.0000
  Fe  Fe28      1.0  0.46201  0.72719  0.35091  1.0000
  C   C145      1.0  0.53864  0.91231  0.16688  1.0000
  C   C146      1.0  0.39461  0.88299  0.39348  1.0000
  C   C147      1.0  0.34942  0.86944  0.26485  1.0000
  C   C148      1.0  0.49381  0.65692  0.10425  1.0000
  H   H233      1.0  0.54147  0.89398  0.09753  1.0000
  H   H234      1.0  0.38033  0.87289  0.36072  1.0000
  N   N16       1.0  0.48452  0.09089  0.15361  1.0000
  H   H235      1.0  0.51362  0.65891  0.19099  1.0000
  C   C149      1.0  0.48184  0.11473  0.10990  1.0000
  C   C150      1.0  0.37824  0.09277  0.57155  1.0000
  C   C151      1.0  0.36706  0.68201  0.55933  1.0000
  H   H236      1.0  0.39561  0.88890  0.48257  1.0000
  C   C152      1.0  0.48873  0.65265  0.51329  1.0000
  H   H237      1.0  0.48261  0.66601  0.47902  1.0000
  H   H238      1.0  0.45973  0.14596  0.35214  1.0000
  H   H239      1.0  0.56464  0.69626  0.53627  1.0000
  H   H240      1.0  0.56365  0.68520  0.47744  1.0000
  H   H241      1.0  0.40847  0.64940  0.12763  1.0000
  Fe  Fe29      1.0  0.59587  0.97872  0.09495  1.0000
  H   H242      1.0  0.41493  0.14112  0.31321  1.0000
  C   C153      1.0  0.43302  0.64675  0.15506  1.0000
  C   C154      1.0  0.40272  0.82204  0.78908  1.0000
  H   H243      1.0  0.56271  0.81209  0.89870  1.0000
  H   H244      1.0  0.51764  0.91838  0.65583  1.0000
  H   H245      1.0  0.56184  0.72842  0.87489  1.0000
  S   S61       1.0  0.58541  0.05102  0.64044  1.0000
  S   S62       1.0  0.42582  0.74755  0.68011  1.0000
  C   C155      1.0  0.48529  0.02387  0.69524  1.0000
  H   H246      1.0  0.42476  0.85159  0.72692  1.0000
  C   C156      1.0  0.39767  0.84782  0.74977  1.0000
  C   C157      1.0  0.36741  0.81690  0.81839  1.0000
  H   H247      1.0  0.43825  0.91982  0.66664  1.0000
  H   H248      1.0  0.48656  0.91199  0.73384  1.0000
  Fe  Fe30      1.0  0.47436  0.77154  0.73149  1.0000
  Fe  Fe31      1.0  0.55161  0.76099  0.67260  1.0000
  H   H249      1.0  0.52703  0.74316  0.82863  1.0000
  H   H250      1.0  0.43580  0.97502  0.63792  1.0000
  H   H251      1.0  0.52019  0.11601  0.61122  1.0000
  H   H252      1.0  0.57776  0.85679  0.85931  1.0000
  S   S63       1.0  0.57728  0.03665  0.04823  1.0000
  S   S64       1.0  0.52054  0.71183  0.72170  1.0000
  H   H253      1.0  0.41269  0.96933  0.69247  1.0000
  C   C158      1.0  0.58382  0.96730  0.84558  1.0000
  C   C159      1.0  0.41786  0.14198  0.62350  1.0000
  C   C160      1.0  0.44066  0.95837  0.67118  1.0000
  Fe  Fe32      1.0  0.47563  0.69259  0.66511  1.0000
  N   N17       1.0  0.58478  0.78650  0.83533  1.0000
  S   S65       1.0  0.38343  0.06144  0.65840  1.0000
  S   S66       1.0  0.50866  0.82234  0.68622  1.0000
  S   S67       1.0  0.45202  0.79289  0.79893  1.0000
  C   C161      1.0  0.35732  0.86831  0.73958  1.0000
  C   C162      1.0  0.39347  0.10131  0.61481  1.0000
  Fe  Fe33      1.0  0.46475  0.79240  0.63330  1.0000
  H   H254      1.0  0.45838  0.03725  0.71663  1.0000
  H   H255      1.0  0.48197  0.04144  0.66217  1.0000
  C   C163      1.0  0.58163  0.11173  0.64687  1.0000
  S   S68       1.0  0.55582  0.97999  0.93101  1.0000
  H   H256      1.0  0.51714  0.03575  0.70976  1.0000
  N   N18       1.0  0.48327  0.97237  0.69103  1.0000
  C   C164      1.0  0.51934  0.95660  0.66200  1.0000
  C   C165      1.0  0.56215  0.82172  0.86275  1.0000
  H   H257      1.0  0.55598  0.98832  0.83565  1.0000
  H   H258      1.0  0.51953  0.96085  0.75167  1.0000
  H   H259      1.0  0.51822  0.97445  0.62894  1.0000
  C   C166      1.0  0.48781  0.95080  0.73565  1.0000
  H   H260      1.0  0.46089  0.96194  0.75822  1.0000
  H   H261      1.0  0.52706  0.82538  0.85267  1.0000
  S   S69       1.0  0.51162  0.73579  0.61503  1.0000
  H   H262      1.0  0.55206  0.96457  0.67693  1.0000
  C   C167      1.0  0.54574  0.13529  0.62855  1.0000
  C   C168      1.0  0.56186  0.74097  0.83972  1.0000
  H   H263      1.0  0.37127  0.79664  0.84866  1.0000
  H   H264      1.0  0.55011  0.80631  0.77596  1.0000
  C   C169      1.0  0.59063  0.95687  0.89067  1.0000
  H   H265      1.0  0.57788  0.71351  0.81943  1.0000
  H   H266      1.0  0.35382  0.88799  0.70921  1.0000
  H   H267      1.0  0.47133  0.65992  0.07510  1.0000
  C   C170      1.0  0.58434  0.80161  0.78818  1.0000
  H   H268      1.0  0.42585  0.70204  0.59377  1.0000
  Fe  Fe34      1.0  0.59401  0.98560  0.99456  1.0000
  H   H269      1.0  0.50137  0.09625  0.08421  1.0000
  H   H270      1.0  0.63274  0.25894  0.14763  1.0000
  H   H271      1.0  0.67400  0.23048  0.18082  1.0000
  H   H272      1.0  0.63989  0.20701  0.57943  1.0000
  C   C171      1.0  0.60815  0.28825  0.35457  1.0000
  C   C172      1.0  0.73608  0.22855  0.11740  1.0000
  H   H273      1.0  0.63024  0.31747  0.34899  1.0000
  H   H274      1.0  0.67510  0.33142  0.56819  1.0000
  H   H275      1.0  0.78965  0.16711  0.57724  1.0000
  C   C173      1.0  0.67536  0.25731  0.51238  1.0000
  H   H276      1.0  0.74649  0.29939  0.54841  1.0000
  N   N19       1.0  0.68840  0.25810  0.55986  1.0000
  S   S70       1.0  0.67048  0.58023  0.56589  1.0000
  H   H277      1.0  0.68108  0.32884  0.13932  1.0000
  H   H278      1.0  0.63934  0.25154  0.50848  1.0000
  H   H279      1.0  0.72202  0.30059  0.17293  1.0000
  N   N20       1.0  0.69707  0.25903  0.11869  1.0000
  H   H280      1.0  0.68336  0.29106  0.49548  1.0000
  S   S71       1.0  0.60236  0.31900  0.44010  1.0000
  C   C174      1.0  0.66252  0.23664  0.14607  1.0000
  H   H281      1.0  0.62947  0.29311  0.57936  1.0000
  H   H282      1.0  0.69223  0.22895  0.49399  1.0000
  H   H283      1.0  0.65232  0.20223  0.13189  1.0000
  C   C175      1.0  0.70945  0.30462  0.13833  1.0000
  H   H284      1.0  0.75069  0.22378  0.15109  1.0000
  H   H285      1.0  0.75486  0.23730  0.54621  1.0000
  H   H286      1.0  0.73547  0.32241  0.11854  1.0000
  C   C176      1.0  0.73641  0.26531  0.56345  1.0000
  H   H287      1.0  0.81913  0.31864  0.58000  1.0000
  H   H288      1.0  0.60705  0.26773  0.28560  1.0000
  C   C177      1.0  0.67606  0.21322  0.58118  1.0000
  H   H289      1.0  0.69241  0.18309  0.56497  1.0000
  H   H290      1.0  0.72752  0.19324  0.10445  1.0000
  H   H291      1.0  0.76208  0.24354  0.09536  1.0000
  C   C178      1.0  0.66567  0.29679  0.58247  1.0000
  H   H292      1.0  0.62596  0.58984  0.74444  1.0000
  H   H293      1.0  0.78925  0.29655  0.69223  1.0000
  H   H294      1.0  0.73659  0.49197  0.04377  1.0000
  C   C179      1.0  0.83216  0.29565  0.79717  1.0000
  H   H295      1.0  0.72713  0.20090  0.01692  1.0000
  S   S72       1.0  0.75163  0.36898  0.62678  1.0000
  C   C180      1.0  0.75718  0.46639  0.02772  1.0000
  H   H296      1.0  0.82161  0.33112  0.80758  1.0000
  C   C181      1.0  0.75629  0.41964  0.04208  1.0000
  C   C182      1.0  0.62374  0.61614  0.85506  1.0000
  H   H297      1.0  0.60723  0.56715  0.90706  1.0000
  H   H298      1.0  0.65189  0.29044  0.07229  1.0000
  Fe  Fe35      1.0  0.72510  0.43797  0.64876  1.0000
  H   H299      1.0  0.59854  0.49988  0.85600  1.0000
  Fe  Fe36      1.0  0.69294  0.53331  0.62122  1.0000
  S   S73       1.0  0.69820  0.56191  0.69054  1.0000
  Fe  Fe37      1.0  0.66663  0.49410  0.71020  1.0000
  C   C183      1.0  0.78928  0.56151  0.86112  1.0000
  S   S74       1.0  0.65724  0.46748  0.64044  1.0000
  H   H300      1.0  0.73500  0.40921  0.06920  1.0000
  H   H301      1.0  0.65005  0.49663  0.05866  1.0000
  H   H302      1.0  0.70189  0.53450  0.79559  1.0000
  N   N21       1.0  0.75184  0.53235  0.84609  1.0000
  S   S75       1.0  0.66309  0.56492  0.98222  1.0000
  H   H303      1.0  0.73677  0.50388  0.91073  1.0000
  N   N22       1.0  0.83346  0.29145  0.74812  1.0000
  Fe  Fe38      1.0  0.73326  0.58059  0.00027  1.0000
  S   S76       1.0  0.78676  0.32986  0.04327  1.0000
  C   C184      1.0  0.72114  0.52415  0.88336  1.0000
  S   S77       1.0  0.71830  0.60296  0.07002  1.0000
  C   C185      1.0  0.78598  0.48012  0.99384  1.0000
  S   S78       1.0  0.79106  0.53875  0.97821  1.0000
  S   S79       1.0  0.82163  0.55039  0.72852  1.0000
  H   H304      1.0  0.80221  0.20369  0.98916  1.0000
  Fe  Fe39      1.0  0.64752  0.59508  0.04938  1.0000
  H   H305      1.0  0.81039  0.43320  0.67170  1.0000
  C   C186      1.0  0.81227  0.44701  0.97287  1.0000
  C   C187      1.0  0.61205  0.57208  0.87175  1.0000
  Fe  Fe40      1.0  0.76144  0.52291  0.69421  1.0000
  S   S80       1.0  0.73067  0.45735  0.72060  1.0000
  H   H306      1.0  0.70953  0.55774  0.89753  1.0000
  C   C188      1.0  0.74579  0.16903  0.01510  1.0000
  S   S81       1.0  0.75995  0.50164  0.62270  1.0000
  H   H307      1.0  0.69160  0.50405  0.87240  1.0000
  H   H308      1.0  0.74067  0.46385  0.81917  1.0000
  H   H309      1.0  0.70573  0.28144  0.05074  1.0000
  C   C189      1.0  0.63120  0.63171  0.63030  1.0000
  C   C190      1.0  0.72841  0.55681  0.80981  1.0000
  C   C191      1.0  0.62228  0.58465  0.77990  1.0000
  C   C192      1.0  0.62746  0.62270  0.80892  1.0000
  H   H310      1.0  0.76474  0.27411  0.74232  1.0000
  H   H311      1.0  0.78663  0.46813  0.85662  1.0000
  Fe  Fe41      1.0  0.66172  0.63939  0.95842  1.0000
  C   C193      1.0  0.68017  0.26613  0.07292  1.0000
  C   C194      1.0  0.81147  0.40044  0.98725  1.0000
  C   C195      1.0  0.76825  0.48697  0.82998  1.0000
  H   H312      1.0  0.81185  0.56995  0.83300  1.0000
  H   H313      1.0  0.80893  0.54328  0.88710  1.0000
  H   H314      1.0  0.77733  0.33555  0.73697  1.0000
  H   H315      1.0  0.63678  0.20524  0.69057  1.0000
  C   C196      1.0  0.81794  0.61893  0.66492  1.0000
  H   H316      1.0  0.64932  0.41044  0.06724  1.0000
  H   H317      1.0  0.71342  0.58980  0.82179  1.0000
  C   C197      1.0  0.62548  0.43126  0.08484  1.0000
  S   S82       1.0  0.61370  0.49059  0.76228  1.0000
  C   C198      1.0  0.78418  0.38694  0.02247  1.0000
  C   C199      1.0  0.83448  0.34606  0.59934  1.0000
  H   H318      1.0  0.79485  0.59670  0.64740  1.0000
  H   H319      1.0  0.66878  0.23261  0.05795  1.0000
  H   H320      1.0  0.75072  0.56637  0.78207  1.0000
  H   H321      1.0  0.79079  0.49178  0.80117  1.0000
  C   C200      1.0  0.78853  0.17056  0.99871  1.0000
  H   H322      1.0  0.67360  0.29776  0.61872  1.0000
  C   C201      1.0  0.61130  0.18573  0.67345  1.0000
  H   H323      1.0  0.80912  0.26969  0.81219  1.0000
  C   C202      1.0  0.61299  0.54002  0.79692  1.0000
  C   C203      1.0  0.80727  0.15976  0.60777  1.0000
  C   C204      1.0  0.78922  0.29975  0.72924  1.0000
  C   C205      1.0  0.80898  0.37579  0.62533  1.0000
  H   H324      1.0  0.61896  0.59878  0.64324  1.0000
  H   H325      1.0  0.77791  0.59505  0.87566  1.0000
  H   H326      1.0  0.83206  0.37497  0.97117  1.0000
  C   C206      1.0  0.60642  0.53415  0.84272  1.0000
  C   C207      1.0  0.82953  0.41096  0.65042  1.0000
  H   H327      1.0  0.68541  0.21272  0.61708  1.0000
  H   H328      1.0  0.74734  0.26587  0.59890  1.0000
  C   C208      1.0  0.83500  0.60513  0.70624  1.0000
  C   C209      1.0  0.62586  0.48006  0.07986  1.0000
  H   H329      1.0  0.82567  0.21653  0.74980  1.0000
  H   H330      1.0  0.83359  0.45748  0.94583  1.0000
  C   C210      1.0  0.65684  0.63270  0.59177  1.0000
  H   H331      1.0  0.67438  0.75017  0.58403  1.0000
  H   H332      1.0  0.69200  0.67612  0.54494  1.0000
  H   H333      1.0  0.60058  0.65338  0.51306  1.0000
  C   C211      1.0  0.64160  0.81036  0.18087  1.0000
  H   H334      1.0  0.65212  0.82357  0.21408  1.0000
  H   H335      1.0  0.67383  0.89773  0.17707  1.0000
  N   N23       1.0  0.66854  0.83085  0.14475  1.0000
  C   C212      1.0  0.66372  0.88221  0.14466  1.0000
  H   H336      1.0  0.80994  0.79144  0.11760  1.0000
  H   H337      1.0  0.72831  0.83444  0.18328  1.0000
  C   C213      1.0  0.71525  0.81904  0.15192  1.0000
  H   H338      1.0  0.72001  0.78052  0.15378  1.0000
  H   H339      1.0  0.60625  0.81916  0.17661  1.0000
  H   H340      1.0  0.84321  0.02962  0.55381  1.0000
  H   H341      1.0  0.68439  0.89861  0.11834  1.0000
  H   H342      1.0  0.64406  0.77152  0.18148  1.0000
  H   H343      1.0  0.73604  0.83222  0.12396  1.0000
  C   C214      1.0  0.67221  0.67540  0.57482  1.0000
  H   H344      1.0  0.65700  0.77317  0.10035  1.0000
  H   H345      1.0  0.62910  0.89262  0.13839  1.0000
  C   C215      1.0  0.82410  0.96683  0.10465  1.0000
  C   C216      1.0  0.65367  0.81191  0.10143  1.0000
  H   H346      1.0  0.82914  0.00090  0.11944  1.0000
  H   H347      1.0  0.61868  0.82058  0.09462  1.0000
  C   C217      1.0  0.82625  0.76246  0.10182  1.0000
  S   S83       1.0  0.66686  0.99943  0.09976  1.0000
  N   N24       1.0  0.76348  0.81009  0.66389  1.0000
  H   H348      1.0  0.73996  0.98299  0.86334  1.0000
  H   H349      1.0  0.78247  0.07035  0.90630  1.0000
  S   S84       1.0  0.67421  0.12610  0.05066  1.0000
  H   H350      1.0  0.82182  0.01158  0.64336  1.0000
  C   C218      1.0  0.75229  0.76427  0.68394  1.0000
  H   H351      1.0  0.73365  0.87689  0.65360  1.0000
  H   H352      1.0  0.71554  0.09554  0.80552  1.0000
  C   C219      1.0  0.77437  0.80378  0.61634  1.0000
  C   C220      1.0  0.72564  0.84186  0.66766  1.0000
  C   C221      1.0  0.81296  0.12970  0.99451  1.0000
  H   H353      1.0  0.64831  0.75454  0.83126  1.0000
  S   S85       1.0  0.64098  0.66891  0.02423  1.0000
  H   H354      1.0  0.73784  0.05255  0.03619  1.0000
  C   C222      1.0  0.82295  0.69059  0.05969  1.0000
  C   C223      1.0  0.84393  0.98263  0.63826  1.0000
  H   H355      1.0  0.60206  0.83552  0.78357  1.0000
  H   H356      1.0  0.83858  0.86012  0.91333  1.0000
  S   S86       1.0  0.72951  0.89901  0.03404  1.0000
  H   H357      1.0  0.72363  0.74784  0.66682  1.0000
  H   H358      1.0  0.74354  0.76778  0.71971  1.0000
  H   H359      1.0  0.73218  0.09286  0.92834  1.0000
  H   H360      1.0  0.80356  0.78100  0.61217  1.0000
  C   C224      1.0  0.79954  0.79582  0.96518  1.0000
  S   S87       1.0  0.76027  0.98172  0.71106  1.0000
  C   C225      1.0  0.61440  0.13692  0.66953  1.0000
  Fe  Fe42      1.0  0.64981  0.02496  0.66574  1.0000
  S   S88       1.0  0.66941  0.03543  0.73708  1.0000
  H   H361      1.0  0.63184  0.92135  0.93840  1.0000
  Fe  Fe43      1.0  0.69279  0.96135  0.73257  1.0000
  S   S89       1.0  0.68901  0.90822  0.78752  1.0000
  Fe  Fe44      1.0  0.73482  0.05475  0.70799  1.0000
  S   S90       1.0  0.66748  0.94898  0.66349  1.0000
  H   H362      1.0  0.60902  0.96077  0.77885  1.0000
  Fe  Fe45      1.0  0.73365  0.97558  0.64180  1.0000
  H   H363      1.0  0.72880  0.00943  0.81051  1.0000
  Fe  Fe46      1.0  0.64924  0.05274  0.04824  1.0000
  H   H364      1.0  0.78030  0.02076  0.83763  1.0000
  S   S91       1.0  0.66460  0.00711  0.99012  1.0000
  C   C226      1.0  0.74448  0.01565  0.84348  1.0000
  C   C227      1.0  0.77799  0.91278  0.06300  1.0000
  C   C228      1.0  0.72741  0.12668  0.02885  1.0000
  H   H365      1.0  0.79466  0.83566  0.72351  1.0000
  H   H366      1.0  0.64225  0.11894  0.68373  1.0000
  S   S92       1.0  0.77875  0.11285  0.73172  1.0000
  C   C229      1.0  0.65026  0.92561  0.82673  1.0000
  C   C230      1.0  0.65633  0.91393  0.87160  1.0000
  C   C231      1.0  0.62668  0.92983  0.90362  1.0000
  H   H367      1.0  0.79575  0.77517  0.99646  1.0000
  H   H368      1.0  0.69658  0.82833  0.64905  1.0000
  S   S93       1.0  0.73319  0.65261  0.97128  1.0000
  S   S94       1.0  0.71333  0.05025  0.63671  1.0000
  C   C232      1.0  0.66279  0.71708  0.59719  1.0000
  C   C233      1.0  0.81078  0.87903  0.06636  1.0000
  Fe  Fe47      1.0  0.67591  0.95173  0.04149  1.0000
  H   H369      1.0  0.81069  0.86542  0.67340  1.0000
  H   H370      1.0  0.82846  0.80841  0.88076  1.0000
  N   N25       1.0  0.72511  0.05642  0.86612  1.0000
  C   C234      1.0  0.80159  0.72859  0.07910  1.0000
  H   H371      1.0  0.67372  0.82621  0.07345  1.0000
  H   H372      1.0  0.68450  0.89357  0.88181  1.0000
  H   H373      1.0  0.76734  0.10561  0.83232  1.0000
  H   H374      1.0  0.71817  0.13038  0.85508  1.0000
  C   C235      1.0  0.67753  0.04826  0.87257  1.0000
  H   H375      1.0  0.81301  0.05490  0.00435  1.0000
  H   H376      1.0  0.78826  0.83199  0.97245  1.0000
  H   H377      1.0  0.66006  0.04365  0.84022  1.0000
  C   C236      1.0  0.62116  0.67334  0.65215  1.0000
  H   H378      1.0  0.66183  0.07781  0.89038  1.0000
  C   C237      1.0  0.74665  0.06298  0.90988  1.0000
  C   C238      1.0  0.63748  0.71591  0.63599  1.0000
  S   S95       1.0  0.60635  0.92572  0.04105  1.0000
  S   S96       1.0  0.74460  0.73592  0.07287  1.0000
  H   H379      1.0  0.82029  0.67064  0.61249  1.0000
  Fe  Fe48      1.0  0.71303  0.67423  0.03953  1.0000
  C   C239      1.0  0.79438  0.08681  0.00734  1.0000
  H   H380      1.0  0.80533  0.84476  0.05234  1.0000
  H   H381      1.0  0.60045  0.77549  0.76627  1.0000
  H   H382      1.0  0.71561  0.84676  0.70298  1.0000
  C   C240      1.0  0.80713  0.13408  0.68502  1.0000
  H   H383      1.0  0.60153  0.67232  0.68208  1.0000
  C   C241      1.0  0.63074  0.78168  0.85068  1.0000
  S   S97       1.0  0.62382  0.76765  0.66311  1.0000
  H   H384      1.0  0.75934  0.98299  0.07992  1.0000
  C   C242      1.0  0.73179  0.09886  0.83864  1.0000
  H   H385      1.0  0.74307  0.03135  0.93134  1.0000
  C   C243      1.0  0.78440  0.14433  0.64559  1.0000
  C   C244      1.0  0.75168  0.08540  0.02503  1.0000
  H   H386      1.0  0.83100  0.80788  0.68474  1.0000
  H   H387      1.0  0.63606  0.65676  0.79563  1.0000
  C   C245      1.0  0.80163  0.83063  0.68750  1.0000
  H   H388      1.0  0.77656  0.78050  0.94022  1.0000
  H   H389      1.0  0.67136  0.01610  0.89254  1.0000
  H   H390      1.0  0.64928  0.81517  0.84709  1.0000
  N   N26       1.0  0.84549  0.79541  0.94929  1.0000
  H   H391      1.0  0.80414  0.66397  0.04249  1.0000
  H   H392      1.0  0.78028  0.73956  0.68159  1.0000
  C   C246      1.0  0.83075  0.94449  0.61222  1.0000
  H   H393      1.0  0.63229  0.77077  0.88633  1.0000
  C   C247      1.0  0.61392  0.95204  0.81361  1.0000
  H   H394      1.0  0.74661  0.78744  0.59776  1.0000
  C   C248      1.0  0.78447  0.95667  0.08244  1.0000
  H   H395      1.0  0.74904  0.14104  0.64445  1.0000
  C   C249      1.0  0.83219  0.66086  0.64524  1.0000
  S   S98       1.0  0.63591  0.66268  0.89132  1.0000
  H   H396      1.0  0.78180  0.83786  0.59993  1.0000
  H   H397      1.0  0.83715  0.72989  0.91525  1.0000
  S   S99       1.0  0.77693  0.94093  0.59175  1.0000
  S   S100      1.0  0.88114  0.18749  0.56293  1.0000
  S   S101      1.0  0.98371  0.27714  0.55452  1.0000
  Fe  Fe49      1.0  0.94223  0.22240  0.58833  1.0000
  H   H398      1.0  0.89955  0.32915  0.57721  1.0000
  H   H399      1.0  0.06760  0.30087  0.20458  1.0000
  C   C250      1.0  0.06700  0.40078  0.09420  1.0000
  H   H400      1.0  0.03874  0.35449  0.14338  1.0000
  H   H401      1.0  0.06938  0.33753  0.57019  1.0000
  C   C251      1.0  0.08232  0.64440  0.20755  1.0000
  Fe  Fe50      1.0  0.04000  0.24146  0.58904  1.0000
  H   H402      1.0  0.96703  0.55489  0.55344  1.0000
  C   C252      1.0  0.07628  0.42850  0.55170  1.0000
  H   H403      1.0  0.08155  0.42383  0.11865  1.0000
  H   H404      1.0  0.08672  0.42473  0.51640  1.0000
  S   S102      1.0  0.99393  0.28236  0.09453  1.0000
  H   H405      1.0  0.05962  0.63590  0.12134  1.0000
  H   H406      1.0  0.88700  0.55182  0.57460  1.0000
  C   C253      1.0  0.04309  0.36138  0.10826  1.0000
  H   H407      1.0  0.04142  0.41653  0.55407  1.0000
  H   H408      1.0  0.09317  0.27420  0.13061  1.0000
  H   H409      1.0  0.05804  0.61576  0.20175  1.0000
  H   H410      1.0  0.07712  0.46651  0.55978  1.0000
  H   H411      1.0  0.97661  0.50052  0.58225  1.0000
  C   C254      1.0  0.97487  0.53917  0.58649  1.0000
  S   S103      1.0  0.87757  0.23588  0.05351  1.0000
  Fe  Fe51      1.0  0.99190  0.22853  0.67530  1.0000
  S   S104      1.0  0.03779  0.28473  0.65134  1.0000
  S   S105      1.0  0.98710  0.19483  0.74207  1.0000
  C   C255      1.0  0.85279  0.16637  0.60971  1.0000
  C   C256      1.0  0.84801  0.24398  0.73602  1.0000
  Fe  Fe52      1.0  0.97812  0.31577  0.61913  1.0000
  Fe  Fe53      1.0  0.84832  0.29729  0.01832  1.0000
  S   S106      1.0  0.93210  0.26400  0.64998  1.0000
  H   H412      1.0  0.86615  0.32417  0.69289  1.0000
  H   H413      1.0  0.04601  0.60143  0.66055  1.0000
  Fe  Fe54      1.0  0.91949  0.30121  0.94875  1.0000
  S   S107      1.0  0.95495  0.23867  0.97664  1.0000
  S   S108      1.0  0.93923  0.34263  0.88857  1.0000
  Fe  Fe55      1.0  0.88714  0.20829  0.98442  1.0000
  H   H414      1.0  0.90555  0.42868  0.96922  1.0000
  C   C257      1.0  0.91426  0.51547  0.00278  1.0000
  C   C258      1.0  0.99167  0.50043  0.99317  1.0000
  S   S109      1.0  0.91169  0.33681  0.01429  1.0000
  H   H415      1.0  0.91758  0.61370  0.65156  1.0000
  H   H416      1.0  0.01307  0.31871  0.00694  1.0000
  H   H417      1.0  0.05465  0.38877  0.98209  1.0000
  C   C259      1.0  0.97385  0.23642  0.78212  1.0000
  C   C260      1.0  0.95636  0.22160  0.82275  1.0000
  C   C261      1.0  0.94513  0.25446  0.85504  1.0000
  C   C262      1.0  0.95228  0.30214  0.84723  1.0000
  C   C263      1.0  0.96916  0.31713  0.80626  1.0000
  C   C264      1.0  0.97969  0.28420  0.77350  1.0000
  H   H418      1.0  0.95122  0.18471  0.82921  1.0000
  H   H419      1.0  0.93082  0.24268  0.88593  1.0000
  H   H420      1.0  0.97445  0.35403  0.80004  1.0000
  H   H421      1.0  0.99300  0.29577  0.74196  1.0000
  Fe  Fe56      1.0  0.94199  0.27214  0.04255  1.0000
  C   C265      1.0  0.02390  0.33151  0.07690  1.0000
  C   C266      1.0  0.90070  0.38728  0.62274  1.0000
  H   H422      1.0  0.92857  0.53819  0.68944  1.0000
  C   C267      1.0  0.02779  0.34167  0.03141  1.0000
  H   H423      1.0  0.88174  0.23668  0.74875  1.0000
  H   H424      1.0  0.92181  0.54183  0.02897  1.0000
  H   H425      1.0  0.91625  0.43670  0.05125  1.0000
  C   C268      1.0  0.95355  0.53033  0.66346  1.0000
  C   C269      1.0  0.07112  0.41079  0.04871  1.0000
  S   S110      1.0  0.95824  0.39079  0.62431  1.0000
  H   H426      1.0  0.97347  0.61798  0.63397  1.0000
  H   H427      1.0  0.96289  0.41737  0.96261  1.0000
  C   C270      1.0  0.86424  0.63442  0.72904  1.0000
  S   S111      1.0  0.85311  0.26767  0.94973  1.0000
  H   H428      1.0  0.91130  0.53436  0.97044  1.0000
  C   C271      1.0  0.87530  0.41668  0.64920  1.0000
  C   C272      1.0  0.93807  0.44581  0.96455  1.0000
  H   H429      1.0  0.87697  0.62413  0.76131  1.0000
  H   H430      1.0  0.98590  0.54339  0.67576  1.0000
  H   H431      1.0  0.93759  0.46368  0.93157  1.0000
  C   C273      1.0  0.94879  0.45308  0.04400  1.0000
  H   H432      1.0  0.89089  0.44287  0.66987  1.0000
  C   C274      1.0  0.05134  0.38132  0.01731  1.0000
  H   H433      1.0  0.01753  0.47344  0.98941  1.0000
  H   H434      1.0  0.84863  0.23943  0.69922  1.0000
  S   S112      1.0  0.99902  0.18247  0.61600  1.0000
  H   H435      1.0  0.86515  0.28950  0.81221  1.0000
  N   N27       1.0  0.94817  0.47872  0.00112  1.0000
  H   H436      1.0  0.89845  0.32088  0.74274  1.0000
  H   H437      1.0  0.95583  0.49158  0.66072  1.0000
  N   N28       1.0  0.94179  0.55189  0.62021  1.0000
  H   H438      1.0  0.88129  0.50049  0.01056  1.0000
  H   H439      1.0  0.99183  0.52188  0.96217  1.0000
  H   H440      1.0  0.87258  0.54173  0.63179  1.0000
  H   H441      1.0  0.85484  0.36265  0.73834  1.0000
  C   C275      1.0  0.08925  0.40706  0.62835  1.0000
  H   H442      1.0  0.05480  0.39428  0.63203  1.0000
  C   C276      1.0  0.94070  0.60330  0.62498  1.0000
  H   H443      1.0  0.97346  0.42458  0.04383  1.0000
  C   C277      1.0  0.86458  0.32635  0.72980  1.0000
  C   C278      1.0  0.07242  0.62570  0.65359  1.0000
  C   C279      1.0  0.88019  0.35206  0.59777  1.0000
  H   H444      1.0  0.89813  0.49631  0.60013  1.0000
  H   H445      1.0  0.91073  0.16084  0.65096  1.0000
  C   C280      1.0  0.87552  0.15641  0.64925  1.0000
  H   H446      1.0  0.00832  0.55169  0.59619  1.0000
  H   H447      1.0  0.00196  0.52336  0.02128  1.0000
  C   C281      1.0  0.89798  0.53470  0.60604  1.0000
  H   H448      1.0  0.08998  0.44449  0.63865  1.0000
  H   H449      1.0  0.95720  0.47658  0.07227  1.0000
  H   H450      1.0  0.92993  0.62089  0.59367  1.0000
  H   H451      1.0  0.87869  0.06073  0.46472  1.0000
  S   S113      1.0  0.97260  0.83007  0.16013  1.0000
  H   H452      1.0  0.94429  0.10248  0.56100  1.0000
  H   H453      1.0  0.00670  0.67553  0.17121  1.0000
  Fe  Fe57      1.0  0.04346  0.84827  0.14934  1.0000
  H   H454      1.0  0.96975  0.09092  0.13544  1.0000
  H   H455      1.0  0.91238  0.10295  0.12709  1.0000
  C   C282      1.0  0.86689  0.05951  0.55309  1.0000
  H   H456      1.0  0.03029  0.91694  0.20918  1.0000
  H   H457      1.0  0.93945  0.01915  0.58703  1.0000
  H   H458      1.0  0.87426  0.00118  0.48361  1.0000
  H   H459      1.0  0.07992  0.69194  0.10353  1.0000
  N   N29       1.0  0.07720  0.68260  0.17461  1.0000
  H   H460      1.0  0.87398  0.06935  0.58826  1.0000
  H   H461      1.0  0.96083  0.99869  0.53505  1.0000
  N   N30       1.0  0.90754  0.04751  0.52896  1.0000
  H   H462      1.0  0.96865  0.08076  0.51065  1.0000
  C   C283      1.0  0.05934  0.92716  0.22763  1.0000
  C   C284      1.0  0.08382  0.66405  0.12923  1.0000
  S   S114      1.0  0.90823  0.94722  0.13165  1.0000
  C   C285      1.0  0.85740  0.93327  0.10697  1.0000
  C   C286      1.0  0.93688  0.08889  0.52704  1.0000
  C   C287      1.0  0.06228  0.97220  0.24569  1.0000
  H   H463      1.0  0.84987  0.08972  0.53728  1.0000
  Fe  Fe58      1.0  0.95958  0.89316  0.11738  1.0000
  S   S115      1.0  0.03037  0.91506  0.11221  1.0000
  H   H464      1.0  0.03568  0.99663  0.24074  1.0000
  C   C288      1.0  0.93019  0.00903  0.55245  1.0000
  C   C289      1.0  0.89618  0.03257  0.48323  1.0000
  H   H465      1.0  0.92608  0.02353  0.46390  1.0000
  C   C290      1.0  0.03255  0.70236  0.17801  1.0000
  H   H466      1.0  0.89095  0.78597  0.12096  1.0000
  H   H467      1.0  0.93019  0.04410  0.13664  1.0000
  H   H468      1.0  0.90883  0.97738  0.55477  1.0000
  H   H469      1.0  0.02648  0.71716  0.21166  1.0000
  H   H470      1.0  0.92150  0.11806  0.50800  1.0000
  C   C291      1.0  0.93897  0.07762  0.11973  1.0000
  S   S116      1.0  0.09415  0.84318  0.20337  1.0000
  H   H471      1.0  0.02747  0.73106  0.15345  1.0000
  C   C292      1.0  0.87217  0.75941  0.10372  1.0000
  C   C293      1.0  0.09405  0.89583  0.23305  1.0000
  H   H472      1.0  0.07782  0.65719  0.24219  1.0000
  H   H473      1.0  0.85025  0.87863  0.58406  1.0000
  Fe  Fe59      1.0  0.97877  0.79229  0.09514  1.0000
  Fe  Fe60      1.0  0.93796  0.77342  0.67971  1.0000
  Fe  Fe61      1.0  0.96913  0.79914  0.77232  1.0000
  S   S117      1.0  0.02503  0.84320  0.74698  1.0000
  S   S118      1.0  0.95307  0.78273  0.84357  1.0000
  C   C294      1.0  0.90277  0.05300  0.05206  1.0000
  C   C295      1.0  0.03769  0.02310  0.75305  1.0000
  Fe  Fe62      1.0  0.03552  0.78441  0.69876  1.0000
  S   S119      1.0  0.91918  0.83034  0.72650  1.0000
  S   S120      1.0  0.98331  0.73832  0.72819  1.0000
  H   H474      1.0  0.09336  0.09454  0.74207  1.0000
  Fe  Fe63      1.0  0.03154  0.86999  0.05160  1.0000
  C   C296      1.0  0.89364  0.72215  0.08339  1.0000
  H   H475      1.0  0.87252  0.79577  0.01555  1.0000
  S   S121      1.0  0.88435  0.73851  0.64016  1.0000
  H   H476      1.0  0.98127  0.10359  0.69233  1.0000
  S   S122      1.0  0.95955  0.85381  0.05311  1.0000
  S   S123      1.0  0.99146  0.81440  0.64592  1.0000
  H   H477      1.0  0.96589  0.04421  0.70532  1.0000
  C   C297      1.0  0.03267  0.87859  0.90243  1.0000
  C   C298      1.0  0.85997  0.90793  0.60463  1.0000
  Fe  Fe64      1.0  0.97617  0.86905  0.69669  1.0000
  H   H478      1.0  0.04416  0.68119  0.69153  1.0000
  H   H479      1.0  0.85773  0.72504  0.97127  1.0000
  C   C299      1.0  0.07135  0.67106  0.67113  1.0000
  C   C300      1.0  0.98634  0.81253  0.88193  1.0000
  C   C301      1.0  0.99022  0.79480  0.92519  1.0000
  C   C302      1.0  0.01485  0.81906  0.95714  1.0000
  C   C303      1.0  0.03558  0.86128  0.94603  1.0000
  C   C304      1.0  0.00781  0.85428  0.87038  1.0000
  H   H480      1.0  0.97423  0.76220  0.93413  1.0000
  H   H481      1.0  0.01776  0.80493  0.99045  1.0000
  H   H482      1.0  0.04862  0.07716  0.65256  1.0000
  H   H483      1.0  0.86599  0.85263  0.99100  1.0000
  C   C305      1.0  0.87466  0.81570  0.98370  1.0000
  C   C306      1.0  0.85894  0.74676  0.94040  1.0000
  H   H484      1.0  0.04821  0.91156  0.89395  1.0000
  H   H485      1.0  0.92886  0.14249  0.05538  1.0000
  H   H486      1.0  0.88361  0.82456  0.89566  1.0000
  S   S124      1.0  0.86695  0.13339  0.97454  1.0000
  H   H487      1.0  0.00391  0.86874  0.83734  1.0000
  C   C307      1.0  0.86274  0.68937  0.66733  1.0000
  S   S125      1.0  0.06240  0.89348  0.98766  1.0000
  C   C308      1.0  0.86896  0.68726  0.06202  1.0000
  H   H488      1.0  0.07279  0.01303  0.75694  1.0000
  H   H489      1.0  0.89419  0.01807  0.06588  1.0000
  H   H490      1.0  0.89974  0.69958  0.72781  1.0000
  C   C309      1.0  0.85274  0.14012  0.68682  1.0000
  H   H491      1.0  0.02501  0.03272  0.78649  1.0000
  H   H492      1.0  0.03073  0.01793  0.66318  1.0000
  H   H493      1.0  0.90495  0.04925  0.01524  1.0000
  C   C310      1.0  0.04989  0.04784  0.67704  1.0000
  H   H494      1.0  0.01166  0.04956  0.07691  1.0000
  S   S126      1.0  0.96500  0.94444  0.67956  1.0000
  C   C311      1.0  0.87750  0.67695  0.70990  1.0000
  N   N31       1.0  0.94428  0.07108  0.07121  1.0000
  C   C312      1.0  0.05805  0.10299  0.73724  1.0000
  H   H495      1.0  0.90964  0.81530  0.97301  1.0000
  H   H496      1.0  0.01927  0.99152  0.74184  1.0000
  C   C313      1.0  0.91408  0.94562  0.65230  1.0000
  C   C314      1.0  0.98598  0.07456  0.71667  1.0000
  C   C315      1.0  0.90127  0.90809  0.62535  1.0000
  H   H497      1.0  0.87490  0.07680  0.05913  1.0000
  H   H498      1.0  0.05613  0.13273  0.71330  1.0000
  H   H499      1.0  0.89530  0.01252  0.67887  1.0000
  H   H500      1.0  0.97230  0.08660  0.74898  1.0000
  C   C316      1.0  0.88573  0.98341  0.65802  1.0000
  N   N32       1.0  0.03287  0.06211  0.72099  1.0000
  H   H501      1.0  0.92317  0.87905  0.62035  1.0000
  H   H502      1.0  0.04520  0.11575  0.76964  1.0000
  H   H503      1.0  0.09176  0.85774  0.81749  1.0000
  H   H504      1.0  0.95926  0.11289  0.01337  1.0000
  S   S127      1.0  0.95129  0.72044  0.08274  1.0000
  H   H505      1.0  0.89315  0.74541  0.92735  1.0000
  C   C317      1.0  0.95536  0.11645  0.05009  1.0000
  H   H506      1.0  0.88542  0.65819  0.04648  1.0000
  H   H507      1.0  0.87052  0.13205  0.71717  1.0000
  H   H508      1.0  0.98430  0.03107  0.02662  1.0000
  C   C318      1.0  0.84909  0.82339  0.90793  1.0000
  H   H509      1.0  0.97220  0.00265  0.07858  1.0000
  C   C319      1.0  0.85038  0.88921  0.08826  1.0000
  H   H510      1.0  0.87527  0.86276  0.09112  1.0000
  H   H511      1.0  0.08474  0.03658  0.67939  1.0000
  C   C320      1.0  0.97977  0.03719  0.06293  1.0000
  H   H512      1.0  0.98635  0.13153  0.06380  1.0000
  S   S128      1.0  0.05116  0.80495  0.08794  1.0000
