data_image0
_chemical_formula_structural       FeHSH2C6H5SFe3CH2SCS2HC2NH2S2FeHSH2CH3CHCNC2H6CHC2H8SCSH2CSFe2SH4FeS2C2HS2HC6SH5SCH5CFeH2CH3FeH2CSHCNCNH7C3FeH2CHCH2CH4CHCH3SCHCH3C2SCSCH2N2C2H4SCHCH2CFeCSH2SCH3CFeH3CH2FeC2HSHCFeSH6SH3CHFeHC7HSC2NCSC3H5CH3CHS2HCHCSHFeC6H4CHCHSFeH2SCHNCHSH2FeCHCHC2SH2FeSNH2CSHSH2NCH5C5H3CHCHC2H8C2H5SH2C2HC2HC6HCHNHCHC2H4CFeHSFe3SH2FeSFeS4HS2HC4H2CHCH2NH4CNSH3CSH3CH2SFeHSHC6H3SHCH2CHCHC2H3C2NHCH2CHCH2CHNCHFeSHCHNCH4SFeS2FeSFeSHC3SH4SHCSHC3H6CHSFeH3SH2NCFeSFeCHC8H2SH2SHC2H2C2HSCH2FeC2H2C2H3SCHFeSCH2CH4SH3CHSFeCH2CH5NH2S2C2NH2FeS2HNCH2C6H2S2HCH3SC2S2CH2C2H4C2HFeCH3CFeH2FeH2SHCFeHCH2FeSNCHCSCHSFeHNH2CHC6H4SFeHCHC3H5CHCSFeSHSHSC4HCSH5FeH4SH5CHSC2HSCH4CHCH5NHSH2CHCFe2SCH3C2H3CH3SH2CH2C3H4CH4FeSFeSFeS2H2CH2FeH3C7H2CS2H2CHSNCSCH2C4H5CHCH2FeHS2HFe2C2SC2HCH2CH5CH6SH2C3SCHNHCH3CH4NSH2CSHCH2FeH3C2HCH2NC2H2CSH5CNC2HCHNCHC2H3FeS2Fe2HFeS2H5C2HCHSHSHC6SH6CH2C3H2SHCHNHFeCHCH2SC2HCHC3HSH2CH4NCH2C2SCFeH2CHCHCH6CHSFeC2SN
_chemical_formula_sum              "Fe64 H512 S128 C320 N32"
_cell_length_a       33.7321
_cell_length_b       22.9455
_cell_length_c       38.3268
_cell_angle_alpha    89.9062
_cell_angle_beta     89.7605
_cell_angle_gamma    92.2444

_space_group_name_H-M_alt    "P 1"
_space_group_IT_number       1

loop_
  _space_group_symop_operation_xyz
  'x, y, z'

loop_
  _atom_site_type_symbol
  _atom_site_label
  _atom_site_symmetry_multiplicity
  _atom_site_fract_x
  _atom_site_fract_y
  _atom_site_fract_z
  _atom_site_occupancy
  Fe  Fe1       1.0  0.42527  0.44096  0.08363  1.0000
  H   H1        1.0  0.21516  0.70379  0.05064  1.0000
  S   S1        1.0  0.32110  0.63667  0.21078  1.0000
  H   H2        1.0  0.39572  0.67738  0.17141  1.0000
  H   H3        1.0  0.31020  0.75207  0.26841  1.0000
  C   C1        1.0  0.30957  0.56373  0.20032  1.0000
  C   C2        1.0  0.29416  0.54945  0.16757  1.0000
  C   C3        1.0  0.29187  0.49106  0.15675  1.0000
  C   C4        1.0  0.30451  0.44700  0.17900  1.0000
  C   C5        1.0  0.31756  0.46106  0.21254  1.0000
  C   C6        1.0  0.31982  0.51934  0.22328  1.0000
  H   H4        1.0  0.28638  0.58377  0.14995  1.0000
  H   H5        1.0  0.28240  0.48035  0.13053  1.0000
  H   H6        1.0  0.32894  0.42771  0.22918  1.0000
  H   H7        1.0  0.33128  0.52986  0.24880  1.0000
  H   H8        1.0  0.10759  0.74817  0.05100  1.0000
  S   S2        1.0  0.41438  0.56826  0.24989  1.0000
  Fe  Fe2       1.0  0.34543  0.40192  0.11340  1.0000
  Fe  Fe3       1.0  0.36593  0.37427  0.03883  1.0000
  Fe  Fe4       1.0  0.36571  0.63159  0.25357  1.0000
  C   C7        1.0  0.34891  0.67155  0.11497  1.0000
  H   H9        1.0  0.40413  0.60730  0.08424  1.0000
  H   H10       1.0  0.33442  0.69141  0.13803  1.0000
  S   S3        1.0  0.51084  0.66120  0.24365  1.0000
  C   C8        1.0  0.55369  0.64711  0.26751  1.0000
  S   S4        1.0  0.37854  0.48851  0.11209  1.0000
  S   S5        1.0  0.48935  0.46304  0.09488  1.0000
  H   H11       1.0  0.15817  0.67970  0.08894  1.0000
  C   C9        1.0  0.52544  0.55128  0.17748  1.0000
  C   C10       1.0  0.51901  0.40596  0.08174  1.0000
  N   N1        1.0  0.21369  0.63678  0.08994  1.0000
  H   H12       1.0  0.53655  0.44040  0.15848  1.0000
  H   H13       1.0  0.33562  0.68959  0.09088  1.0000
  S   S6        1.0  0.28579  0.79350  0.05534  1.0000
  S   S7        1.0  0.31239  0.37766  0.16216  1.0000
  Fe  Fe5       1.0  0.35058  0.49791  0.05980  1.0000
  H   H14       1.0  0.21452  0.54697  0.07431  1.0000
  S   S8        1.0  0.31353  0.41529  0.06339  1.0000
  H   H15       1.0  0.15606  0.60660  0.07253  1.0000
  H   H16       1.0  0.39771  0.67259  0.05978  1.0000
  C   C11       1.0  0.22597  0.65926  0.05525  1.0000
  H   H17       1.0  0.47674  0.33772  0.09677  1.0000
  H   H18       1.0  0.53004  0.59944  0.17506  1.0000
  H   H19       1.0  0.38968  0.76597  0.09019  1.0000
  C   C12       1.0  0.29709  0.79564  0.26532  1.0000
  H   H20       1.0  0.38716  0.76850  0.13702  1.0000
  C   C13       1.0  0.40112  0.74621  0.11455  1.0000
  N   N2        1.0  0.39230  0.68262  0.11544  1.0000
  C   C14       1.0  0.41016  0.65531  0.08449  1.0000
  C   C15       1.0  0.23101  0.67522  0.11730  1.0000
  H   H21       1.0  0.40178  0.60967  0.14933  1.0000
  H   H22       1.0  0.21971  0.55879  0.12043  1.0000
  H   H23       1.0  0.34133  0.62392  0.11547  1.0000
  H   H24       1.0  0.43362  0.75638  0.11538  1.0000
  H   H25       1.0  0.22095  0.72072  0.11468  1.0000
  H   H26       1.0  0.22278  0.65942  0.14394  1.0000
  C   C16       1.0  0.16997  0.63553  0.09273  1.0000
  H   H27       1.0  0.44286  0.66340  0.08354  1.0000
  C   C17       1.0  0.40866  0.65749  0.14763  1.0000
  C   C18       1.0  0.22771  0.57700  0.09430  1.0000
  H   H28       1.0  0.25883  0.66185  0.05239  1.0000
  H   H29       1.0  0.30882  0.81488  0.24044  1.0000
  H   H30       1.0  0.50509  0.53624  0.15624  1.0000
  H   H31       1.0  0.15959  0.61914  0.11865  1.0000
  H   H32       1.0  0.26390  0.67751  0.11570  1.0000
  H   H33       1.0  0.44144  0.66449  0.14892  1.0000
  H   H34       1.0  0.26049  0.57595  0.09129  1.0000
  H   H35       1.0  0.50985  0.54288  0.20277  1.0000
  S   S9        1.0  0.32663  0.58311  0.04344  1.0000
  C   C19       1.0  0.13001  0.74643  0.03089  1.0000
  S   S10       1.0  0.39470  0.35280  0.08972  1.0000
  H   H36       1.0  0.21420  0.63058  0.03395  1.0000
  H   H37       1.0  0.26451  0.78820  0.26220  1.0000
  C   C20       1.0  0.50534  0.34788  0.08516  1.0000
  S   S11       1.0  0.40562  0.70623  0.27026  1.0000
  Fe  Fe6       1.0  0.34528  0.82886  0.03728  1.0000
  Fe  Fe7       1.0  0.45316  0.64059  0.27146  1.0000
  S   S12       1.0  0.40047  0.45861  0.03061  1.0000
  H   H38       1.0  0.54149  0.44698  0.20500  1.0000
  H   H39       1.0  0.26324  0.49615  0.03367  1.0000
  H   H40       1.0  0.26666  0.36986  0.25210  1.0000
  H   H41       1.0  0.14912  0.83658  0.03708  1.0000
  Fe  Fe8       1.0  0.39931  0.54844  0.30572  1.0000
  S   S13       1.0  0.44276  0.61534  0.32756  1.0000
  S   S14       1.0  0.39389  0.45518  0.32340  1.0000
  C   C21       1.0  0.32157  0.74439  0.41917  1.0000
  C   C22       1.0  0.48475  0.41558  0.41082  1.0000
  H   H42       1.0  0.53119  0.36749  0.36300  1.0000
  S   S15       1.0  0.38484  0.43563  0.48701  1.0000
  S   S16       1.0  0.34712  0.60570  0.30751  1.0000
  H   H43       1.0  0.53917  0.41412  0.48649  1.0000
  C   C23       1.0  0.38156  0.44146  0.44152  1.0000
  C   C24       1.0  0.37907  0.39132  0.42086  1.0000
  C   C25       1.0  0.38228  0.39571  0.38450  1.0000
  C   C26       1.0  0.38690  0.45046  0.36865  1.0000
  C   C27       1.0  0.38762  0.50084  0.38915  1.0000
  C   C28       1.0  0.38481  0.49641  0.42560  1.0000
  S   S17       1.0  0.37655  0.73878  0.36659  1.0000
  H   H44       1.0  0.39135  0.54316  0.37699  1.0000
  H   H45       1.0  0.38652  0.53545  0.44141  1.0000
  H   H46       1.0  0.30125  0.76282  0.33218  1.0000
  H   H47       1.0  0.05962  0.80256  0.45641  1.0000
  H   H48       1.0  0.24103  0.37708  0.29305  1.0000
  S   S18       1.0  0.17645  0.74919  0.51137  1.0000
  C   C29       1.0  0.49184  0.46687  0.35594  1.0000
  H   H49       1.0  0.49994  0.39727  0.43383  1.0000
  H   H50       1.0  0.50857  0.52856  0.41379  1.0000
  H   H51       1.0  0.28588  0.41969  0.28461  1.0000
  H   H52       1.0  0.36384  0.79931  0.30328  1.0000
  H   H53       1.0  0.34875  0.62009  0.37940  1.0000
  C   C30       1.0  0.28967  0.80698  0.32767  1.0000
  Fe  Fe9       1.0  0.39158  0.67482  0.32463  1.0000
  H   H54       1.0  0.27646  0.74843  0.45884  1.0000
  H   H55       1.0  0.52321  0.59975  0.30874  1.0000
  C   C31       1.0  0.33271  0.64832  0.39625  1.0000
  H   H56       1.0  0.29609  0.57806  0.41792  1.0000
  H   H57       1.0  0.46835  0.49744  0.36317  1.0000
  H   H58       1.0  0.51225  0.49016  0.33726  1.0000
  Fe  Fe10      1.0  0.22716  0.68907  0.51113  1.0000
  H   H59       1.0  0.25673  0.80249  0.32663  1.0000
  H   H60       1.0  0.09221  0.80076  0.49341  1.0000
  C   C32       1.0  0.30308  0.62450  0.41835  1.0000
  S   S19       1.0  0.24479  0.63022  0.46767  1.0000
  H   H61       1.0  0.32318  0.53145  0.48865  1.0000
  C   C33       1.0  0.29220  0.72045  0.44160  1.0000
  N   N3        1.0  0.30642  0.83392  0.29546  1.0000
  C   C34       1.0  0.28253  0.66062  0.44086  1.0000
  N   N4        1.0  0.51306  0.44671  0.38710  1.0000
  H   H62       1.0  0.31476  0.38272  0.33871  1.0000
  H   H63       1.0  0.32829  0.79088  0.41929  1.0000
  H   H64       1.0  0.38481  0.55239  0.52202  1.0000
  H   H65       1.0  0.54764  0.48425  0.42894  1.0000
  H   H66       1.0  0.46192  0.44503  0.42081  1.0000
  H   H67       1.0  0.47693  0.42976  0.34182  1.0000
  H   H68       1.0  0.35027  0.37175  0.28219  1.0000
  C   C35       1.0  0.53137  0.49767  0.40529  1.0000
  C   C36       1.0  0.55160  0.61487  0.29852  1.0000
  C   C37       1.0  0.34158  0.70833  0.39616  1.0000
  Fe  Fe11      1.0  0.41664  0.35509  0.50210  1.0000
  H   H69       1.0  0.33904  0.63179  0.50844  1.0000
  H   H70       1.0  0.46890  0.37845  0.39751  1.0000
  C   C38       1.0  0.27091  0.37601  0.28070  1.0000
  H   H71       1.0  0.38170  0.35656  0.36881  1.0000
  C   C39       1.0  0.30772  0.52300  0.51401  1.0000
  H   H72       1.0  0.11468  0.83382  0.41699  1.0000
  H   H73       1.0  0.37457  0.34903  0.43289  1.0000
  C   C40       1.0  0.29959  0.33962  0.33361  1.0000
  H   H74       1.0  0.23673  0.82311  0.40908  1.0000
  H   H75       1.0  0.23295  0.81797  0.47346  1.0000
  H   H76       1.0  0.30943  0.47552  0.51955  1.0000
  H   H77       1.0  0.29729  0.83374  0.35112  1.0000
  C   C41       1.0  0.54420  0.40681  0.37633  1.0000
  H   H78       1.0  0.27595  0.53272  0.51008  1.0000
  C   C42       1.0  0.07352  0.82959  0.47747  1.0000
  H   H79       1.0  0.14824  0.82948  0.45305  1.0000
  H   H80       1.0  0.55295  0.52214  0.38819  1.0000
  H   H81       1.0  0.27057  0.33870  0.34759  1.0000
  S   S20       1.0  0.47698  0.36709  0.52537  1.0000
  C   C43       1.0  0.11070  0.73427  0.66318  1.0000
  H   H82       1.0  0.33614  0.64969  0.55428  1.0000
  C   C44       1.0  0.36771  0.54436  0.54660  1.0000
  H   H83       1.0  0.13303  0.74886  0.64329  1.0000
  H   H84       1.0  0.15520  0.73643  0.72046  1.0000
  H   H85       1.0  0.23777  0.60337  0.62930  1.0000
  C   C45       1.0  0.13232  0.63563  0.65805  1.0000
  C   C46       1.0  0.30400  0.54672  0.57534  1.0000
  S   S21       1.0  0.21200  0.57397  0.75327  1.0000
  C   C47       1.0  0.24607  0.61633  0.65540  1.0000
  S   S22       1.0  0.20971  0.64632  0.56180  1.0000
  C   C48       1.0  0.10448  0.81614  0.75626  1.0000
  H   H86       1.0  0.31610  0.57425  0.59707  1.0000
  H   H87       1.0  0.15641  0.64907  0.63942  1.0000
  N   N5        1.0  0.12382  0.68300  0.68274  1.0000
  N   N6        1.0  0.32569  0.55874  0.54234  1.0000
  C   C49       1.0  0.26740  0.64927  0.72330  1.0000
  C   C50       1.0  0.22846  0.58756  0.68412  1.0000
  H   H88       1.0  0.18537  0.71151  0.68506  1.0000
  H   H89       1.0  0.10106  0.62400  0.72233  1.0000
  H   H90       1.0  0.08488  0.69728  0.72612  1.0000
  H   H91       1.0  0.14170  0.59596  0.67203  1.0000
  S   S23       1.0  0.20199  0.77895  0.59326  1.0000
  C   C51       1.0  0.06341  0.80480  0.75639  1.0000
  H   H92       1.0  0.27551  0.66237  0.74947  1.0000
  C   C52       1.0  0.23847  0.60488  0.71804  1.0000
  H   H93       1.0  0.20651  0.55262  0.68009  1.0000
  H   H94       1.0  0.29199  0.63289  0.52988  1.0000
  C   C53       1.0  0.27484  0.66095  0.66061  1.0000
  Fe  Fe12      1.0  0.16322  0.71338  0.56457  1.0000
  C   C54       1.0  0.28603  0.67672  0.69454  1.0000
  S   S24       1.0  0.29624  0.69794  0.62485  1.0000
  H   H95       1.0  0.08226  0.72439  0.64937  1.0000
  H   H96       1.0  0.38219  0.57075  0.56765  1.0000
  S   S25       1.0  0.09876  0.69539  0.57688  1.0000
  C   C55       1.0  0.07386  0.76089  0.57387  1.0000
  H   H97       1.0  0.27204  0.55612  0.57282  1.0000
  H   H98       1.0  0.30841  0.71110  0.69859  1.0000
  H   H99       1.0  0.16918  0.66242  0.71924  1.0000
  C   C56       1.0  0.16002  0.69919  0.70264  1.0000
  Fe  Fe13      1.0  0.24997  0.71557  0.58510  1.0000
  H   H100      1.0  0.10573  0.77173  0.68071  1.0000
  H   H101      1.0  0.30586  0.50022  0.58326  1.0000
  H   H102      1.0  0.06440  0.65010  0.69286  1.0000
  C   C57       1.0  0.09214  0.66270  0.70710  1.0000
  H   H103      1.0  0.10570  0.62309  0.64223  1.0000
  H   H104      1.0  0.37060  0.49745  0.55330  1.0000
  Fe  Fe14      1.0  0.21839  0.81054  0.53966  1.0000
  C   C58       1.0  0.32330  0.62111  0.53339  1.0000
  C   C59       1.0  0.09510  0.81416  0.57686  1.0000
  H   H105      1.0  0.12645  0.81522  0.58194  1.0000
  S   S26       1.0  0.27062  0.75415  0.53434  1.0000
  H   H106      1.0  0.11952  0.82955  0.73244  1.0000
  C   C60       1.0  0.12639  0.80809  0.78679  1.0000
  Fe  Fe15      1.0  0.21200  0.60996  0.88037  1.0000
  S   S27       1.0  0.20044  0.54607  0.92372  1.0000
  H   H107      1.0  0.08444  0.73588  0.91624  1.0000
  H   H108      1.0  0.33339  0.42940  0.83394  1.0000
  H   H109      1.0  0.15829  0.81505  0.78649  1.0000
  H   H110      1.0  0.26211  0.81262  0.86890  1.0000
  H   H111      1.0  0.32374  0.50510  0.84040  1.0000
  H   H112      1.0  0.31297  0.64716  0.98095  1.0000
  S   S28       1.0  0.16711  0.62359  0.83874  1.0000
  H   H113      1.0  0.44823  0.39302  0.91583  1.0000
  H   H114      1.0  0.28472  0.45075  0.84687  1.0000
  H   H115      1.0  0.31279  0.49283  0.93710  1.0000
  C   C61       1.0  0.31707  0.46028  0.85060  1.0000
  H   H116      1.0  0.11662  0.58575  0.90156  1.0000
  Fe  Fe16      1.0  0.21926  0.62604  0.80239  1.0000
  H   H117      1.0  0.26412  0.63276  0.93371  1.0000
  C   C62       1.0  0.11090  0.62661  0.91602  1.0000
  C   C63       1.0  0.23479  0.55748  0.95745  1.0000
  C   C64       1.0  0.23496  0.51872  0.98564  1.0000
  C   C65       1.0  0.26357  0.52587  0.01187  1.0000
  C   C66       1.0  0.29162  0.57234  0.01025  1.0000
  C   C67       1.0  0.18358  0.79383  0.99803  1.0000
  C   C68       1.0  0.29111  0.61148  0.98236  1.0000
  H   H118      1.0  0.21319  0.48286  0.98700  1.0000
  S   S29       1.0  0.39222  0.77685  0.01217  1.0000
  C   C69       1.0  0.26314  0.60358  0.95573  1.0000
  C   C70       1.0  0.06555  0.78371  0.81830  1.0000
  N   N7        1.0  0.32837  0.45519  0.88768  1.0000
  C   C71       1.0  0.13527  0.69471  0.01249  1.0000
  S   S30       1.0  0.26319  0.60372  0.84349  1.0000
  C   C72       1.0  0.40684  0.35453  0.95320  1.0000
  C   C73       1.0  0.31974  0.39484  0.89989  1.0000
  C   C74       1.0  0.37120  0.46978  0.89143  1.0000
  H   H119      1.0  0.38073  0.46608  0.91911  1.0000
  H   H120      1.0  0.41311  0.38720  0.97277  1.0000
  H   H121      1.0  0.33704  0.36289  0.88488  1.0000
  H   H122      1.0  0.37865  0.51522  0.88270  1.0000
  H   H123      1.0  0.32736  0.38969  0.92795  1.0000
  C   C75       1.0  0.16651  0.69151  0.98851  1.0000
  H   H124      1.0  0.08076  0.67940  0.86075  1.0000
  H   H125      1.0  0.11791  0.61795  0.94380  1.0000
  H   H126      1.0  0.27294  0.48644  0.90629  1.0000
  C   C76       1.0  0.05990  0.64826  0.87441  1.0000
  H   H127      1.0  0.31136  0.54201  0.90071  1.0000
  S   S31       1.0  0.22229  0.70482  0.89109  1.0000
  S   S32       1.0  0.33141  0.74150  0.85765  1.0000
  H   H128      1.0  0.17214  0.65094  0.97539  1.0000
  C   C77       1.0  0.19067  0.74118  0.98130  1.0000
  H   H129      1.0  0.38941  0.44001  0.87559  1.0000
  C   C78       1.0  0.10684  0.79194  0.81779  1.0000
  S   S33       1.0  0.23039  0.72315  0.80605  1.0000
  H   H130      1.0  0.21474  0.73892  0.96274  1.0000
  Fe  Fe17      1.0  0.18192  0.71853  0.84629  1.0000
  C   C79       1.0  0.34777  0.74628  0.90107  1.0000
  C   C80       1.0  0.32086  0.75331  0.92840  1.0000
  C   C81       1.0  0.33454  0.76178  0.96256  1.0000
  C   C82       1.0  0.37516  0.76136  0.96980  1.0000
  C   C83       1.0  0.40209  0.75230  0.94267  1.0000
  C   C84       1.0  0.38845  0.74576  0.90826  1.0000
  H   H131      1.0  0.28953  0.75345  0.92330  1.0000
  H   H132      1.0  0.31341  0.76778  0.98337  1.0000
  H   H133      1.0  0.28772  0.38219  0.89707  1.0000
  H   H134      1.0  0.43350  0.75150  0.94812  1.0000
  C   C85       1.0  0.42664  0.35787  0.92092  1.0000
  H   H135      1.0  0.13241  0.66122  0.90661  1.0000
  C   C86       1.0  0.30543  0.49588  0.90885  1.0000
  H   H136      1.0  0.54177  0.36189  0.95522  1.0000
  S   S34       1.0  0.13376  0.78084  0.85590  1.0000
  Fe  Fe18      1.0  0.27018  0.70056  0.85072  1.0000
  H   H137      1.0  0.40937  0.73984  0.88720  1.0000
  H   H138      1.0  0.07246  0.70026  0.95681  1.0000
  S   S35       1.0  0.10207  0.63493  0.01883  1.0000
  C   C87       1.0  0.06473  0.70157  0.92862  1.0000
  H   H139      1.0  0.06203  0.60539  0.86114  1.0000
  N   N8        1.0  0.06951  0.64419  0.91191  1.0000
  C   C88       1.0  0.15396  0.79615  0.02349  1.0000
  H   H140      1.0  0.20268  0.83465  0.90451  1.0000
  S   S36       1.0  0.34940  0.04537  0.04088  1.0000
  H   H141      1.0  0.11924  0.05929  0.16813  1.0000
  H   H142      1.0  0.33102  0.32151  0.25003  1.0000
  Fe  Fe19      1.0  0.29240  0.86112  0.09740  1.0000
  C   C89       1.0  0.26527  0.90761  0.17322  1.0000
  H   H143      1.0  0.14006  0.03923  0.20928  1.0000
  C   C90       1.0  0.13067  0.92311  0.20060  1.0000
  H   H144      1.0  0.15955  0.91459  0.18771  1.0000
  C   C91       1.0  0.07118  0.97837  0.19957  1.0000
  C   C92       1.0  0.24493  0.90857  0.20513  1.0000
  S   S37       1.0  0.35459  0.88979  0.08241  1.0000
  H   H145      1.0  0.27282  0.25331  0.10660  1.0000
  H   H146      1.0  0.23599  0.86803  0.21784  1.0000
  Fe  Fe20      1.0  0.32458  0.95450  0.04872  1.0000
  S   S38       1.0  0.26293  0.93142  0.06721  1.0000
  N   N9        1.0  0.10950  0.96891  0.18198  1.0000
  H   H147      1.0  0.13721  0.93612  0.22804  1.0000
  H   H148      1.0  0.11640  0.11334  0.26616  1.0000
  C   C93       1.0  0.52914  0.30255  0.07420  1.0000
  S   S39       1.0  0.27477  0.84114  0.15286  1.0000
  H   H149      1.0  0.32293  0.15639  0.13522  1.0000
  S   S40       1.0  0.23134  0.08179  0.21944  1.0000
  H   H150      1.0  0.27489  0.05370  0.15831  1.0000
  H   H151      1.0  0.31468  0.10627  0.09981  1.0000
  N   N10       1.0  0.31609  0.19676  0.08502  1.0000
  C   C94       1.0  0.06743  0.11860  0.23075  1.0000
  H   H152      1.0  0.27432  0.14670  0.11667  1.0000
  H   H153      1.0  0.26118  0.18419  0.05713  1.0000
  H   H154      1.0  0.08608  0.12673  0.20813  1.0000
  H   H155      1.0  0.31114  0.28945  0.08111  1.0000
  H   H156      1.0  0.30149  0.14372  0.04032  1.0000
  C   C95       1.0  0.24558  0.01450  0.20294  1.0000
  C   C96       1.0  0.29374  0.18580  0.05242  1.0000
  C   C97       1.0  0.26646  0.01334  0.17142  1.0000
  C   C98       1.0  0.30495  0.25322  0.09991  1.0000
  C   C99       1.0  0.30657  0.14950  0.11032  1.0000
  H   H157      1.0  0.11289  0.88121  0.20127  1.0000
  H   H158      1.0  0.37693  0.20761  0.10130  1.0000
  H   H159      1.0  0.36872  0.15682  0.06625  1.0000
  C   C100      1.0  0.08454  0.11134  0.26363  1.0000
  H   H160      1.0  0.21951  0.96272  0.24462  1.0000
  C   C101      1.0  0.23539  0.96210  0.22016  1.0000
  H   H161      1.0  0.05450  0.01292  0.18622  1.0000
  C   C102      1.0  0.35913  0.19870  0.07740  1.0000
  C   C103      1.0  0.27685  0.96012  0.15691  1.0000
  H   H162      1.0  0.36727  0.23322  0.05799  1.0000
  H   H163      1.0  0.29401  0.95990  0.13309  1.0000
  H   H164      1.0  0.08598  0.98394  0.13083  1.0000
  H   H165      1.0  0.30045  0.22043  0.03265  1.0000
  H   H166      1.0  0.32179  0.26375  0.12419  1.0000
  H   H167      1.0  0.51845  0.25767  0.07686  1.0000
  H   H168      1.0  0.16348  0.01808  0.16952  1.0000
  H   H169      1.0  0.08353  0.90906  0.14447  1.0000
  C   C104      1.0  0.10206  0.95038  0.14557  1.0000
  C   C105      1.0  0.13408  0.02374  0.18217  1.0000
  H   H170      1.0  0.13030  0.94284  0.13141  1.0000
  H   H171      1.0  0.30072  0.91274  0.26563  1.0000
  H   H172      1.0  0.07549  0.99237  0.22716  1.0000
  H   H173      1.0  0.26889  0.26294  0.26206  1.0000
  H   H174      1.0  0.36364  0.86207  0.27528  1.0000
  S   S41       1.0  0.23020  0.91910  0.36175  1.0000
  H   H175      1.0  0.35802  0.95715  0.46783  1.0000
  H   H176      1.0  0.29672  0.00244  0.48176  1.0000
  C   C106      1.0  0.06037  0.10189  0.29302  1.0000
  C   C107      1.0  0.32973  0.11917  0.43512  1.0000
  H   H177      1.0  0.13530  0.88474  0.50787  1.0000
  C   C108      1.0  0.37087  0.97780  0.49173  1.0000
  C   C109      1.0  0.22776  0.96704  0.42714  1.0000
  H   H178      1.0  0.35796  0.86964  0.32184  1.0000
  C   C110      1.0  0.23115  0.91633  0.40735  1.0000
  C   C111      1.0  0.23351  0.86252  0.42417  1.0000
  C   C112      1.0  0.23109  0.85946  0.46060  1.0000
  C   C113      1.0  0.22564  0.90981  0.48019  1.0000
  C   C114      1.0  0.30810  0.01782  0.50742  1.0000
  C   C115      1.0  0.11615  0.91292  0.49196  1.0000
  H   H179      1.0  0.28762  0.10068  0.39392  1.0000
  C   C116      1.0  0.30188  0.13423  0.40979  1.0000
  H   H180      1.0  0.13544  0.94989  0.48210  1.0000
  N   N11       1.0  0.09703  0.87986  0.46308  1.0000
  H   H181      1.0  0.29613  0.92152  0.31204  1.0000
  C   C117      1.0  0.34841  0.16250  0.45574  1.0000
  H   H182      1.0  0.09373  0.93118  0.50986  1.0000
  C   C118      1.0  0.33892  0.22079  0.45107  1.0000
  C   C119      1.0  0.22396  0.96369  0.46347  1.0000
  H   H183      1.0  0.14646  0.89552  0.42815  1.0000
  H   H184      1.0  0.33716  0.07411  0.43830  1.0000
  H   H185      1.0  0.35241  0.29484  0.28969  1.0000
  H   H186      1.0  0.35232  0.25432  0.46743  1.0000
  C   C120      1.0  0.12788  0.85872  0.43925  1.0000
  Fe  Fe21      1.0  0.41872  0.22445  0.50375  1.0000
  H   H187      1.0  0.22026  0.00296  0.47856  1.0000
  S   S42       1.0  0.18561  0.07650  0.37382  1.0000
  Fe  Fe22      1.0  0.21420  0.00725  0.34219  1.0000
  Fe  Fe23      1.0  0.14715  0.08675  0.32724  1.0000
  Fe  Fe24      1.0  0.22845  0.13736  0.34584  1.0000
  S   S43       1.0  0.25919  0.21313  0.37264  1.0000
  H   H188      1.0  0.22855  0.00896  0.41463  1.0000
  H   H189      1.0  0.31801  0.06433  0.50405  1.0000
  Fe  Fe25      1.0  0.21487  0.07843  0.27610  1.0000
  S   S44       1.0  0.18710  0.15464  0.30173  1.0000
  Fe  Fe26      1.0  0.49441  0.29621  0.48928  1.0000
  S   S45       1.0  0.55095  0.29833  0.45827  1.0000
  S   S46       1.0  0.17134  0.01180  0.29789  1.0000
  S   S47       1.0  0.26035  0.06738  0.31775  1.0000
  S   S48       1.0  0.38366  0.14379  0.48722  1.0000
  H   H190      1.0  0.29053  0.23592  0.30143  1.0000
  S   S49       1.0  0.08163  0.09271  0.33410  1.0000
  S   S50       1.0  0.43593  0.29011  0.46256  1.0000
  H   H191      1.0  0.30451  0.28117  0.42196  1.0000
  C   C121      1.0  0.29299  0.19276  0.40480  1.0000
  C   C122      1.0  0.31154  0.23593  0.42548  1.0000
  C   C123      1.0  0.27354  0.27218  0.29028  1.0000
  C   C124      1.0  0.28917  0.89142  0.28993  1.0000
  H   H192      1.0  0.38319  0.02171  0.48408  1.0000
  H   H193      1.0  0.05520  0.89448  0.42197  1.0000
  C   C125      1.0  0.33376  0.32924  0.27863  1.0000
  H   H194      1.0  0.08743  0.95630  0.43219  1.0000
  C   C126      1.0  0.07056  0.91822  0.44372  1.0000
  H   H195      1.0  0.31753  0.30546  0.34590  1.0000
  H   H196      1.0  0.25626  0.88751  0.28797  1.0000
  N   N12       1.0  0.34073  0.98190  0.51965  1.0000
  H   H197      1.0  0.39617  0.95157  0.50018  1.0000
  H   H198      1.0  0.24395  0.27036  0.30333  1.0000
  H   H199      1.0  0.30975  0.90158  0.50576  1.0000
  H   H200      1.0  0.05993  0.11684  0.40563  1.0000
  C   C127      1.0  0.34989  0.84175  0.29900  1.0000
  N   N13       1.0  0.29444  0.32924  0.29580  1.0000
  S   S51       1.0  0.22080  0.90521  0.52549  1.0000
  H   H201      1.0  0.37179  0.05380  0.54474  1.0000
  H   H202      1.0  0.53697  0.16913  0.66918  1.0000
  H   H203      1.0  0.34866  0.89388  0.53720  1.0000
  C   C128      1.0  0.07590  0.86666  0.57312  1.0000
  S   S52       1.0  0.48167  0.30732  0.61608  1.0000
  H   H204      1.0  0.53316  0.01742  0.70268  1.0000
  H   H205      1.0  0.48668  0.30461  0.69053  1.0000
  H   H206      1.0  0.38344  0.98312  0.56119  1.0000
  C   C129      1.0  0.53571  0.05453  0.68395  1.0000
  H   H207      1.0  0.33681  0.01413  0.57213  1.0000
  H   H208      1.0  0.30247  0.92397  0.54998  1.0000
  S   S53       1.0  0.39557  0.28920  0.54207  1.0000
  Fe  Fe27      1.0  0.45847  0.29430  0.56158  1.0000
  H   H209      1.0  0.09273  0.90764  0.57530  1.0000
  S   S54       1.0  0.44262  0.10684  0.72550  1.0000
  H   H210      1.0  0.50574  0.07276  0.68191  1.0000
  C   C130      1.0  0.46866  0.25226  0.64630  1.0000
  C   C131      1.0  0.45338  0.19789  0.63526  1.0000
  C   C132      1.0  0.44477  0.15370  0.65986  1.0000
  C   C133      1.0  0.45084  0.16408  0.69552  1.0000
  C   C134      1.0  0.46572  0.21867  0.70655  1.0000
  C   C135      1.0  0.47500  0.26247  0.68192  1.0000
  H   H211      1.0  0.44842  0.18982  0.60779  1.0000
  H   H212      1.0  0.43323  0.11150  0.65126  1.0000
  H   H213      1.0  0.47032  0.22710  0.73401  1.0000
  S   S55       1.0  0.47988  0.22350  0.52684  1.0000
  H   H214      1.0  0.52555  0.14069  0.73063  1.0000
  C   C136      1.0  0.35903  0.00932  0.55086  1.0000
  H   H215      1.0  0.54326  0.03691  0.65784  1.0000
  H   H216      1.0  0.28271  0.01654  0.52613  1.0000
  C   C137      1.0  0.32483  0.92272  0.52854  1.0000
  H   H217      1.0  0.55283  0.08372  0.74991  1.0000
  C   C138      1.0  0.38929  0.93213  0.93072  1.0000
  H   H218      1.0  0.47884  0.00003  0.91378  1.0000
  C   C139      1.0  0.37926  0.30870  0.95999  1.0000
  C   C140      1.0  0.44124  0.90200  0.89214  1.0000
  H   H219      1.0  0.27817  0.97357  0.86438  1.0000
  H   H220      1.0  0.39973  0.11514  0.99490  1.0000
  H   H221      1.0  0.37785  0.88636  0.93473  1.0000
  C   C141      1.0  0.31533  0.03556  0.97655  1.0000
  C   C142      1.0  0.20476  0.88005  0.89410  1.0000
  N   N14       1.0  0.43252  0.93480  0.92425  1.0000
  H   H222      1.0  0.47364  0.90291  0.88643  1.0000
  C   C143      1.0  0.44651  0.99629  0.91990  1.0000
  H   H223      1.0  0.26022  0.92634  0.93707  1.0000
  H   H224      1.0  0.42628  0.92085  0.86907  1.0000
  C   C144      1.0  0.27087  0.89623  0.91664  1.0000
  H   H225      1.0  0.43064  0.01777  0.89826  1.0000
  C   C145      1.0  0.50344  0.25802  0.95561  1.0000
  H   H226      1.0  0.35018  0.23083  0.93953  1.0000
  H   H227      1.0  0.18489  0.88166  0.87104  1.0000
  C   C146      1.0  0.26151  0.85782  0.85860  1.0000
  H   H228      1.0  0.29120  0.01146  0.98937  1.0000
  N   N15       1.0  0.24609  0.89805  0.88500  1.0000
  C   C147      1.0  0.31602  0.04030  0.94013  1.0000
  H   H229      1.0  0.30239  0.90837  0.91079  1.0000
  Fe  Fe28      1.0  0.44630  0.13203  0.78219  1.0000
  S   S56       1.0  0.32096  0.89614  0.00227  1.0000
  H   H230      1.0  0.44134  0.02204  0.94396  1.0000
  C   C148      1.0  0.24722  0.95798  0.87071  1.0000
  H   H231      1.0  0.48329  0.29519  0.95622  1.0000
  N   N16       1.0  0.54065  0.27346  0.93665  1.0000
  C   C149      1.0  0.45287  0.90880  0.95426  1.0000
  H   H232      1.0  0.44276  0.86251  0.95846  1.0000
  H   H233      1.0  0.29247  0.87047  0.85068  1.0000
  H   H234      1.0  0.38160  0.95750  0.95438  1.0000
  H   H235      1.0  0.37295  0.95068  0.90839  1.0000
  S   S57       1.0  0.54602  0.07732  0.87527  1.0000
  Fe  Fe29      1.0  0.44795  0.22433  0.83786  1.0000
  S   S58       1.0  0.45184  0.15910  0.88091  1.0000
  S   S59       1.0  0.44544  0.31694  0.85609  1.0000
  Fe  Fe30      1.0  0.40482  0.10869  0.85173  1.0000
  S   S60       1.0  0.35156  0.06399  0.87757  1.0000
  Fe  Fe31      1.0  0.49524  0.11558  0.84686  1.0000
  S   S61       1.0  0.44873  0.05869  0.82095  1.0000
  H   H236      1.0  0.51329  0.32855  0.89915  1.0000
  C   C150      1.0  0.41916  0.31502  0.89560  1.0000
  C   C151      1.0  0.39147  0.26945  0.90238  1.0000
  C   C152      1.0  0.37161  0.26627  0.93450  1.0000
  S   S62       1.0  0.39777  0.17695  0.81054  1.0000
  H   H237      1.0  0.22953  0.96048  0.84635  1.0000
  H   H238      1.0  0.48560  0.90993  0.95037  1.0000
  H   H239      1.0  0.38489  0.23679  0.88271  1.0000
  H   H240      1.0  0.29258  0.01984  0.92498  1.0000
  S   S63       1.0  0.49654  0.18571  0.80602  1.0000
  H   H241      1.0  0.43077  0.85551  0.89436  1.0000
  C   C153      1.0  0.34623  0.06080  0.99625  1.0000
  S   S64       1.0  0.35291  0.30409  0.99947  1.0000
  H   H242      1.0  0.23490  0.98929  0.88965  1.0000
  C   C154      1.0  0.34760  0.06992  0.92322  1.0000
  C   C155      1.0  0.37684  0.09895  0.94316  1.0000
  C   C156      1.0  0.37618  0.09450  0.97968  1.0000
  H   H243      1.0  0.44657  0.93251  0.97890  1.0000
  H   H244      1.0  0.48696  0.22076  0.94309  1.0000
  H   H245      1.0  0.40052  0.12364  0.93069  1.0000
  H   H246      1.0  0.19250  0.90846  0.91470  1.0000
  H   H247      1.0  0.50941  0.24574  0.98318  1.0000
  H   H248      1.0  0.24285  0.85657  0.83471  1.0000
  C   C157      1.0  0.53181  0.28955  0.90025  1.0000
  H   H249      1.0  0.51551  0.25357  0.88636  1.0000
  S   S65       1.0  0.21151  0.85678  0.98696  1.0000
  Fe  Fe32      1.0  0.26215  0.86663  0.02382  1.0000
  H   H250      1.0  0.26980  0.85193  0.92851  1.0000
  H   H251      1.0  0.55198  0.18437  0.92388  1.0000
  H   H252      1.0  0.84539  0.52633  0.11308  1.0000
  S   S66       1.0  0.78190  0.49239  0.22011  1.0000
  H   H253      1.0  0.80692  0.56145  0.16350  1.0000
  H   H254      1.0  0.67193  0.41267  0.05573  1.0000
  N   N17       1.0  0.88417  0.40055  0.18728  1.0000
  C   C158      1.0  0.84777  0.63305  0.17486  1.0000
  Fe  Fe33      1.0  0.71548  0.49330  0.21931  1.0000
  S   S67       1.0  0.67596  0.44629  0.18077  1.0000
  Fe  Fe34      1.0  0.77856  0.58758  0.23293  1.0000
  C   C159      1.0  0.89073  0.59473  0.11688  1.0000
  H   H255      1.0  0.65411  0.66602  0.26084  1.0000
  C   C160      1.0  0.85594  0.56437  0.12743  1.0000
  C   C161      1.0  0.55673  0.41860  0.06776  1.0000
  C   C162      1.0  0.69305  0.45752  0.13807  1.0000
  C   C163      1.0  0.72886  0.48852  0.13147  1.0000
  C   C164      1.0  0.83437  0.58378  0.15623  1.0000
  C   C165      1.0  0.72418  0.46272  0.07025  1.0000
  C   C166      1.0  0.68776  0.43376  0.07681  1.0000
  C   C167      1.0  0.67199  0.43150  0.11056  1.0000
  H   H256      1.0  0.74479  0.50958  0.15260  1.0000
  H   H257      1.0  0.60888  0.38339  0.04519  1.0000
  S   S68       1.0  0.91724  0.57031  0.08065  1.0000
  H   H258      1.0  0.64382  0.40863  0.11531  1.0000
  H   H259      1.0  0.58436  0.43437  0.17833  1.0000
  S   S69       1.0  0.74493  0.45914  0.02844  1.0000
  H   H260      1.0  0.57496  0.53741  0.23035  1.0000
  C   C168      1.0  0.87867  0.43070  0.22093  1.0000
  C   C169      1.0  0.74447  0.49127  0.09746  1.0000
  H   H261      1.0  0.77263  0.51395  0.09254  1.0000
  H   H262      1.0  0.84906  0.37296  0.14319  1.0000
  C   C170      1.0  0.59070  0.66614  0.25427  1.0000
  C   C171      1.0  0.55614  0.45797  0.17965  1.0000
  H   H263      1.0  0.93094  0.66785  0.12722  1.0000
  S   S70       1.0  0.71235  0.58974  0.22714  1.0000
  C   C172      1.0  0.58311  0.53397  0.14195  1.0000
  H   H264      1.0  0.85574  0.40753  0.23745  1.0000
  H   H265      1.0  0.91273  0.82653  0.20959  1.0000
  Fe  Fe35      1.0  0.96078  0.64002  0.06204  1.0000
  C   C173      1.0  0.88244  0.66367  0.16408  1.0000
  C   C174      1.0  0.62562  0.65136  0.27129  1.0000
  H   H266      1.0  0.84798  0.78377  0.19210  1.0000
  H   H267      1.0  0.59736  0.59035  0.20107  1.0000
  C   C175      1.0  0.89810  0.34121  0.19385  1.0000
  C   C176      1.0  0.93306  0.82568  0.12798  1.0000
  H   H268      1.0  0.58927  0.58154  0.13816  1.0000
  H   H269      1.0  0.91839  0.41260  0.14012  1.0000
  H   H270      1.0  0.87352  0.50259  0.03149  1.0000
  S   S71       1.0  0.82177  0.65643  0.21180  1.0000
  C   C177      1.0  0.58024  0.37331  0.05643  1.0000
  H   H271      1.0  0.84054  0.59185  0.05019  1.0000
  Fe  Fe36      1.0  0.04321  0.66837  0.03491  1.0000
  S   S72       1.0  0.94159  0.73202  0.05648  1.0000
  C   C178      1.0  0.86665  0.77637  0.26021  1.0000
  H   H272      1.0  0.90445  0.47897  0.16067  1.0000
  H   H273      1.0  0.93295  0.77958  0.12254  1.0000
  C   C179      1.0  0.84602  0.39641  0.16842  1.0000
  H   H274      1.0  0.56741  0.46339  0.06477  1.0000
  H   H275      1.0  0.61783  0.52008  0.20512  1.0000
  H   H276      1.0  0.86910  0.47614  0.21699  1.0000
  H   H277      1.0  0.88187  0.74384  0.24385  1.0000
  S   S73       1.0  0.01812  0.66300  0.08908  1.0000
  H   H278      1.0  0.89307  0.70174  0.17833  1.0000
  H   H279      1.0  0.59242  0.69168  0.23051  1.0000
  H   H280      1.0  0.94315  0.43731  0.17914  1.0000
  C   C180      1.0  0.90389  0.64453  0.13510  1.0000
  H   H281      1.0  0.90659  0.43327  0.23630  1.0000
  S   S74       1.0  0.01348  0.82685  0.11804  1.0000
  Fe  Fe37      1.0  0.00131  0.75509  0.07938  1.0000
  C   C181      1.0  0.91386  0.43378  0.16589  1.0000
  H   H282      1.0  0.83478  0.44036  0.16263  1.0000
  H   H283      1.0  0.79358  0.56201  0.03577  1.0000
  C   C182      1.0  0.58952  0.54319  0.20438  1.0000
  H   H284      1.0  0.86931  0.82794  0.13148  1.0000
  H   H285      1.0  0.61191  0.51203  0.13991  1.0000
  H   H286      1.0  0.80492  0.79328  0.21845  1.0000
  H   H287      1.0  0.72617  0.35332  0.15425  1.0000
  H   H288      1.0  0.82287  0.37186  0.18395  1.0000
  N   N18       1.0  0.56353  0.52158  0.17588  1.0000
  H   H289      1.0  0.92656  0.34228  0.20844  1.0000
  H   H290      1.0  0.56421  0.51835  0.11988  1.0000
  S   S75       1.0  0.70879  0.47027  0.27573  1.0000
  S   S76       1.0  0.03106  0.76266  0.02728  1.0000
  C   C183      1.0  0.83355  0.81474  0.21000  1.0000
  C   C184      1.0  0.82072  0.58721  0.02714  1.0000
  N   N19       1.0  0.85917  0.82987  0.24013  1.0000
  H   H291      1.0  0.83841  0.75461  0.26945  1.0000
  H   H292      1.0  0.74192  0.61806  0.35790  1.0000
  Fe  Fe38      1.0  0.81638  0.45828  0.49083  1.0000
  S   S77       1.0  0.86223  0.49855  0.45481  1.0000
  S   S78       1.0  0.67155  0.50698  0.49167  1.0000
  H   H293      1.0  0.74472  0.55561  0.46250  1.0000
  N   N20       1.0  0.73702  0.58193  0.40947  1.0000
  C   C185      1.0  0.62355  0.61893  0.30218  1.0000
  H   H294      1.0  0.95837  0.56024  0.50433  1.0000
  H   H295      1.0  0.77014  0.65740  0.39036  1.0000
  C   C186      1.0  0.85117  0.47355  0.41258  1.0000
  C   C187      1.0  0.85313  0.51229  0.38431  1.0000
  C   C188      1.0  0.84053  0.49364  0.35113  1.0000
  C   C189      1.0  0.82685  0.43589  0.34605  1.0000
  C   C190      1.0  0.82626  0.39672  0.37409  1.0000
  C   C191      1.0  0.83796  0.41569  0.40738  1.0000
  H   H296      1.0  0.86361  0.55696  0.38821  1.0000
  H   H297      1.0  0.68295  0.59196  0.43840  1.0000
  S   S79       1.0  0.66706  0.59888  0.32312  1.0000
  S   S80       1.0  0.81021  0.41196  0.30498  1.0000
  H   H298      1.0  0.84208  0.52363  0.32937  1.0000
  C   C192      1.0  0.72532  0.52255  0.39739  1.0000
  H   H299      1.0  0.70765  0.49811  0.41766  1.0000
  H   H300      1.0  0.75176  0.49672  0.39119  1.0000
  H   H301      1.0  0.56603  0.42862  0.35824  1.0000
  S   S81       1.0  0.77661  0.57388  0.29093  1.0000
  C   C193      1.0  0.62369  0.35320  0.45846  1.0000
  C   C194      1.0  0.58652  0.60144  0.31609  1.0000
  S   S82       1.0  0.85378  0.76025  0.52120  1.0000
  S   S83       1.0  0.76263  0.41422  0.46728  1.0000
  C   C195      1.0  0.76164  0.57787  0.44107  1.0000
  H   H302      1.0  0.70688  0.52396  0.37340  1.0000
  H   H303      1.0  0.70888  0.65917  0.42711  1.0000
  C   C196      1.0  0.76005  0.61297  0.38181  1.0000
  C   C197      1.0  0.70113  0.61435  0.41772  1.0000
  H   H304      1.0  0.68178  0.61832  0.39449  1.0000
  H   H305      1.0  0.78678  0.58886  0.37437  1.0000
  H   H306      1.0  0.83687  0.38542  0.42906  1.0000
  H   H307      1.0  0.58496  0.57650  0.34000  1.0000
  C   C198      1.0  0.63747  0.45067  0.48076  1.0000
  C   C199      1.0  0.58355  0.35779  0.46659  1.0000
  H   H308      1.0  0.58679  0.49602  0.49915  1.0000
  Fe  Fe39      1.0  0.72861  0.46631  0.50544  1.0000
  C   C200      1.0  0.59710  0.45620  0.48775  1.0000
  H   H309      1.0  0.77158  0.62169  0.45079  1.0000
  H   H310      1.0  0.68163  0.39468  0.46018  1.0000
  H   H311      1.0  0.56095  0.39105  0.39923  1.0000
  C   C201      1.0  0.57018  0.40951  0.48096  1.0000
  Fe  Fe40      1.0  0.76769  0.35043  0.51110  1.0000
  H   H312      1.0  0.90900  0.66967  0.50751  1.0000
  H   H313      1.0  0.89324  0.60002  0.49019  1.0000
  Fe  Fe41      1.0  0.77503  0.47896  0.27759  1.0000
  H   H314      1.0  0.78858  0.55268  0.43604  1.0000
  H   H315      1.0  0.81590  0.35199  0.37021  1.0000
  S   S84       1.0  0.78191  0.51655  0.52547  1.0000
  H   H316      1.0  0.97473  0.63009  0.52144  1.0000
  C   C202      1.0  0.65066  0.39924  0.46598  1.0000
  Fe  Fe42      1.0  0.71066  0.56674  0.28401  1.0000
  H   H317      1.0  0.86454  0.63329  0.52367  1.0000
  C   C203      1.0  0.89538  0.62625  0.51454  1.0000
  H   H318      1.0  0.88551  0.78594  0.28342  1.0000
  H   H319      1.0  0.89098  0.64024  0.58445  1.0000
  Fe  Fe43      1.0  0.95746  0.62089  0.69909  1.0000
  S   S85       1.0  0.96677  0.54424  0.66445  1.0000
  N   N21       1.0  0.91865  0.59700  0.54152  1.0000
  C   C204      1.0  0.01390  0.81307  0.56263  1.0000
  H   H320      1.0  0.80418  0.40331  0.68256  1.0000
  C   C205      1.0  0.83110  0.49731  0.71934  1.0000
  S   S86       1.0  0.90082  0.62517  0.72934  1.0000
  C   C206      1.0  0.92097  0.63378  0.57314  1.0000
  H   H321      1.0  0.87423  0.42388  0.75667  1.0000
  S   S87       1.0  0.79390  0.46663  0.62019  1.0000
  Fe  Fe44      1.0  0.78524  0.44388  0.56415  1.0000
  H   H322      1.0  0.90608  0.79328  0.63869  1.0000
  N   N22       1.0  0.81799  0.43946  0.73300  1.0000
  H   H323      1.0  0.91615  0.51626  0.57002  1.0000
  H   H324      1.0  0.81424  0.35039  0.71537  1.0000
  C   C207      1.0  0.84220  0.42511  0.76367  1.0000
  H   H325      1.0  0.85422  0.39401  0.69645  1.0000
  C   C208      1.0  0.92000  0.52363  0.64810  1.0000
  C   C209      1.0  0.91182  0.46643  0.63688  1.0000
  C   C210      1.0  0.87325  0.44929  0.62648  1.0000
  C   C211      1.0  0.84308  0.48940  0.62752  1.0000
  C   C212      1.0  0.85168  0.54710  0.63732  1.0000
  C   C213      1.0  0.89011  0.56418  0.64754  1.0000
  H   H326      1.0  0.93496  0.43505  0.63721  1.0000
  H   H327      1.0  0.86653  0.40457  0.61890  1.0000
  H   H328      1.0  0.82841  0.57830  0.63790  1.0000
  H   H329      1.0  0.89643  0.60884  0.65521  1.0000
  S   S88       1.0  0.99589  0.65014  0.74371  1.0000
  Fe  Fe45      1.0  0.98644  0.74018  0.72329  1.0000
  H   H330      1.0  0.81249  0.51022  0.69691  1.0000
  C   C214      1.0  0.82292  0.39486  0.70568  1.0000
  H   H331      1.0  0.93931  0.61378  0.59374  1.0000
  C   C215      1.0  0.89908  0.54000  0.55014  1.0000
  C   C216      1.0  0.81998  0.72636  0.58329  1.0000
  C   C217      1.0  0.77572  0.44076  0.74322  1.0000
  H   H332      1.0  0.79584  0.70780  0.56786  1.0000
  H   H333      1.0  0.90988  0.79701  0.57415  1.0000
  H   H334      1.0  0.86865  0.54527  0.56074  1.0000
  H   H335      1.0  0.75679  0.45142  0.72051  1.0000
  H   H336      1.0  0.79224  0.70364  0.63253  1.0000
  C   C218      1.0  0.03298  0.76034  0.56753  1.0000
  H   H337      1.0  0.96053  0.83617  0.67744  1.0000
  C   C219      1.0  0.81790  0.72415  0.61982  1.0000
  S   S89       1.0  0.72859  0.39879  0.54736  1.0000
  Fe  Fe46      1.0  0.89998  0.71671  0.70934  1.0000
  S   S90       1.0  0.93210  0.75536  0.75548  1.0000
  H   H338      1.0  0.01639  0.71919  0.56544  1.0000
  S   S91       1.0  0.84475  0.74994  0.68548  1.0000
  H   H339      1.0  0.86248  0.49756  0.71014  1.0000
  S   S92       1.0  0.95385  0.70949  0.67571  1.0000
  C   C220      1.0  0.85267  0.75398  0.56677  1.0000
  C   C221      1.0  0.88404  0.77722  0.58681  1.0000
  C   C222      1.0  0.88222  0.77423  0.62332  1.0000
  C   C223      1.0  0.84893  0.74833  0.63987  1.0000
  H   H340      1.0  0.76464  0.39779  0.75349  1.0000
  C   C224      1.0  0.57577  0.35431  0.56576  1.0000
  S   S93       1.0  0.03683  0.80579  0.71732  1.0000
  H   H341      1.0  0.61244  0.34305  0.62702  1.0000
  H   H342      1.0  0.76745  0.83004  0.61854  1.0000
  H   H343      1.0  0.59036  0.39659  0.55770  1.0000
  H   H344      1.0  0.97745  0.56585  0.54802  1.0000
  H   H345      1.0  0.82902  0.53184  0.73954  1.0000
  Fe  Fe47      1.0  0.93871  0.66219  0.77236  1.0000
  H   H346      1.0  0.77090  0.47378  0.76387  1.0000
  H   H347      1.0  0.93448  0.67776  0.56731  1.0000
  H   H348      1.0  0.64731  0.37405  0.59580  1.0000
  H   H349      1.0  0.98258  0.81253  0.55675  1.0000
  S   S94       1.0  0.82509  0.38956  0.53156  1.0000
  H   H350      1.0  0.55574  0.36295  0.58820  1.0000
  H   H351      1.0  0.77656  0.81010  0.66299  1.0000
  H   H352      1.0  0.83304  0.38163  0.77465  1.0000
  H   H353      1.0  0.64524  0.34085  0.53411  1.0000
  H   H354      1.0  0.89624  0.51153  0.52669  1.0000
  C   C225      1.0  0.95912  0.58790  0.52820  1.0000
  H   H355      1.0  0.55680  0.33869  0.54377  1.0000
  S   S95       1.0  0.93054  0.62060  0.82523  1.0000
  C   C226      1.0  0.94044  0.67566  0.92466  1.0000
  C   C227      1.0  0.85264  0.49963  0.00912  1.0000
  H   H356      1.0  0.05027  0.77213  0.84235  1.0000
  S   S96       1.0  0.98747  0.63632  0.00841  1.0000
  C   C228      1.0  0.93555  0.64073  0.89495  1.0000
  H   H357      1.0  0.82697  0.52999  0.94558  1.0000
  H   H358      1.0  0.89736  0.59913  0.00903  1.0000
  H   H359      1.0  0.01112  0.61191  0.92623  1.0000
  H   H360      1.0  0.03371  0.71601  0.92649  1.0000
  C   C229      1.0  0.94857  0.76120  0.88799  1.0000
  H   H361      1.0  0.93027  0.59412  0.89767  1.0000
  C   C230      1.0  0.93736  0.66587  0.86165  1.0000
  H   H362      1.0  0.02927  0.66344  0.87033  1.0000
  H   H363      1.0  0.93873  0.65617  0.95019  1.0000
  H   H364      1.0  0.94595  0.74570  0.83249  1.0000
  H   H365      1.0  0.86758  0.47625  0.98767  1.0000
  H   H366      1.0  0.80314  0.59504  0.95903  1.0000
  N   N23       1.0  0.84057  0.55800  0.99788  1.0000
  H   H367      1.0  0.89202  0.57233  0.96526  1.0000
  S   S97       1.0  0.65409  0.37457  0.98370  1.0000
  H   H368      1.0  0.04933  0.59594  0.95704  1.0000
  H   H369      1.0  0.01224  0.77996  0.78769  1.0000
  C   C231      1.0  0.94665  0.73590  0.92127  1.0000
  H   H370      1.0  0.95359  0.80784  0.88523  1.0000
  C   C232      1.0  0.04261  0.60014  0.92873  1.0000
  Fe  Fe48      1.0  0.71641  0.37977  0.00371  1.0000
  Fe  Fe49      1.0  0.97323  0.73075  0.00519  1.0000
  S   S98       1.0  0.95186  0.77966  0.95857  1.0000
  C   C233      1.0  0.94429  0.72610  0.85813  1.0000
  H   H371      1.0  0.04570  0.55638  0.91677  1.0000
  H   H372      1.0  0.81161  0.63158  0.01972  1.0000
  H   H373      1.0  0.86818  0.63765  0.97820  1.0000
  C   C234      1.0  0.81296  0.55186  0.96813  1.0000
  C   C235      1.0  0.87608  0.59336  0.98707  1.0000
  H   H374      1.0  0.90458  0.83456  0.01399  1.0000
  H   H375      1.0  0.78583  0.52526  0.97539  1.0000
  H   H376      1.0  0.83927  0.45788  0.78481  1.0000
  C   C236      1.0  0.04397  0.78857  0.78740  1.0000
  H   H377      1.0  0.82668  0.47181  0.01772  1.0000
  H   H378      1.0  0.73681  0.34959  0.88506  1.0000
  H   H379      1.0  0.58846  0.33756  0.93960  1.0000
  S   S99       1.0  0.85255  0.94631  0.14906  1.0000
  H   H380      1.0  0.97285  0.88502  0.05795  1.0000
  H   H381      1.0  0.91766  0.86719  0.24962  1.0000
  C   C237      1.0  0.89724  0.91220  0.14172  1.0000
  H   H382      1.0  0.66458  0.29373  0.10554  1.0000
  H   H383      1.0  0.92373  0.95857  0.07464  1.0000
  C   C238      1.0  0.00205  0.10610  0.25657  1.0000
  C   C239      1.0  0.96918  0.91688  0.13906  1.0000
  C   C240      1.0  0.93332  0.94392  0.14496  1.0000
  H   H384      1.0  0.72006  0.22277  0.09735  1.0000
  H   H385      1.0  0.99690  0.94213  0.14054  1.0000
  H   H386      1.0  0.89264  0.89753  0.21314  1.0000
  H   H387      1.0  0.97019  0.10412  0.25402  1.0000
  C   C241      1.0  0.79449  0.19722  0.04051  1.0000
  H   H388      1.0  0.93378  0.98985  0.15093  1.0000
  H   H389      1.0  0.64220  0.24589  0.13752  1.0000
  H   H390      1.0  0.87599  0.31460  0.20939  1.0000
  H   H391      1.0  0.73445  0.32716  0.11083  1.0000
  Fe  Fe50      1.0  0.87168  0.09389  0.24417  1.0000
  S   S100      1.0  0.89965  0.10492  0.14566  1.0000
  Fe  Fe51      1.0  0.86072  0.16198  0.17709  1.0000
  S   S101      1.0  0.83423  0.23949  0.15158  1.0000
  Fe  Fe52      1.0  0.93918  0.10919  0.19223  1.0000
  S   S102      1.0  0.00502  0.11874  0.18574  1.0000
  S   S103      1.0  0.59553  0.25859  0.04481  1.0000
  H   H392      1.0  0.69438  0.17650  0.12852  1.0000
  H   H393      1.0  0.05173  0.93803  0.19968  1.0000
  C   C242      1.0  0.89986  0.87291  0.03109  1.0000
  H   H394      1.0  0.68209  0.21503  0.18891  1.0000
  H   H395      1.0  0.74551  0.19788  0.13513  1.0000
  Fe  Fe53      1.0  0.86794  0.03190  0.17435  1.0000
  H   H396      1.0  0.69451  0.29030  0.19852  1.0000
  H   H397      1.0  0.90167  0.85778  0.05862  1.0000
  H   H398      1.0  0.99289  0.93502  0.02582  1.0000
  C   C243      1.0  0.96971  0.90003  0.03052  1.0000
  C   C244      1.0  0.82141  0.22291  0.10825  1.0000
  C   C245      1.0  0.81704  0.16487  0.09720  1.0000
  C   C246      1.0  0.80373  0.15203  0.06328  1.0000
  C   C247      1.0  0.73353  0.31422  0.13883  1.0000
  C   C248      1.0  0.79998  0.25521  0.05129  1.0000
  C   C249      1.0  0.81318  0.26806  0.08513  1.0000
  H   H399      1.0  0.82252  0.12970  0.11511  1.0000
  H   H400      1.0  0.79919  0.10713  0.05519  1.0000
  C   C250      1.0  0.71658  0.21337  0.12571  1.0000
  S   S104      1.0  0.70840  0.30083  0.03773  1.0000
  S   S105      1.0  0.82524  0.08832  0.20217  1.0000
  H   H401      1.0  0.76396  0.30250  0.14637  1.0000
  H   H402      1.0  0.73322  0.23957  0.19252  1.0000
  C   C251      1.0  0.70348  0.25190  0.18300  1.0000
  H   H403      1.0  0.89152  0.98731  0.04249  1.0000
  S   S106      1.0  0.90334  0.17332  0.22156  1.0000
  N   N24       1.0  0.70456  0.26536  0.14526  1.0000
  C   C252      1.0  0.02620  0.11502  0.22716  1.0000
  S   S107      1.0  0.91106  0.03054  0.21831  1.0000
  C   C253      1.0  0.66476  0.28206  0.13376  1.0000
  H   H404      1.0  0.94358  0.00768  0.04203  1.0000
  H   H405      1.0  0.65461  0.32047  0.14857  1.0000
  C   C254      1.0  0.89711  0.85289  0.13349  1.0000
  C   C255      1.0  0.96901  0.85800  0.12996  1.0000
  C   C256      1.0  0.56651  0.31533  0.05957  1.0000
  C   C257      1.0  0.92176  0.97081  0.04665  1.0000
  H   H406      1.0  0.82659  0.85406  0.19450  1.0000
  H   H407      1.0  0.79380  0.29035  0.03352  1.0000
  H   H408      1.0  0.81664  0.31300  0.09338  1.0000
  H   H409      1.0  0.83309  0.91289  0.24809  1.0000
  H   H410      1.0  0.90289  0.31725  0.16901  1.0000
  C   C258      1.0  0.89729  0.85630  0.22760  1.0000
  H   H411      1.0  0.86909  0.88703  0.02674  1.0000
  C   C259      1.0  0.83920  0.87210  0.26266  1.0000
  H   H412      1.0  0.81033  0.85369  0.27269  1.0000
  H   H413      1.0  0.96496  0.95741  0.32305  1.0000
  Fe  Fe54      1.0  0.93066  0.91044  0.44813  1.0000
  H   H414      1.0  0.80595  0.14163  0.37514  1.0000
  S   S108      1.0  0.95339  0.91535  0.39310  1.0000
  S   S109      1.0  0.86664  0.90151  0.46420  1.0000
  H   H415      1.0  0.88157  0.97645  0.40680  1.0000
  Fe  Fe55      1.0  0.95981  0.91865  0.52231  1.0000
  Fe  Fe56      1.0  0.88292  0.97240  0.50224  1.0000
  C   C260      1.0  0.92530  0.96125  0.36713  1.0000
  C   C261      1.0  0.93810  0.97542  0.33327  1.0000
  S   S110      1.0  0.94515  0.98647  0.48291  1.0000
  C   C262      1.0  0.89133  0.98633  0.38057  1.0000
  C   C263      1.0  0.91700  0.01457  0.31299  1.0000
  H   H416      1.0  0.95920  0.07559  0.37432  1.0000
  C   C264      1.0  0.86974  0.02428  0.35994  1.0000
  H   H417      1.0  0.92814  0.02712  0.28765  1.0000
  H   H418      1.0  0.00018  0.09199  0.31196  1.0000
  C   C265      1.0  0.75887  0.16578  0.42982  1.0000
  H   H419      1.0  0.97244  0.18800  0.44389  1.0000
  H   H420      1.0  0.96298  0.11166  0.45228  1.0000
  H   H421      1.0  0.78071  0.05841  0.41168  1.0000
  H   H422      1.0  0.74188  0.14818  0.40710  1.0000
  H   H423      1.0  0.78050  0.06498  0.45850  1.0000
  C   C266      1.0  0.98704  0.07383  0.38965  1.0000
  H   H424      1.0  0.04921  0.84424  0.49464  1.0000
  H   H425      1.0  0.85091  0.15135  0.46384  1.0000
  H   H426      1.0  0.00751  0.22011  0.38994  1.0000
  H   H427      1.0  0.84295  0.04226  0.37009  1.0000
  H   H428      1.0  0.82330  0.20819  0.39558  1.0000
  H   H429      1.0  0.82653  0.06027  0.43564  1.0000
  S   S111      1.0  0.75368  0.25567  0.50148  1.0000
  H   H430      1.0  0.80472  0.15617  0.48647  1.0000
  H   H431      1.0  0.82283  0.21645  0.46047  1.0000
  C   C267      1.0  0.01909  0.09956  0.28949  1.0000
  C   C268      1.0  0.82049  0.16795  0.46164  1.0000
  C   C269      1.0  0.88245  0.03849  0.32608  1.0000
  S   S112      1.0  0.85493  0.08698  0.30121  1.0000
  C   C270      1.0  0.82101  0.15991  0.39878  1.0000
  H   H432      1.0  0.85164  0.14365  0.39887  1.0000
  N   N25       1.0  0.79926  0.14312  0.43108  1.0000
  H   H433      1.0  0.61228  0.28098  0.52194  1.0000
  C   C271      1.0  0.79657  0.07886  0.43421  1.0000
  H   H434      1.0  0.75977  0.21429  0.42795  1.0000
  H   H435      1.0  0.69810  0.15882  0.51192  1.0000
  H   H436      1.0  0.98283  0.03859  0.40947  1.0000
  C   C272      1.0  0.96592  0.14508  0.43121  1.0000
  H   H437      1.0  0.63416  0.31341  0.44712  1.0000
  H   H438      1.0  0.74176  0.15409  0.45393  1.0000
  H   H439      1.0  0.04442  0.16976  0.43669  1.0000
  H   H440      1.0  0.03449  0.09321  0.44471  1.0000
  N   N26       1.0  0.99726  0.13074  0.40592  1.0000
  S   S113      1.0  0.84404  0.04750  0.51226  1.0000
  H   H441      1.0  0.93652  0.14706  0.41826  1.0000
  H   H442      1.0  0.02404  0.16734  0.35936  1.0000
  C   C273      1.0  0.03567  0.12752  0.42413  1.0000
  S   S114      1.0  0.95133  0.84318  0.48579  1.0000
  H   H443      1.0  0.97212  0.17905  0.36373  1.0000
  C   C274      1.0  0.00028  0.17638  0.37862  1.0000
  H   H444      1.0  0.01071  0.06005  0.37148  1.0000
  H   H445      1.0  0.85784  0.88492  0.28555  1.0000
  Fe  Fe57      1.0  0.88851  0.84127  0.50537  1.0000
  H   H446      1.0  0.04710  0.93523  0.46108  1.0000
  H   H447      1.0  0.97086  0.88570  0.71241  1.0000
  H   H448      1.0  0.69247  0.27369  0.77030  1.0000
  C   C275      1.0  0.76366  0.84402  0.64614  1.0000
  C   C276      1.0  0.01268  0.91783  0.65487  1.0000
  H   H449      1.0  0.79363  0.96055  0.69547  1.0000
  C   C277      1.0  0.63050  0.33326  0.60352  1.0000
  H   H450      1.0  0.56495  0.23802  0.56452  1.0000
  H   H451      1.0  0.76778  0.93710  0.60232  1.0000
  N   N27       1.0  0.78294  0.90198  0.65243  1.0000
  C   C278      1.0  0.60496  0.07365  0.69665  1.0000
  C   C279      1.0  0.58440  0.25589  0.58568  1.0000
  H   H452      1.0  0.84102  0.86925  0.65998  1.0000
  H   H453      1.0  0.02469  0.94990  0.63529  1.0000
  C   C280      1.0  0.70465  0.17834  0.53700  1.0000
  S   S115      1.0  0.89878  0.91132  0.54513  1.0000
  H   H454      1.0  0.56506  0.26279  0.60883  1.0000
  H   H455      1.0  0.93205  0.99120  0.68126  1.0000
  H   H456      1.0  0.01825  0.87348  0.64456  1.0000
  H   H457      1.0  0.98044  0.99103  0.70069  1.0000
  H   H458      1.0  0.77688  0.99037  0.63575  1.0000
  C   C281      1.0  0.76385  0.94600  0.63066  1.0000
  N   N28       1.0  0.56547  0.09931  0.69551  1.0000
  C   C282      1.0  0.96400  0.98416  0.67580  1.0000
  C   C283      1.0  0.94789  0.91819  0.62847  1.0000
  H   H459      1.0  0.60565  0.03687  0.71563  1.0000
  C   C284      1.0  0.77887  0.91734  0.68971  1.0000
  H   H460      1.0  0.95343  0.87542  0.61604  1.0000
  N   N29       1.0  0.96995  0.92531  0.66153  1.0000
  C   C285      1.0  0.73212  0.22550  0.53937  1.0000
  H   H461      1.0  0.62817  0.10661  0.70453  1.0000
  C   C286      1.0  0.56640  0.14887  0.67076  1.0000
  C   C287      1.0  0.82548  0.90064  0.64322  1.0000
  H   H462      1.0  0.58858  0.18350  0.67872  1.0000
  H   H463      1.0  0.74717  0.91969  0.69759  1.0000
  H   H464      1.0  0.84052  0.94423  0.64677  1.0000
  Fe  Fe58      1.0  0.78924  0.10390  0.69699  1.0000
  S   S116      1.0  0.77066  0.19325  0.68228  1.0000
  S   S117      1.0  0.84401  0.06416  0.67573  1.0000
  Fe  Fe59      1.0  0.71923  0.08195  0.74598  1.0000
  Fe  Fe60      1.0  0.75748  0.20288  0.73936  1.0000
  H   H465      1.0  0.57465  0.13480  0.64400  1.0000
  Fe  Fe61      1.0  0.70948  0.15118  0.67990  1.0000
  S   S118      1.0  0.66582  0.16029  0.63651  1.0000
  S   S119      1.0  0.72923  0.06070  0.68983  1.0000
  H   H466      1.0  0.73151  0.94741  0.63619  1.0000
  H   H467      1.0  0.78813  0.10525  0.62445  1.0000
  H   H468      1.0  0.90521  0.03098  0.56266  1.0000
  H   H469      1.0  0.72657  0.25044  0.62669  1.0000
  H   H470      1.0  0.90451  0.03580  0.62708  1.0000
  C   C288      1.0  0.69225  0.18396  0.59933  1.0000
  C   C289      1.0  0.68425  0.15816  0.56693  1.0000
  H   H471      1.0  0.57703  0.15334  0.74047  1.0000
  C   C290      1.0  0.72059  0.22986  0.60181  1.0000
  H   H472      1.0  0.82983  0.88742  0.61554  1.0000
  S   S120      1.0  0.01391  0.93221  0.55522  1.0000
  H   H473      1.0  0.79269  0.88455  0.70683  1.0000
  S   S121      1.0  0.78135  0.11672  0.75443  1.0000
  H   H474      1.0  0.95708  0.95267  0.60928  1.0000
  C   C291      1.0  0.84614  0.06192  0.55712  1.0000
  C   C292      1.0  0.81376  0.08511  0.57449  1.0000
  C   C293      1.0  0.81373  0.08902  0.61107  1.0000
  C   C294      1.0  0.84598  0.06939  0.63011  1.0000
  C   C295      1.0  0.87914  0.04935  0.61253  1.0000
  C   C296      1.0  0.87935  0.04606  0.57610  1.0000
  S   S122      1.0  0.69430  0.16906  0.73570  1.0000
  H   H475      1.0  0.92289  0.88394  0.69202  1.0000
  H   H476      1.0  0.91539  0.92099  0.63256  1.0000
  H   H477      1.0  0.61392  0.05720  0.67058  1.0000
  H   H478      1.0  0.66236  0.12259  0.56494  1.0000
  H   H479      1.0  0.78820  0.09828  0.55986  1.0000
  H   H480      1.0  0.76178  0.28699  0.57384  1.0000
  C   C297      1.0  0.74026  0.25095  0.57182  1.0000
  H   H481      1.0  0.97468  0.01879  0.65724  1.0000
  H   H482      1.0  0.65368  0.26909  0.54991  1.0000
  C   C298      1.0  0.95526  0.88093  0.68694  1.0000
  C   C299      1.0  0.03561  0.86619  0.56499  1.0000
  C   C300      1.0  0.63017  0.29994  0.54382  1.0000
  H   H483      1.0  0.03039  0.92307  0.67921  1.0000
  H   H484      1.0  0.60579  0.22198  0.59253  1.0000
  S   S123      1.0  0.77812  0.28093  0.77066  1.0000
  H   H485      1.0  0.65260  0.30092  0.61134  1.0000
  C   C301      1.0  0.55486  0.12016  0.73068  1.0000
  H   H486      1.0  0.73132  0.84386  0.65195  1.0000
  N   N30       1.0  0.60523  0.31084  0.57473  1.0000
  H   H487      1.0  0.63587  0.10537  0.77503  1.0000
  Fe  Fe62      1.0  0.64849  0.29085  0.01384  1.0000
  C   C302      1.0  0.60959  0.01415  0.85767  1.0000
  H   H488      1.0  0.57433  0.21016  0.96387  1.0000
  C   C303      1.0  0.64177  0.99961  0.83669  1.0000
  H   H489      1.0  0.60244  0.98870  0.88081  1.0000
  H   H490      1.0  0.94862  0.97429  0.98036  1.0000
  S   S124      1.0  0.77237  0.18167  0.00000  1.0000
  C   C304      1.0  0.56099  0.32360  0.95398  1.0000
  C   C305      1.0  0.68741  0.15876  0.86916  1.0000
  H   H491      1.0  0.64331  0.28808  0.81723  1.0000
  C   C306      1.0  0.65157  0.03261  0.80697  1.0000
  H   H492      1.0  0.75783  0.20020  0.84426  1.0000
  C   C307      1.0  0.59556  0.09347  0.81848  1.0000
  C   C308      1.0  0.74271  0.29981  0.80172  1.0000
  C   C309      1.0  0.70235  0.28873  0.79552  1.0000
  H   H493      1.0  0.93214  0.90154  0.96892  1.0000
  S   S125      1.0  0.65230  0.32206  0.88842  1.0000
  H   H494      1.0  0.97663  0.86273  0.01330  1.0000
  H   H495      1.0  0.78746  0.17300  0.87904  1.0000
  C   C310      1.0  0.67449  0.29790  0.82191  1.0000
  H   H496      1.0  0.78623  0.33302  0.83838  1.0000
  H   H497      1.0  0.72204  0.15805  0.93275  1.0000
  H   H498      1.0  0.67933  0.19673  0.88541  1.0000
  H   H499      1.0  0.66406  0.12369  0.87317  1.0000
  N   N31       1.0  0.72723  0.13856  0.87810  1.0000
  C   C311      1.0  0.75712  0.18636  0.87214  1.0000
  H   H500      1.0  0.56934  0.31275  0.98120  1.0000
  H   H501      1.0  0.76676  0.07272  0.86118  1.0000
  C   C312      1.0  0.62857  0.07982  0.79793  1.0000
  C   C313      1.0  0.75504  0.32355  0.83367  1.0000
  S   S126      1.0  0.66900  0.23505  0.97019  1.0000
  C   C314      1.0  0.72788  0.12078  0.91518  1.0000
  Fe  Fe63      1.0  0.72995  0.25271  0.99121  1.0000
  H   H502      1.0  0.75067  0.22524  0.88823  1.0000
  H   H503      1.0  0.73551  0.10007  0.82761  1.0000
  C   C315      1.0  0.73661  0.08841  0.85581  1.0000
  H   H504      1.0  0.75731  0.10455  0.92276  1.0000
  C   C316      1.0  0.56659  0.22302  0.93677  1.0000
  H   H505      1.0  0.57786  0.13001  0.81161  1.0000
  C   C317      1.0  0.58616  0.06058  0.84841  1.0000
  H   H506      1.0  0.70506  0.08566  0.92087  1.0000
  H   H507      1.0  0.65935  0.96294  0.84372  1.0000
  H   H508      1.0  0.71509  0.05104  0.85998  1.0000
  H   H509      1.0  0.68594  0.17264  0.84134  1.0000
  H   H510      1.0  0.89651  0.95426  0.98078  1.0000
  H   H511      1.0  0.59480  0.23320  0.92243  1.0000
  C   C318      1.0  0.92652  0.93858  0.98685  1.0000
  H   H512      1.0  0.55947  0.30020  0.88513  1.0000
  S   S127      1.0  0.69316  0.01397  0.78230  1.0000
  Fe  Fe64      1.0  0.67928  0.31943  0.94160  1.0000
  C   C319      1.0  0.68701  0.31814  0.85457  1.0000
  C   C320      1.0  0.72717  0.33231  0.86022  1.0000
  S   S128      1.0  0.74278  0.33233  0.95859  1.0000
  N   N32       1.0  0.92946  0.92063  0.02378  1.0000
