data_image0
_chemical_formula_structural       HCHCH3CH6CFeS2FeS2FeSFeS3FeS2FeS2FeSFeS3CSFeSCH2SH2FeS2CHC2H5C6H4CH2C3HC6H4CSH3C6H6CH3CNH4C4H4NH2FeH2CH3NH2C2HC2H2CH2CNHC2H2NCSH2CH2C2H5CHC2H5SHCH4CH5CH2CHNHC2H4CH2CH2CNFeS2FeS2FeSFeS3FeS2FeS2FeSFeS3C3H2C3HC3H3CHC6H4C2H2C3H2CH2CHCH2NC4H12CHNHNC2HCH3C2H3CHNH4CH4C3H9CH2C3H2CH6SC2HSFeHCS2FeCHC4H4CH5NCH2FeH3SHCH3C2SC2H3CHCH3CNCHSH3FeHCFeHC2H2SFeS2FeS2FeSFeS3FeS2FeS2FeSFeS3CH3CH2C2H2NC2H3C6H5C2H2C2H2C2HC3H2NC4H16CH4NHCHC3HCH4CH2CH2C2HNH2CHCH3C2FeS2FeS2FeSFeS3FeS2FeS2FeSFeS3HC2H2CH3C7H4CH2CHCHC2HCHC3H5CHCH2CH3CNC4H11NHCH3C2HCHC2HCHCH3CH2NHCH2NCH3CHCH2SH3FeS3FeSFeSH3C5NH3C2HCH2CH2CH3NHC4H5SHCHCH2CHC3H4FeS2FeS2FeSFeS3FeS2FeS2FeSFeS3C3H3C2H3C2HC2HC6H4C3H2CHCH5CH4CH2CH2CH2CH5NC5H8NCH5CHCHCH3NC2HC2HNHCHCH8CH5CHCH5CH2CHFeS2C2SHSCSFeS2FeS2FeSFeS3FeSHFeS2FeSFeS3H2C2H4C6H4C2H2C7H6NCHC6H4SHCHSH5CNH2C2Fe2HCH2SHCH4CH4CH2NHCHCH3CH2CHSH2CH5CNHCFeCH2C3H3C2NH3FeSCHCH4CH3C3H5CFeS2FeS2FeSFeS3FeS2FeS2FeSFeS3HCFeSHSNHFeS2CSH2NH3NC7H4CH4C6H4SH2C6H5C2H3CHC2H2C2HSC2H2C2H2CNH2FeHC2HCH2C2HCHNH9CHCHCHC2H3CH3CH3NH2CH2CH2CH4C3H5CH3CH5CH2CH2NSCFeSFeS3HCFeSFeS2FeS2FeSFeS3FeS2FeS2FeSFeS3C3H2C6H5C2FeHCH4C6H6NC6H4C3HNH2CFeCH2CH3C2SCH6CHNC2H6CHC3H3C2HC2H5CH2NHSH4CH3CH3NHC3H5CH2SH3CH5C3H3C2HCH3FeSC2SHSCFe2H2C2HSH4SHC3S2HFeCHC2HCHS2H2CFeH4CFeSH2FeHFeS2C2H2SH4C3HCH3NHCSC2S2HC2HCH2CH2C2HS2FeCFeSH2FeS3CH3CH2CH2SH3FeCH2SCHCH3C4H2C2H4C2H2NH4NH3C2HCH2SNCSFeS2HFeSFeSFeCH2CHCHC4H2CHNC4H13CH3CH2CH3SCHC3SFeH3SFeSCS2H3CSFeS2FeS2FeSFeS3FeS2FeS2FeSFeS3H4C2H2CSNC6HCH2C2H3C6H4CHC7H6FeHC2H2FeSH8NH2C2HC3H2CH2NHCH3FeH2CHCH4SNC2HC3H5NC4H10CHC5H4CHCHCH3C2H3CH2CH3CHC2HNFeS2H3FeSCSFeS2FeS2FeSFeS3FeS2FeS2FeSFeS3CHCH2C2H3C6H4CHCHCHC6H5CHC6H2CNCH2CH5C2H3N2H4CN2H3CH4NH4CSH3C2HCH4SH2CH2CH3SCH2CH2C2H4CH4C2HC2HCHC2H4FeSCH6CH4C2H5SHSFeSHSHSFeSFeS2FeS2FeSFeS3FeSHFeS2FeSFeS3C2H2CH3C6H4C2H3C6H4CHC7H6NH2CH2SHNC4H13C4HCH3C2S2H3NC4H6C2H3NC2H3CHNH3CH2NFeH2CFeHCH2CHCHC4H6CHCH2CHNH2CH2FeS2FeS2FeSFeS3FeS2FeS2FeSFeS3CH6C2H4C2H2C2HC3HC6H4C3H2C3H3NC5H4CH5NC2H9CH3NH2CH2C2NC2H3NCH3CHCH3CH3NHC2HC2H4CH3C2HCH2FeSH2SCFeSNHS2NHCHC3HC2H4S2H6C2H2CH3C2FeSFeCHC3HCHCH8CHCH2CFeS2FeS2FeSFeS3FeS2FeS2FeSFeS3CHCH5C2H5CH2C6H4C4H3C2H3CHC2HNC4H13CHCHCHC2NH3CHNH2NC2H3CH5C2H3CHCH3CHCHCHFeS2FeS2FeSFeS3FeS2FeS2FeSFeS3C2H4C2H4C3H2C6H4C2H3C2H4C2H8CHCH3CH3C2HCHCH2CHCHCHCHNH2CH3CHC2HNCNH2CH5CH3C2H2CHNCH3SFeCFeSH2FeNSH3CHSHSHCSFeCHC2HC2HC2NHC2NH2CH5CH2SHC2H2CH2C4H5S2H2FeHSCFeS2FeS2FeSFeS3FeS2FeS2FeSFeS3C2HCH4NH3CH4C7H4CHCH2C3H3C3H3C2HNC4H7CH7NCHCH4CH3C3H4C2NCH5CH2CH4C2H2C2H5C2H3CHCHNH5CHSNCSHSCH2FeSFeS2FeS2FeSFeS3FeS2FeS2FeSFeS3FeCH2CSHC7H4CHCH2C6H5C2H2C6H6CHCHCH5FeH3CSCH3CNH2CH3C2HCHCHNH9CH3CHCH2C2HCHC3NHCH6CH6CH2CH2
_chemical_formula_sum              "H1536 C960 Fe192 S384 N96"
_cell_length_a       64.396
_cell_length_b       64.3139
_cell_length_c       64.4204
_cell_angle_alpha    87.3745
_cell_angle_beta     87.7788
_cell_angle_gamma    87.5038

_space_group_name_H-M_alt    "P 1"
_space_group_IT_number       1

loop_
  _space_group_symop_operation_xyz
  'x, y, z'

loop_
  _atom_site_type_symbol
  _atom_site_label
  _atom_site_symmetry_multiplicity
  _atom_site_fract_x
  _atom_site_fract_y
  _atom_site_fract_z
  _atom_site_occupancy
  H   H1        1.0  0.31756  0.13287  0.31759  1.0000
  C   C1        1.0  0.32602  0.12274  0.32849  1.0000
  H   H2        1.0  0.33073  0.04350  0.27728  1.0000
  C   C2        1.0  0.32582  0.04773  0.29337  1.0000
  H   H3        1.0  0.32864  0.23397  0.15498  1.0000
  H   H4        1.0  0.17003  0.20267  0.32954  1.0000
  H   H5        1.0  0.31547  0.03548  0.30000  1.0000
  C   C3        1.0  0.16974  0.22000  0.32954  1.0000
  H   H6        1.0  0.31639  0.06265  0.29215  1.0000
  H   H7        1.0  0.15964  0.22609  0.31679  1.0000
  H   H8        1.0  0.18584  0.22495  0.32566  1.0000
  H   H9        1.0  0.32666  0.04367  0.33506  1.0000
  H   H10       1.0  0.33270  0.23439  0.19315  1.0000
  H   H11       1.0  0.32788  0.07073  0.32708  1.0000
  C   C4        1.0  0.33687  0.05552  0.32745  1.0000
  Fe  Fe1       1.0  0.28196  0.09894  0.39872  1.0000
  S   S1        1.0  0.25077  0.09034  0.38769  1.0000
  S   S2        1.0  0.31502  0.09326  0.38525  1.0000
  Fe  Fe2       1.0  0.26337  0.11273  0.44051  1.0000
  S   S3        1.0  0.23075  0.10540  0.43305  1.0000
  S   S4        1.0  0.27319  0.12898  0.46883  1.0000
  Fe  Fe3       1.0  0.24538  0.07607  0.41982  1.0000
  S   S5        1.0  0.22878  0.04593  0.42678  1.0000
  Fe  Fe4       1.0  0.23802  0.12026  0.40156  1.0000
  S   S6        1.0  0.21525  0.14045  0.38218  1.0000
  S   S7        1.0  0.27729  0.08224  0.43008  1.0000
  S   S8        1.0  0.26970  0.12992  0.40981  1.0000
  Fe  Fe5       1.0  0.26792  0.09974  0.59000  1.0000
  S   S9        1.0  0.23605  0.10226  0.60556  1.0000
  S   S10       1.0  0.27195  0.08405  0.55900  1.0000
  Fe  Fe6       1.0  0.29015  0.10936  0.63087  1.0000
  S   S11       1.0  0.25954  0.11281  0.64853  1.0000
  S   S12       1.0  0.32222  0.10415  0.64527  1.0000
  Fe  Fe7       1.0  0.25063  0.08425  0.63244  1.0000
  S   S13       1.0  0.24217  0.05449  0.65039  1.0000
  Fe  Fe8       1.0  0.24788  0.13073  0.61985  1.0000
  S   S14       1.0  0.23198  0.16339  0.62120  1.0000
  S   S15       1.0  0.28148  0.08015  0.61616  1.0000
  S   S16       1.0  0.27947  0.12896  0.60284  1.0000
  C   C5        1.0  0.14727  0.22643  0.66417  1.0000
  S   S17       1.0  0.10431  0.23207  0.44118  1.0000
  Fe  Fe9       1.0  0.11923  0.22259  0.41053  1.0000
  S   S18       1.0  0.12880  0.18972  0.40087  1.0000
  C   C6        1.0  0.17553  0.11111  0.41781  1.0000
  H   H12       1.0  0.31369  0.02454  0.57190  1.0000
  H   H13       1.0  0.18039  0.24237  0.64322  1.0000
  S   S19       1.0  0.10727  0.24209  0.58431  1.0000
  H   H14       1.0  0.18708  0.06248  0.40076  1.0000
  H   H15       1.0  0.19094  0.11779  0.41409  1.0000
  Fe  Fe10      1.0  0.12429  0.22991  0.61264  1.0000
  S   S20       1.0  0.13701  0.19624  0.61539  1.0000
  S   S21       1.0  0.10037  0.24438  0.63485  1.0000
  C   C7        1.0  0.02681  0.23929  0.62029  1.0000
  H   H16       1.0  0.04080  0.22967  0.62260  1.0000
  C   C8        1.0  0.30261  0.01169  0.57229  1.0000
  C   C9        1.0  0.02486  0.23565  0.40390  1.0000
  H   H17       1.0  0.03964  0.22856  0.39887  1.0000
  H   H18       1.0  0.27406  0.02634  0.60077  1.0000
  H   H19       1.0  0.27586  0.14486  0.50962  1.0000
  H   H20       1.0  0.12973  0.22687  0.34257  1.0000
  H   H21       1.0  0.17742  0.20192  0.36649  1.0000
  C   C10       1.0  0.20551  0.17202  0.61861  1.0000
  C   C11       1.0  0.20057  0.19359  0.61713  1.0000
  C   C12       1.0  0.17976  0.20125  0.61577  1.0000
  C   C13       1.0  0.16357  0.18740  0.61615  1.0000
  C   C14       1.0  0.16851  0.16586  0.61742  1.0000
  C   C15       1.0  0.18934  0.15819  0.61856  1.0000
  H   H22       1.0  0.21298  0.20441  0.61706  1.0000
  H   H23       1.0  0.17629  0.21783  0.61455  1.0000
  H   H24       1.0  0.15613  0.15499  0.61766  1.0000
  H   H25       1.0  0.19285  0.14158  0.61969  1.0000
  C   C16       1.0  0.00625  0.22965  0.39543  1.0000
  H   H26       1.0  0.13914  0.09602  0.40823  1.0000
  H   H27       1.0  0.16353  0.12379  0.41479  1.0000
  C   C17       1.0  0.23905  0.03225  0.63584  1.0000
  C   C18       1.0  0.25571  0.02219  0.40210  1.0000
  C   C19       1.0  0.17665  0.24839  0.65891  1.0000
  H   H28       1.0  0.18962  0.07208  0.42622  1.0000
  C   C20       1.0  0.19180  0.15460  0.38892  1.0000
  C   C21       1.0  0.17555  0.15438  0.37513  1.0000
  C   C22       1.0  0.15656  0.16514  0.37924  1.0000
  C   C23       1.0  0.15374  0.17742  0.39660  1.0000
  C   C24       1.0  0.17013  0.17821  0.41032  1.0000
  C   C25       1.0  0.18904  0.16651  0.40667  1.0000
  H   H29       1.0  0.17755  0.14552  0.36125  1.0000
  H   H30       1.0  0.14398  0.16410  0.36872  1.0000
  H   H31       1.0  0.16805  0.18737  0.42398  1.0000
  H   H32       1.0  0.20156  0.16701  0.41735  1.0000
  C   C26       1.0  0.23763  0.02282  0.41479  1.0000
  S   S22       1.0  0.14549  0.25643  0.61322  1.0000
  H   H33       1.0  0.18463  0.20684  0.65959  1.0000
  H   H34       1.0  0.33664  0.15448  0.40296  1.0000
  H   H35       1.0  0.26450  0.03607  0.39933  1.0000
  C   C27       1.0  0.27167  0.11653  0.49390  1.0000
  C   C28       1.0  0.26906  0.09509  0.49654  1.0000
  C   C29       1.0  0.26897  0.08545  0.51661  1.0000
  C   C30       1.0  0.27112  0.09717  0.53424  1.0000
  C   C31       1.0  0.27336  0.11867  0.53165  1.0000
  C   C32       1.0  0.27382  0.12827  0.51152  1.0000
  H   H36       1.0  0.26740  0.08590  0.48310  1.0000
  H   H37       1.0  0.26718  0.06884  0.51843  1.0000
  H   H38       1.0  0.27511  0.12784  0.54509  1.0000
  H   H39       1.0  0.28545  0.04918  0.66879  1.0000
  H   H40       1.0  0.22441  0.04920  0.61041  1.0000
  H   H41       1.0  0.15106  0.07907  0.42775  1.0000
  C   C33       1.0  0.31626  0.15154  0.44026  1.0000
  H   H42       1.0  0.00617  0.21607  0.63342  1.0000
  H   H43       1.0  0.13457  0.22573  0.36972  1.0000
  H   H44       1.0  0.18799  0.22120  0.51907  1.0000
  C   C34       1.0  0.22961  0.03402  0.61663  1.0000
  N   N1        1.0  0.17247  0.09286  0.40529  1.0000
  H   H45       1.0  0.18854  0.10587  0.37819  1.0000
  H   H46       1.0  0.14112  0.20932  0.55240  1.0000
  H   H47       1.0  0.18622  0.23235  0.57542  1.0000
  H   H48       1.0  0.17492  0.10691  0.43477  1.0000
  C   C35       1.0  0.02421  0.25051  0.41915  1.0000
  C   C36       1.0  0.17217  0.22260  0.52659  1.0000
  C   C37       1.0  0.27458  0.03432  0.58506  1.0000
  C   C38       1.0  0.18163  0.19770  0.55427  1.0000
  H   H49       1.0  0.30016  0.15091  0.43468  1.0000
  H   H50       1.0  0.17956  0.25062  0.55461  1.0000
  H   H51       1.0  0.31503  0.14917  0.45751  1.0000
  H   H52       1.0  0.19192  0.22511  0.36398  1.0000
  N   N2        1.0  0.16206  0.22761  0.34985  1.0000
  H   H53       1.0  0.01348  0.24975  0.54496  1.0000
  H   H54       1.0  0.18217  0.19438  0.57138  1.0000
  Fe  Fe11      1.0  0.08111  0.25126  0.42200  1.0000
  H   H55       1.0  0.16567  0.23853  0.52242  1.0000
  H   H56       1.0  0.17113  0.08588  0.37304  1.0000
  C   C39       1.0  0.15143  0.22084  0.55857  1.0000
  H   H57       1.0  0.19780  0.19564  0.54771  1.0000
  H   H58       1.0  0.16100  0.11148  0.37927  1.0000
  H   H59       1.0  0.21849  0.01761  0.59112  1.0000
  N   N3        1.0  0.33031  0.13552  0.43076  1.0000
  H   H60       1.0  0.14917  0.07047  0.40178  1.0000
  H   H61       1.0  0.28502  0.02062  0.53530  1.0000
  C   C40       1.0  0.28048  0.03104  0.54815  1.0000
  C   C41       1.0  0.15203  0.08422  0.41101  1.0000
  H   H62       1.0  0.14029  0.20324  0.35501  1.0000
  C   C42       1.0  0.33097  0.13886  0.40787  1.0000
  C   C43       1.0  0.18911  0.07681  0.40939  1.0000
  H   H63       1.0  0.19137  0.25351  0.66514  1.0000
  H   H64       1.0  0.29114  0.04428  0.54717  1.0000
  C   C44       1.0  0.18575  0.23445  0.55820  1.0000
  H   H65       1.0  0.17218  0.18556  0.54789  1.0000
  H   H66       1.0  0.20471  0.08254  0.40457  1.0000
  C   C45       1.0  0.17326  0.09928  0.38296  1.0000
  N   N4        1.0  0.17276  0.21888  0.54939  1.0000
  H   H67       1.0  0.20203  0.23334  0.55178  1.0000
  C   C46       1.0  0.31598  0.11573  0.34722  1.0000
  C   C47       1.0  0.33280  0.11098  0.66907  1.0000
  H   H68       1.0  0.32158  0.11156  0.45354  1.0000
  H   H69       1.0  0.25061  0.00785  0.56707  1.0000
  N   N5        1.0  0.28117  0.01982  0.56868  1.0000
  C   C48       1.0  0.22625  0.01608  0.60575  1.0000
  S   S23       1.0  0.09400  0.23913  0.39198  1.0000
  H   H70       1.0  0.31531  0.13760  0.40140  1.0000
  H   H71       1.0  0.30664  0.11325  0.43077  1.0000
  C   C49       1.0  0.32678  0.10274  0.36147  1.0000
  H   H72       1.0  0.25883  0.04154  0.58231  1.0000
  H   H73       1.0  0.29990  0.12040  0.35059  1.0000
  C   C50       1.0  0.32253  0.11466  0.43638  1.0000
  C   C51       1.0  0.00717  0.23162  0.62640  1.0000
  H   H74       1.0  0.13599  0.23997  0.66282  1.0000
  H   H75       1.0  0.33246  0.10208  0.42924  1.0000
  H   H76       1.0  0.15127  0.21827  0.57579  1.0000
  H   H77       1.0  0.16225  0.21135  0.51941  1.0000
  H   H78       1.0  0.14429  0.23663  0.55510  1.0000
  C   C52       1.0  0.17596  0.21922  0.36627  1.0000
  H   H79       1.0  0.26460  0.03788  0.54525  1.0000
  C   C53       1.0  0.24545  0.01241  0.64388  1.0000
  C   C54       1.0  0.14076  0.22053  0.35439  1.0000
  H   H80       1.0  0.16999  0.22353  0.38201  1.0000
  H   H81       1.0  0.28532  0.04738  0.58540  1.0000
  H   H82       1.0  0.14993  0.22026  0.64841  1.0000
  H   H83       1.0  0.28541  0.07646  0.66232  1.0000
  H   H84       1.0  0.32165  0.16752  0.43655  1.0000
  S   S24       1.0  0.14019  0.24945  0.40669  1.0000
  H   H85       1.0  0.25260  0.01089  0.65882  1.0000
  C   C55       1.0  0.16178  0.25064  0.34914  1.0000
  H   H86       1.0  0.30846  0.06376  0.67194  1.0000
  H   H87       1.0  0.00686  0.21797  0.38385  1.0000
  H   H88       1.0  0.17754  0.25663  0.34568  1.0000
  H   H89       1.0  0.15603  0.25694  0.36420  1.0000
  C   C56       1.0  0.29160  0.08904  0.70061  1.0000
  H   H90       1.0  0.30923  0.13438  0.67678  1.0000
  H   H91       1.0  0.13964  0.21409  0.67404  1.0000
  H   H92       1.0  0.28597  0.09338  0.71644  1.0000
  H   H93       1.0  0.32472  0.14238  0.71014  1.0000
  H   H94       1.0  0.28682  0.05518  0.72602  1.0000
  C   C57       1.0  0.16245  0.24109  0.69354  1.0000
  H   H95       1.0  0.30890  0.08872  0.70036  1.0000
  H   H96       1.0  0.28643  0.03670  0.70592  1.0000
  C   C58       1.0  0.29198  0.05221  0.70968  1.0000
  H   H97       1.0  0.25483  0.07345  0.71229  1.0000
  N   N6        1.0  0.28391  0.06876  0.69512  1.0000
  H   H98       1.0  0.30931  0.05121  0.70903  1.0000
  C   C59       1.0  0.26092  0.06959  0.69648  1.0000
  C   C60       1.0  0.32333  0.12611  0.68165  1.0000
  H   H99       1.0  0.15485  0.22958  0.70446  1.0000
  H   H100      1.0  0.25458  0.05442  0.69273  1.0000
  H   H101      1.0  0.28640  0.10176  0.68942  1.0000
  H   H102      1.0  0.15179  0.25521  0.69239  1.0000
  C   C61       1.0  0.18120  0.21386  0.67492  1.0000
  H   H103      1.0  0.17692  0.24576  0.70067  1.0000
  H   H104      1.0  0.25428  0.08152  0.68523  1.0000
  C   C62       1.0  0.33218  0.13062  0.70057  1.0000
  H   H105      1.0  0.17438  0.20153  0.68543  1.0000
  H   H106      1.0  0.19632  0.21780  0.68122  1.0000
  C   C63       1.0  0.29118  0.06423  0.67368  1.0000
  N   N7        1.0  0.16691  0.23243  0.67290  1.0000
  Fe  Fe12      1.0  0.08285  0.38886  0.25012  1.0000
  S   S25       1.0  0.08104  0.40138  0.28205  1.0000
  S   S26       1.0  0.05450  0.37389  0.23847  1.0000
  Fe  Fe13      1.0  0.12736  0.40362  0.24047  1.0000
  S   S27       1.0  0.12816  0.41687  0.27224  1.0000
  S   S28       1.0  0.15528  0.41435  0.21996  1.0000
  Fe  Fe14      1.0  0.11349  0.38724  0.28465  1.0000
  S   S29       1.0  0.12574  0.37192  0.31487  1.0000
  Fe  Fe15      1.0  0.09581  0.42953  0.26676  1.0000
  S   S30       1.0  0.08166  0.46235  0.26861  1.0000
  S   S31       1.0  0.11484  0.37302  0.25325  1.0000
  S   S32       1.0  0.09547  0.41777  0.23458  1.0000
  Fe  Fe16      1.0  0.29054  0.38600  0.11922  1.0000
  S   S33       1.0  0.26462  0.36574  0.11198  1.0000
  S   S34       1.0  0.32365  0.37374  0.12615  1.0000
  Fe  Fe17      1.0  0.26519  0.42632  0.10592  1.0000
  S   S35       1.0  0.23773  0.40804  0.09770  1.0000
  S   S36       1.0  0.26252  0.46035  0.09386  1.0000
  Fe  Fe18      1.0  0.24327  0.38968  0.12785  1.0000
  S   S37       1.0  0.21654  0.37688  0.14881  1.0000
  Fe  Fe19      1.0  0.26125  0.38607  0.08284  1.0000
  S   S38       1.0  0.26373  0.37168  0.05117  1.0000
  S   S39       1.0  0.26967  0.40909  0.13698  1.0000
  S   S40       1.0  0.28827  0.40511  0.08932  1.0000
  C   C64       1.0  0.25480  0.38409  0.02794  1.0000
  C   C65       1.0  0.23872  0.39940  0.02810  1.0000
  C   C66       1.0  0.12561  0.45620  0.19589  1.0000
  H   H107      1.0  0.23128  0.40374  0.04271  1.0000
  H   H108      1.0  0.30670  0.45610  0.03464  1.0000
  C   C67       1.0  0.26894  0.48414  0.10448  1.0000
  C   C68       1.0  0.27847  0.48505  0.12356  1.0000
  C   C69       1.0  0.29592  0.45418  0.02181  1.0000
  H   H109      1.0  0.28212  0.47080  0.13251  1.0000
  C   C70       1.0  0.01014  0.41891  0.25155  1.0000
  C   C71       1.0  0.12090  0.34685  0.32660  1.0000
  C   C72       1.0  0.11335  0.33082  0.31540  1.0000
  H   H110      1.0  0.14222  0.45204  0.19191  1.0000
  H   H111      1.0  0.29690  0.34479  0.03469  1.0000
  H   H112      1.0  0.10956  0.33377  0.29929  1.0000
  C   C73       1.0  0.33393  0.34771  0.12399  1.0000
  H   H113      1.0  0.28207  0.43777  0.05853  1.0000
  C   C74       1.0  0.17170  0.40374  0.19979  1.0000
  C   C75       1.0  0.16899  0.38406  0.19217  1.0000
  C   C76       1.0  0.18284  0.37619  0.17658  1.0000
  C   C77       1.0  0.19940  0.38793  0.16818  1.0000
  C   C78       1.0  0.20198  0.40769  0.17571  1.0000
  C   C79       1.0  0.18826  0.41548  0.19145  1.0000
  H   H114      1.0  0.15625  0.37488  0.19819  1.0000
  H   H115      1.0  0.18063  0.36093  0.17082  1.0000
  H   H116      1.0  0.21466  0.41688  0.16950  1.0000
  H   H117      1.0  0.19058  0.43071  0.19720  1.0000
  C   C80       1.0  0.03053  0.38834  0.24066  1.0000
  C   C81       1.0  0.02931  0.40770  0.24976  1.0000
  H   H118      1.0  0.25701  0.50232  0.07828  1.0000
  H   H119      1.0  0.04319  0.41411  0.25538  1.0000
  C   C82       1.0  0.33465  0.32124  0.06403  1.0000
  C   C83       1.0  0.09591  0.48481  0.27161  1.0000
  C   C84       1.0  0.11603  0.48364  0.27915  1.0000
  H   H120      1.0  0.27851  0.47588  0.05291  1.0000
  H   H121      1.0  0.12309  0.46867  0.28381  1.0000
  C   C85       1.0  0.23189  0.40873  0.00923  1.0000
  H   H122      1.0  0.26905  0.48694  0.02875  1.0000
  H   H123      1.0  0.09356  0.46428  0.22320  1.0000
  C   C86       1.0  0.13414  0.46635  0.23005  1.0000
  H   H124      1.0  0.30895  0.31929  0.03242  1.0000
  C   C87       1.0  0.26816  0.47326  0.03988  1.0000
  H   H125      1.0  0.12632  0.45308  0.23827  1.0000
  H   H126      1.0  0.25578  0.43499  0.05158  1.0000
  N   N8        1.0  0.18356  0.37144  0.26338  1.0000
  C   C88       1.0  0.16854  0.36740  0.28089  1.0000
  C   C89       1.0  0.17508  0.36460  0.24393  1.0000
  C   C90       1.0  0.20341  0.35980  0.26734  1.0000
  C   C91       1.0  0.18722  0.39399  0.26131  1.0000
  H   H127      1.0  0.16521  0.35058  0.28299  1.0000
  H   H128      1.0  0.15342  0.37595  0.27835  1.0000
  H   H129      1.0  0.17421  0.37253  0.29586  1.0000
  H   H130      1.0  0.18606  0.36731  0.23038  1.0000
  H   H131      1.0  0.17178  0.34774  0.24497  1.0000
  H   H132      1.0  0.16028  0.37332  0.24028  1.0000
  H   H133      1.0  0.21510  0.36265  0.25442  1.0000
  H   H134      1.0  0.20120  0.34271  0.26883  1.0000
  H   H135      1.0  0.21019  0.36448  0.28197  1.0000
  H   H136      1.0  0.19758  0.39783  0.24753  1.0000
  H   H137      1.0  0.19436  0.39959  0.27536  1.0000
  H   H138      1.0  0.17241  0.40327  0.25920  1.0000
  C   C92       1.0  0.13331  0.49191  0.20148  1.0000
  H   H139      1.0  0.11773  0.46061  0.18117  1.0000
  N   N9        1.0  0.31568  0.33447  0.06031  1.0000
  H   H140      1.0  0.32423  0.34198  0.02832  1.0000
  N   N10       1.0  0.27410  0.45359  0.02975  1.0000
  C   C93       1.0  0.32975  0.31031  0.12289  1.0000
  C   C94       1.0  0.27203  0.43598  0.04512  1.0000
  H   H141      1.0  0.33262  0.30483  0.05995  1.0000
  C   C95       1.0  0.31890  0.35579  0.06688  1.0000
  H   H142      1.0  0.31961  0.29731  0.12361  1.0000
  H   H143      1.0  0.01052  0.48550  0.23912  1.0000
  H   H144      1.0  0.27648  0.42078  0.03823  1.0000
  C   C96       1.0  0.32110  0.33068  0.12498  1.0000
  C   C97       1.0  0.11129  0.31075  0.32489  1.0000
  H   H145      1.0  0.30449  0.33321  0.12753  1.0000
  H   H146      1.0  0.12576  0.49743  0.18687  1.0000
  H   H147      1.0  0.10590  0.29839  0.31590  1.0000
  C   C98       1.0  0.01235  0.38036  0.23328  1.0000
  H   H148      1.0  0.30085  0.43949  0.01414  1.0000
  N   N11       1.0  0.12359  0.47309  0.21076  1.0000
  H   H149      1.0  0.30056  0.32503  0.08934  1.0000
  H   H150      1.0  0.13194  0.50496  0.21235  1.0000
  H   H151      1.0  0.30502  0.36627  0.06408  1.0000
  H   H152      1.0  0.09932  0.49081  0.22666  1.0000
  C   C99       1.0  0.10134  0.47796  0.21567  1.0000
  H   H153      1.0  0.11864  0.44171  0.20252  1.0000
  H   H154      1.0  0.00948  0.43381  0.25871  1.0000
  H   H155      1.0  0.15062  0.46116  0.22682  1.0000
  H   H156      1.0  0.01323  0.36553  0.22594  1.0000
  C   C100      1.0  0.29787  0.32570  0.07240  1.0000
  C   C101      1.0  0.31129  0.33515  0.03793  1.0000
  C   C102      1.0  0.26441  0.50281  0.09302  1.0000
  H   H157      1.0  0.25202  0.47295  0.04677  1.0000
  H   H158      1.0  0.28331  0.33535  0.07001  1.0000
  H   H159      1.0  0.32176  0.35593  0.08379  1.0000
  H   H160      1.0  0.29496  0.30962  0.06788  1.0000
  H   H161      1.0  0.09276  0.48281  0.20148  1.0000
  H   H162      1.0  0.13412  0.47919  0.24103  1.0000
  H   H163      1.0  0.15124  0.25750  0.33708  1.0000
  H   H164      1.0  0.21926  0.42038  0.00942  1.0000
  H   H165      1.0  0.15016  0.48881  0.19777  1.0000
  C   C103      1.0  0.26397  0.37821  0.00882  1.0000
  H   H166      1.0  0.33244  0.36279  0.05841  1.0000
  H   H167      1.0  0.24381  0.44999  0.01779  1.0000
  C   C104      1.0  0.12694  0.50197  0.28088  1.0000
  C   C105      1.0  0.28348  0.50449  0.13098  1.0000
  C   C106      1.0  0.26037  0.45090  0.01230  1.0000
  H   H168      1.0  0.27628  0.36624  0.00851  1.0000
  H   H169      1.0  0.14242  0.50103  0.28691  1.0000
  C   C107      1.0  0.08679  0.50439  0.26594  1.0000
  H   H170      1.0  0.29093  0.50504  0.14570  1.0000
  H   H171      1.0  0.07119  0.50543  0.26023  1.0000
  H   H172      1.0  0.33710  0.26031  0.15183  1.0000
  H   H173      1.0  0.29810  0.46731  0.01017  1.0000
  H   H174      1.0  0.33874  0.32094  0.08064  1.0000
  H   H175      1.0  0.04208  0.30131  0.34071  1.0000
  S   S41       1.0  0.11445  0.28057  0.35647  1.0000
  C   C108      1.0  0.02759  0.29855  0.38063  1.0000
  C   C109      1.0  0.13698  0.44689  0.65648  1.0000
  H   H176      1.0  0.14561  0.43155  0.65840  1.0000
  S   S42       1.0  0.10022  0.27986  0.41941  1.0000
  Fe  Fe20      1.0  0.12071  0.27214  0.63351  1.0000
  H   H177      1.0  0.12837  0.36128  0.65506  1.0000
  C   C110      1.0  0.12583  0.34262  0.34753  1.0000
  S   S43       1.0  0.14648  0.28198  0.55833  1.0000
  S   S44       1.0  0.10487  0.28776  0.60625  1.0000
  Fe  Fe21      1.0  0.11417  0.26689  0.39000  1.0000
  C   C111      1.0  0.12691  0.34834  0.66628  1.0000
  H   H178      1.0  0.06718  0.27628  0.64265  1.0000
  C   C112      1.0  0.16022  0.28600  0.51811  1.0000
  C   C113      1.0  0.05508  0.27396  0.37060  1.0000
  C   C114      1.0  0.14436  0.27830  0.53135  1.0000
  C   C115      1.0  0.14389  0.27364  0.48778  1.0000
  H   H179      1.0  0.17245  0.28987  0.48674  1.0000
  H   H180      1.0  0.06116  0.30825  0.62056  1.0000
  H   H181      1.0  0.12574  0.48589  0.66741  1.0000
  H   H182      1.0  0.01069  0.28689  0.60050  1.0000
  C   C116      1.0  0.16003  0.28363  0.49664  1.0000
  H   H183      1.0  0.10282  0.47229  0.66194  1.0000
  H   H184      1.0  0.16613  0.26251  0.65683  1.0000
  H   H185      1.0  0.02271  0.31518  0.38250  1.0000
  H   H186      1.0  0.14826  0.45849  0.65032  1.0000
  H   H187      1.0  0.12742  0.31968  0.37319  1.0000
  N   N12       1.0  0.04944  0.29628  0.37287  1.0000
  C   C117      1.0  0.12657  0.32787  0.65924  1.0000
  H   H188      1.0  0.05969  0.32189  0.38968  1.0000
  H   H189      1.0  0.01676  0.29180  0.36995  1.0000
  Fe  Fe22      1.0  0.12740  0.26936  0.58590  1.0000
  H   H190      1.0  0.04774  0.33058  0.63129  1.0000
  H   H191      1.0  0.08721  0.30763  0.64758  1.0000
  H   H192      1.0  0.13175  0.35487  0.35634  1.0000
  S   S45       1.0  0.05185  0.26947  0.60124  1.0000
  H   H193      1.0  0.04804  0.32448  0.35360  1.0000
  C   C118      1.0  0.00983  0.27144  0.60780  1.0000
  H   H194      1.0  0.12776  0.32524  0.64276  1.0000
  H   H195      1.0  0.06119  0.29708  0.40356  1.0000
  H   H196      1.0  0.17278  0.29404  0.52448  1.0000
  C   C119      1.0  0.12789  0.26562  0.50091  1.0000
  C   C120      1.0  0.12815  0.26790  0.52275  1.0000
  S   S46       1.0  0.12545  0.28466  0.66566  1.0000
  C   C121      1.0  0.05534  0.28228  0.65414  1.0000
  C   C122      1.0  0.05206  0.30755  0.35248  1.0000
  H   H197      1.0  0.12527  0.44528  0.64445  1.0000
  H   H198      1.0  0.04021  0.27592  0.65027  1.0000
  H   H199      1.0  0.11532  0.25787  0.49424  1.0000
  C   C123      1.0  0.04906  0.31327  0.63234  1.0000
  H   H200      1.0  0.02535  0.29030  0.39612  1.0000
  C   C124      1.0  0.06316  0.30496  0.38787  1.0000
  H   H201      1.0  0.11575  0.26192  0.53280  1.0000
  H   H202      1.0  0.04456  0.26662  0.36005  1.0000
  H   H203      1.0  0.06851  0.30610  0.34641  1.0000
  C   C125      1.0  0.11635  0.30650  0.34578  1.0000
  N   N13       1.0  0.05429  0.30531  0.65348  1.0000
  C   C126      1.0  0.12337  0.32265  0.35716  1.0000
  H   H204      1.0  0.07127  0.27167  0.36420  1.0000
  S   S47       1.0  0.14539  0.27175  0.46032  1.0000
  H   H205      1.0  0.03693  0.33000  0.66861  1.0000
  H   H206      1.0  0.03408  0.30725  0.62756  1.0000
  H   H207      1.0  0.07985  0.30301  0.38278  1.0000
  Fe  Fe23      1.0  0.12416  0.25989  0.43655  1.0000
  H   H208      1.0  0.05410  0.26518  0.38585  1.0000
  C   C127      1.0  0.03811  0.31267  0.66864  1.0000
  Fe  Fe24      1.0  0.08558  0.25930  0.60654  1.0000
  H   H209      1.0  0.02252  0.30718  0.66504  1.0000
  C   C128      1.0  0.02811  0.25917  0.61067  1.0000
  C   C129      1.0  0.07468  0.31293  0.65876  1.0000
  H   H210      1.0  0.07459  0.33025  0.65850  1.0000
  H   H211      1.0  0.05957  0.27566  0.66975  1.0000
  S   S48       1.0  0.04697  0.25899  0.43031  1.0000
  Fe  Fe25      1.0  0.27422  0.38013  0.90722  1.0000
  S   S49       1.0  0.24142  0.37749  0.92025  1.0000
  S   S50       1.0  0.29227  0.34923  0.90256  1.0000
  Fe  Fe26      1.0  0.26649  0.42645  0.89606  1.0000
  S   S51       1.0  0.23305  0.42672  0.90743  1.0000
  S   S52       1.0  0.28258  0.45397  0.88028  1.0000
  Fe  Fe27      1.0  0.24581  0.40786  0.93490  1.0000
  S   S53       1.0  0.23354  0.41666  0.96704  1.0000
  Fe  Fe28      1.0  0.23142  0.39628  0.89165  1.0000
  S   S54       1.0  0.20534  0.38192  0.87447  1.0000
  S   S55       1.0  0.27947  0.40920  0.92429  1.0000
  S   S56       1.0  0.26396  0.39748  0.87808  1.0000
  Fe  Fe29      1.0  0.13679  0.40777  0.76876  1.0000
  S   S57       1.0  0.13932  0.41999  0.73532  1.0000
  S   S58       1.0  0.16424  0.41367  0.78906  1.0000
  Fe  Fe30      1.0  0.09102  0.39852  0.76486  1.0000
  S   S59       1.0  0.09029  0.41025  0.73166  1.0000
  S   S60       1.0  0.06278  0.38650  0.78315  1.0000
  Fe  Fe31      1.0  0.12090  0.39242  0.72746  1.0000
  S   S61       1.0  0.12707  0.37833  0.69554  1.0000
  Fe  Fe32      1.0  0.10868  0.43675  0.74180  1.0000
  S   S62       1.0  0.09786  0.46954  0.73120  1.0000
  S   S63       1.0  0.12076  0.37880  0.76044  1.0000
  S   S64       1.0  0.10701  0.42632  0.77536  1.0000
  C   C130      1.0  0.12567  0.35219  0.68766  1.0000
  H   H212      1.0  0.25106  0.33167  0.91444  1.0000
  H   H213      1.0  0.25156  0.29978  0.86784  1.0000
  H   H214      1.0  0.12279  0.30180  0.70618  1.0000
  C   C131      1.0  0.23580  0.30541  0.87341  1.0000
  H   H215      1.0  0.30806  0.41302  0.88999  1.0000
  H   H216      1.0  0.29209  0.49545  0.86440  1.0000
  C   C132      1.0  0.03795  0.39576  0.77484  1.0000
  C   C133      1.0  0.03602  0.41259  0.76043  1.0000
  H   H217      1.0  0.13599  0.45959  0.70709  1.0000
  H   H218      1.0  0.04974  0.42014  0.75426  1.0000
  N   N14       1.0  0.23704  0.32376  0.88622  1.0000
  C   C134      1.0  0.11119  0.49273  0.73415  1.0000
  C   C135      1.0  0.13259  0.49253  0.73732  1.0000
  H   H219      1.0  0.12299  0.33791  0.71843  1.0000
  H   H220      1.0  0.14129  0.47786  0.73931  1.0000
  H   H221      1.0  0.10044  0.43459  0.67273  1.0000
  C   C136      1.0  0.19403  0.39106  0.85077  1.0000
  C   C137      1.0  0.19976  0.40959  0.84032  1.0000
  C   C138      1.0  0.19041  0.41618  0.82154  1.0000
  C   C139      1.0  0.17523  0.40441  0.81292  1.0000
  C   C140      1.0  0.16961  0.38577  0.82329  1.0000
  C   C141      1.0  0.17888  0.37922  0.84214  1.0000
  H   H222      1.0  0.21137  0.41888  0.84671  1.0000
  H   H223      1.0  0.19501  0.43055  0.81362  1.0000
  H   H224      1.0  0.15856  0.37616  0.81655  1.0000
  H   H225      1.0  0.17448  0.36475  0.84997  1.0000
  H   H226      1.0  0.26290  0.33615  0.86818  1.0000
  C   C142      1.0  0.24137  0.40318  0.99013  1.0000
  C   C143      1.0  0.25742  0.38784  0.98999  1.0000
  H   H227      1.0  0.10776  0.47857  0.68808  1.0000
  H   H228      1.0  0.26479  0.38342  0.97537  1.0000
  C   C144      1.0  0.26291  0.48124  0.90736  1.0000
  C   C145      1.0  0.27536  0.47903  0.88927  1.0000
  H   H229      1.0  0.24796  0.35479  0.88282  1.0000
  H   H230      1.0  0.25738  0.46757  0.91589  1.0000
  C   C146      1.0  0.01625  0.41996  0.75418  1.0000
  C   C147      1.0  0.12385  0.31475  0.69493  1.0000
  H   H231      1.0  0.24821  0.50262  0.92869  1.0000
  C   C148      1.0  0.31843  0.34014  0.90623  1.0000
  C   C149      1.0  0.31474  0.42028  0.84926  1.0000
  C   C150      1.0  0.24680  0.34075  0.87363  1.0000
  H   H232      1.0  0.01502  0.43309  0.74313  1.0000
  H   H233      1.0  0.15398  0.46778  0.68677  1.0000
  N   N15       1.0  0.10355  0.39554  0.83368  1.0000
  C   C151      1.0  0.11965  0.39806  0.84903  1.0000
  C   C152      1.0  0.11328  0.38612  0.81502  1.0000
  C   C153      1.0  0.09389  0.41614  0.82781  1.0000
  C   C154      1.0  0.08736  0.38185  0.84268  1.0000
  H   H234      1.0  0.11294  0.40519  0.86335  1.0000
  H   H235      1.0  0.13210  0.40828  0.84252  1.0000
  H   H236      1.0  0.12739  0.38284  0.85370  1.0000
  H   H237      1.0  0.12551  0.39608  0.80770  1.0000
  H   H238      1.0  0.12069  0.37053  0.81879  1.0000
  H   H239      1.0  0.10158  0.38397  0.80313  1.0000
  H   H240      1.0  0.10571  0.42699  0.82121  1.0000
  H   H241      1.0  0.08603  0.42357  0.84144  1.0000
  H   H242      1.0  0.08196  0.41482  0.81587  1.0000
  H   H243      1.0  0.07507  0.37973  0.83126  1.0000
  H   H244      1.0  0.07956  0.38846  0.85677  1.0000
  H   H245      1.0  0.09403  0.36611  0.84717  1.0000
  H   H246      1.0  0.04157  0.30688  0.68475  1.0000
  H   H247      1.0  0.15246  0.44056  0.69427  1.0000
  H   H248      1.0  0.33450  0.40642  0.89633  1.0000
  H   H249      1.0  0.31181  0.30861  0.89952  1.0000
  C   C155      1.0  0.32372  0.31900  0.90330  1.0000
  H   H250      1.0  0.30865  0.38236  0.86861  1.0000
  H   H251      1.0  0.26464  0.43630  0.00420  1.0000
  H   H252      1.0  0.10427  0.44161  0.69882  1.0000
  H   H253      1.0  0.26586  0.31297  0.89971  1.0000
  N   N16       1.0  0.32864  0.40827  0.86359  1.0000
  H   H254      1.0  0.23755  0.34563  0.85985  1.0000
  C   C156      1.0  0.28245  0.49700  0.87841  1.0000
  H   H255      1.0  0.22639  0.30918  0.85948  1.0000
  C   C157      1.0  0.01984  0.38639  0.78295  1.0000
  C   C158      1.0  0.24970  0.31813  0.90447  1.0000
  C   C159      1.0  0.25774  0.50117  0.91461  1.0000
  H   H256      1.0  0.22851  0.29227  0.88240  1.0000
  C   C160      1.0  0.12391  0.33524  0.70195  1.0000
  H   H257      1.0  0.02116  0.37340  0.79415  1.0000
  H   H258      1.0  0.24285  0.30536  0.91437  1.0000
  H   H259      1.0  0.31692  0.43735  0.84976  1.0000
  H   H260      1.0  0.29808  0.41792  0.85357  1.0000
  C   C161      1.0  0.11251  0.43713  0.68411  1.0000
  H   H261      1.0  0.20598  0.33544  0.87995  1.0000
  H   H262      1.0  0.20797  0.31841  0.90287  1.0000
  C   C162      1.0  0.21588  0.33077  0.89332  1.0000
  H   H263      1.0  0.32714  0.43216  0.88603  1.0000
  H   H264      1.0  0.21627  0.34469  0.90296  1.0000
  C   C163      1.0  0.32452  0.41523  0.88495  1.0000
  C   C164      1.0  0.33406  0.35334  0.91119  1.0000
  H   H265      1.0  0.33020  0.36955  0.91378  1.0000
  N   N17       1.0  0.12697  0.45321  0.67638  1.0000
  H   H266      1.0  0.33552  0.37622  0.87302  1.0000
  H   H267      1.0  0.12088  0.42189  0.68736  1.0000
  C   C165      1.0  0.32476  0.38580  0.86297  1.0000
  H   H268      1.0  0.31748  0.41571  0.83291  1.0000
  C   C166      1.0  0.14310  0.45538  0.69175  1.0000
  H   H269      1.0  0.07929  0.30706  0.67453  1.0000
  H   H270      1.0  0.26133  0.46398  0.00044  1.0000
  H   H271      1.0  0.32690  0.38014  0.84694  1.0000
  C   C167      1.0  0.11533  0.47337  0.67323  1.0000
  C   C168      1.0  0.12525  0.31091  0.67356  1.0000
  Fe  Fe33      1.0  0.10276  0.61989  0.27053  1.0000
  S   S65       1.0  0.09705  0.62571  0.23638  1.0000
  S   S66       1.0  0.09167  0.64719  0.29052  1.0000
  Fe  Fe34      1.0  0.11830  0.57457  0.26325  1.0000
  S   S67       1.0  0.11424  0.57778  0.22885  1.0000
  S   S68       1.0  0.13197  0.54425  0.27717  1.0000
  Fe  Fe35      1.0  0.12828  0.60909  0.23063  1.0000
  S   S69       1.0  0.15553  0.62418  0.21253  1.0000
  Fe  Fe36      1.0  0.08355  0.59401  0.23781  1.0000
  S   S70       1.0  0.05341  0.58260  0.22603  1.0000
  S   S71       1.0  0.13445  0.60479  0.26483  1.0000
  S   S72       1.0  0.08713  0.58912  0.27224  1.0000
  Fe  Fe37      1.0  0.27647  0.62566  0.11006  1.0000
  S   S73       1.0  0.24818  0.62970  0.09028  1.0000
  S   S74       1.0  0.29231  0.65443  0.12062  1.0000
  Fe  Fe38      1.0  0.27317  0.57780  0.11343  1.0000
  S   S75       1.0  0.24553  0.57896  0.09353  1.0000
  S   S76       1.0  0.28493  0.54742  0.12937  1.0000
  Fe  Fe39      1.0  0.26250  0.60247  0.07321  1.0000
  S   S77       1.0  0.27028  0.59721  0.03903  1.0000
  Fe  Fe40      1.0  0.23374  0.60575  0.11279  1.0000
  S   S78       1.0  0.20016  0.60207  0.12517  1.0000
  S   S79       1.0  0.29139  0.59954  0.09209  1.0000
  S   S80       1.0  0.26093  0.60361  0.13358  1.0000
  H   H272      1.0  0.31084  0.69160  0.13249  1.0000
  C   C169      1.0  0.27895  0.52314  0.11943  1.0000
  C   C170      1.0  0.23009  0.52446  0.16068  1.0000
  H   H273      1.0  0.24828  0.56094  0.15377  1.0000
  H   H274      1.0  0.26602  0.53630  0.09121  1.0000
  C   C171      1.0  0.01081  0.58647  0.22886  1.0000
  H   H275      1.0  0.30985  0.61365  0.13013  1.0000
  H   H276      1.0  0.19718  0.54651  0.17732  1.0000
  H   H277      1.0  0.23294  0.62373  0.02930  1.0000
  C   C172      1.0  0.00732  0.60660  0.28101  1.0000
  C   C173      1.0  0.16825  0.61658  0.18880  1.0000
  C   C174      1.0  0.18822  0.62375  0.18353  1.0000
  C   C175      1.0  0.19843  0.61910  0.16438  1.0000
  C   C176      1.0  0.18853  0.60762  0.15000  1.0000
  C   C177      1.0  0.16863  0.60033  0.15533  1.0000
  C   C178      1.0  0.15864  0.60455  0.17468  1.0000
  H   H278      1.0  0.19579  0.63315  0.19425  1.0000
  H   H279      1.0  0.21366  0.62493  0.16051  1.0000
  H   H280      1.0  0.16073  0.59159  0.14429  1.0000
  H   H281      1.0  0.14321  0.59911  0.17837  1.0000
  C   C179      1.0  0.10321  0.66092  0.31023  1.0000
  H   H282      1.0  0.15407  0.64406  0.25274  1.0000
  H   H283      1.0  0.13115  0.64143  0.31230  1.0000
  C   C180      1.0  0.09240  0.67853  0.31814  1.0000
  H   H284      1.0  0.16218  0.65891  0.27368  1.0000
  C   C181      1.0  0.10087  0.69011  0.33364  1.0000
  H   H285      1.0  0.05123  0.60383  0.30887  1.0000
  C   C182      1.0  0.13118  0.66664  0.33349  1.0000
  C   C183      1.0  0.02941  0.59709  0.22628  1.0000
  H   H286      1.0  0.21290  0.53084  0.12364  1.0000
  C   C184      1.0  0.32791  0.57623  0.13977  1.0000
  H   H287      1.0  0.07735  0.68330  0.31224  1.0000
  C   C185      1.0  0.23169  0.56190  0.15926  1.0000
  C   C186      1.0  0.11790  0.52152  0.27494  1.0000
  C   C187      1.0  0.09781  0.52264  0.26735  1.0000
  H   H288      1.0  0.05364  0.63018  0.27977  1.0000
  H   H289      1.0  0.09067  0.53761  0.26278  1.0000
  H   H290      1.0  0.13610  0.65013  0.27386  1.0000
  H   H291      1.0  0.00852  0.62599  0.31701  1.0000
  H   H292      1.0  0.04269  0.62714  0.22165  1.0000
  C   C188      1.0  0.31780  0.66368  0.11584  1.0000
  H   H293      1.0  0.31625  0.57082  0.15183  1.0000
  C   C189      1.0  0.22097  0.54425  0.12943  1.0000
  H   H294      1.0  0.04550  0.61103  0.26290  1.0000
  H   H295      1.0  0.02703  0.59143  0.31497  1.0000
  C   C190      1.0  0.26042  0.60872  0.01576  1.0000
  H   H296      1.0  0.22208  0.51068  0.15556  1.0000
  H   H297      1.0  0.21340  0.55875  0.12259  1.0000
  H   H298      1.0  0.23728  0.54331  0.12312  1.0000
  C   C191      1.0  0.02849  0.61884  0.22408  1.0000
  N   N18       1.0  0.14208  0.67576  0.25225  1.0000
  C   C192      1.0  0.12388  0.67171  0.23997  1.0000
  C   C193      1.0  0.13627  0.69192  0.26726  1.0000
  C   C194      1.0  0.15921  0.68284  0.23807  1.0000
  C   C195      1.0  0.14892  0.65638  0.26365  1.0000
  H   H299      1.0  0.11835  0.68592  0.23098  1.0000
  H   H300      1.0  0.11062  0.66640  0.25021  1.0000
  H   H301      1.0  0.12770  0.65940  0.22863  1.0000
  H   H302      1.0  0.14954  0.69521  0.27701  1.0000
  H   H303      1.0  0.13102  0.70680  0.25923  1.0000
  H   H304      1.0  0.12329  0.68691  0.27807  1.0000
  H   H305      1.0  0.17329  0.68585  0.24676  1.0000
  H   H306      1.0  0.15461  0.69742  0.22912  1.0000
  H   H307      1.0  0.16376  0.67084  0.22655  1.0000
  H   H308      1.0  0.32521  0.73316  0.07907  1.0000
  H   H309      1.0  0.03171  0.63588  0.26379  1.0000
  N   N19       1.0  0.22027  0.54416  0.15238  1.0000
  H   H310      1.0  0.24668  0.52274  0.15514  1.0000
  C   C196      1.0  0.24166  0.62055  0.01502  1.0000
  H   H311      1.0  0.18927  0.53294  0.15526  1.0000
  H   H312      1.0  0.01047  0.64468  0.29550  1.0000
  H   H313      1.0  0.31350  0.73410  0.05411  1.0000
  C   C197      1.0  0.26941  0.52216  0.10039  1.0000
  C   C198      1.0  0.31782  0.61221  0.14514  1.0000
  H   H314      1.0  0.23129  0.56248  0.17650  1.0000
  C   C199      1.0  0.12270  0.65504  0.31800  1.0000
  H   H315      1.0  0.03266  0.63857  0.31113  1.0000
  C   C200      1.0  0.32271  0.68274  0.12393  1.0000
  C   C201      1.0  0.03974  0.62341  0.27343  1.0000
  H   H316      1.0  0.30597  0.60776  0.15738  1.0000
  C   C202      1.0  0.01905  0.63180  0.30412  1.0000
  H   H317      1.0  0.01138  0.56963  0.23034  1.0000
  C   C203      1.0  0.03700  0.59811  0.30207  1.0000
  H   H318      1.0  0.32966  0.63799  0.09807  1.0000
  H   H319      1.0  0.00849  0.64668  0.22295  1.0000
  H   H320      1.0  0.19063  0.56077  0.15375  1.0000
  C   C204      1.0  0.19837  0.54610  0.16006  1.0000
  H   H321      1.0  0.01185  0.59366  0.27065  1.0000
  H   H322      1.0  0.22485  0.57701  0.15309  1.0000
  N   N20       1.0  0.33554  0.59686  0.14424  1.0000
  H   H323      1.0  0.32704  0.69474  0.07861  1.0000
  C   C205      1.0  0.32860  0.73350  0.06196  1.0000
  H   H324      1.0  0.32017  0.57662  0.12458  1.0000
  H   H325      1.0  0.04211  0.58513  0.29190  1.0000
  N   N21       1.0  0.02576  0.61497  0.29017  1.0000
  C   C206      1.0  0.33099  0.69594  0.06162  1.0000
  H   H326      1.0  0.31618  0.69532  0.05337  1.0000
  H   H327      1.0  0.22979  0.52376  0.17798  1.0000
  H   H328      1.0  0.32290  0.62806  0.14837  1.0000
  C   C207      1.0  0.33332  0.65242  0.10479  1.0000
  H   H329      1.0  0.33206  0.71687  0.02433  1.0000
  C   C208      1.0  0.00911  0.62986  0.22479  1.0000
  H   H330      1.0  0.33476  0.59066  0.17732  1.0000
  H   H331      1.0  0.33634  0.74836  0.05781  1.0000
  S   S81       1.0  0.08964  0.74097  0.58835  1.0000
  H   H332      1.0  0.04472  0.74122  0.40514  1.0000
  H   H333      1.0  0.10728  0.71848  0.66458  1.0000
  H   H334      1.0  0.01093  0.73153  0.42171  1.0000
  Fe  Fe41      1.0  0.11411  0.73270  0.61201  1.0000
  S   S82       1.0  0.12151  0.69969  0.62541  1.0000
  S   S83       1.0  0.08922  0.72805  0.39705  1.0000
  S   S84       1.0  0.13815  0.73435  0.40516  1.0000
  Fe  Fe42      1.0  0.11917  0.72702  0.37796  1.0000
  S   S85       1.0  0.13170  0.69806  0.36117  1.0000
  Fe  Fe43      1.0  0.10805  0.73777  0.42333  1.0000
  S   S86       1.0  0.10189  0.72158  0.45487  1.0000
  H   H335      1.0  0.10125  0.72868  0.53064  1.0000
  H   H336      1.0  0.12371  0.64562  0.43985  1.0000
  H   H337      1.0  0.12869  0.65852  0.64372  1.0000
  C   C209      1.0  0.12363  0.66850  0.65618  1.0000
  C   C210      1.0  0.10700  0.73465  0.47761  1.0000
  C   C211      1.0  0.10125  0.72579  0.49725  1.0000
  C   C212      1.0  0.10553  0.73572  0.51559  1.0000
  C   C213      1.0  0.15436  0.67423  0.40636  1.0000
  N   N22       1.0  0.17121  0.73054  0.65388  1.0000
  H   H338      1.0  0.15541  0.69100  0.40147  1.0000
  H   H339      1.0  0.11766  0.69489  0.40802  1.0000
  H   H340      1.0  0.15185  0.66585  0.39195  1.0000
  C   C214      1.0  0.11182  0.70231  0.66784  1.0000
  C   C215      1.0  0.13651  0.64858  0.42809  1.0000
  H   H341      1.0  0.16415  0.72060  0.62362  1.0000
  C   C216      1.0  0.15046  0.74069  0.65746  1.0000
  H   H342      1.0  0.13379  0.63918  0.41442  1.0000
  H   H343      1.0  0.17543  0.74567  0.62365  1.0000
  C   C217      1.0  0.11833  0.68963  0.65153  1.0000
  H   H344      1.0  0.11398  0.66957  0.39910  1.0000
  H   H345      1.0  0.19141  0.72231  0.62788  1.0000
  C   C218      1.0  0.18698  0.74270  0.66343  1.0000
  H   H346      1.0  0.15133  0.64257  0.43493  1.0000
  H   H347      1.0  0.09362  0.71110  0.49831  1.0000
  H   H348      1.0  0.01250  0.74076  0.56960  1.0000
  N   N23       1.0  0.13729  0.67098  0.42205  1.0000
  H   H349      1.0  0.15582  0.67790  0.44781  1.0000
  C   C219      1.0  0.03088  0.75076  0.40205  1.0000
  C   C220      1.0  0.17580  0.72974  0.63126  1.0000
  C   C221      1.0  0.11732  0.67821  0.41311  1.0000
  C   C222      1.0  0.14090  0.68289  0.44059  1.0000
  H   H350      1.0  0.14150  0.69989  0.43663  1.0000
  H   H351      1.0  0.10407  0.67661  0.42462  1.0000
  H   H352      1.0  0.12816  0.68105  0.45265  1.0000
  H   H353      1.0  0.16970  0.66882  0.41241  1.0000
  H   H354      1.0  0.13841  0.73241  0.64960  1.0000
  S   S87       1.0  0.13893  0.74882  0.59256  1.0000
  H   H355      1.0  0.15993  0.69951  0.65599  1.0000
  C   C223      1.0  0.01165  0.74521  0.41132  1.0000
  H   H356      1.0  0.20289  0.73556  0.66102  1.0000
  C   C224      1.0  0.12033  0.68422  0.34144  1.0000
  H   H357      1.0  0.04777  0.74898  0.44819  1.0000
  H   H358      1.0  0.18695  0.70105  0.66122  1.0000
  C   C225      1.0  0.17142  0.70911  0.66327  1.0000
  H   H359      1.0  0.04457  0.75178  0.58525  1.0000
  C   C226      1.0  0.11573  0.75453  0.51438  1.0000
  C   C227      1.0  0.01141  0.75245  0.58118  1.0000
  C   C228      1.0  0.11681  0.75365  0.47642  1.0000
  H   H360      1.0  0.14622  0.66190  0.33942  1.0000
  H   H361      1.0  0.14989  0.75713  0.65120  1.0000
  H   H362      1.0  0.07374  0.75686  0.45175  1.0000
  H   H363      1.0  0.09233  0.70359  0.33954  1.0000
  Fe  Fe44      1.0  0.28689  0.61725  0.89420  1.0000
  S   S88       1.0  0.25800  0.63808  0.89452  1.0000
  S   S89       1.0  0.32011  0.62891  0.89496  1.0000
  Fe  Fe45      1.0  0.26130  0.57729  0.90208  1.0000
  S   S90       1.0  0.23100  0.59623  0.90311  1.0000
  S   S91       1.0  0.25805  0.54365  0.91434  1.0000
  Fe  Fe46      1.0  0.24409  0.61400  0.87511  1.0000
  S   S92       1.0  0.22794  0.62263  0.84454  1.0000
  Fe  Fe47      1.0  0.24772  0.61809  0.92240  1.0000
  S   S93       1.0  0.23432  0.63135  0.95266  1.0000
  S   S94       1.0  0.27396  0.59406  0.87309  1.0000
  S   S95       1.0  0.27705  0.59832  0.92288  1.0000
  Fe  Fe48      1.0  0.12724  0.58414  0.74215  1.0000
  S   S96       1.0  0.10788  0.58190  0.77160  1.0000
  S   S97       1.0  0.14525  0.55418  0.73409  1.0000
  Fe  Fe49      1.0  0.11749  0.63145  0.73617  1.0000
  S   S98       1.0  0.09828  0.63169  0.76632  1.0000
  S   S99       1.0  0.11645  0.66394  0.71972  1.0000
  Fe  Fe50      1.0  0.12392  0.61072  0.77988  1.0000
  S   S100      1.0  0.13620  0.60980  0.81292  1.0000
  Fe  Fe51      1.0  0.08447  0.60297  0.75511  1.0000
  S   S101      1.0  0.05087  0.59493  0.75034  1.0000
  S   S102      1.0  0.14410  0.61249  0.75073  1.0000
  S   S103      1.0  0.10292  0.60319  0.72471  1.0000
  C   C229      1.0  0.02476  0.62295  0.77185  1.0000
  C   C230      1.0  0.02674  0.60745  0.75726  1.0000
  C   C231      1.0  0.00891  0.60145  0.74760  1.0000
  H   H364      1.0  0.28610  0.59568  0.99753  1.0000
  H   H365      1.0  0.16576  0.58764  0.78600  1.0000
  H   H366      1.0  0.27098  0.68006  0.91275  1.0000
  C   C232      1.0  0.13178  0.53068  0.73498  1.0000
  C   C233      1.0  0.11029  0.53084  0.73257  1.0000
  H   H367      1.0  0.29472  0.65105  0.92331  1.0000
  H   H368      1.0  0.10156  0.54553  0.73070  1.0000
  H   H369      1.0  0.29383  0.70419  0.94397  1.0000
  C   C234      1.0  0.25619  0.55429  0.97139  1.0000
  C   C235      1.0  0.11689  0.67304  0.69320  1.0000
  H   H370      1.0  0.02684  0.63526  0.72263  1.0000
  C   C236      1.0  0.32823  0.65508  0.89441  1.0000
  C   C237      1.0  0.29886  0.68776  0.94112  1.0000
  H   H371      1.0  0.22911  0.53082  0.95362  1.0000
  C   C238      1.0  0.20231  0.61877  0.83621  1.0000
  C   C239      1.0  0.18655  0.61109  0.84964  1.0000
  C   C240      1.0  0.16638  0.60880  0.84233  1.0000
  C   C241      1.0  0.16173  0.61387  0.82146  1.0000
  C   C242      1.0  0.17754  0.62141  0.80800  1.0000
  C   C243      1.0  0.19762  0.62388  0.81536  1.0000
  H   H372      1.0  0.18982  0.60718  0.86573  1.0000
  H   H373      1.0  0.15431  0.60301  0.85294  1.0000
  H   H374      1.0  0.17424  0.62561  0.79198  1.0000
  H   H375      1.0  0.20963  0.62997  0.80485  1.0000
  C   C244      1.0  0.26474  0.51916  0.90378  1.0000
  C   C245      1.0  0.31647  0.67163  0.88528  1.0000
  C   C246      1.0  0.27706  0.51704  0.88556  1.0000
  H   H376      1.0  0.07477  0.66042  0.73803  1.0000
  H   H377      1.0  0.28260  0.53076  0.87713  1.0000
  C   C247      1.0  0.24483  0.62317  0.97694  1.0000
  H   H378      1.0  0.16981  0.57238  0.76361  1.0000
  C   C248      1.0  0.26387  0.61197  0.97789  1.0000
  H   H379      1.0  0.22811  0.52535  0.98125  1.0000
  H   H380      1.0  0.27272  0.60862  0.96386  1.0000
  H   H381      1.0  0.19151  0.57831  0.77869  1.0000
  H   H382      1.0  0.26389  0.56920  0.97310  1.0000
  H   H383      1.0  0.02436  0.65064  0.69889  1.0000
  C   C249      1.0  0.32394  0.69199  0.88441  1.0000
  H   H384      1.0  0.26214  0.54802  0.95639  1.0000
  H   H385      1.0  0.30189  0.66864  0.87840  1.0000
  H   H386      1.0  0.30151  0.64665  0.94992  1.0000
  H   H387      1.0  0.17681  0.53491  0.76729  1.0000
  C   C250      1.0  0.12272  0.66017  0.67686  1.0000
  H   H388      1.0  0.26151  0.54325  0.98406  1.0000
  H   H389      1.0  0.14259  0.54915  0.77959  1.0000
  C   C251      1.0  0.22382  0.53720  0.96887  1.0000
  H   H390      1.0  0.20654  0.53894  0.96889  1.0000
  H   H391      1.0  0.18384  0.74371  0.68048  1.0000
  C   C252      1.0  0.27152  0.60470  0.99711  1.0000
  H   H392      1.0  0.08149  0.64211  0.70489  1.0000
  H   H393      1.0  0.19675  0.56139  0.81265  1.0000
  C   C253      1.0  0.26495  0.68039  0.92919  1.0000
  H   H394      1.0  0.01033  0.58958  0.73618  1.0000
  H   H395      1.0  0.25881  0.69650  0.93194  1.0000
  H   H396      1.0  0.01978  0.66243  0.72359  1.0000
  H   H397      1.0  0.04621  0.68866  0.71244  1.0000
  H   H398      1.0  0.17833  0.54344  0.82390  1.0000
  N   N24       1.0  0.17177  0.55504  0.79286  1.0000
  C   C254      1.0  0.17999  0.55770  0.81365  1.0000
  C   C255      1.0  0.14931  0.55119  0.79501  1.0000
  C   C256      1.0  0.18279  0.53720  0.78302  1.0000
  C   C257      1.0  0.17491  0.57416  0.77970  1.0000
  C   C258      1.0  0.14288  0.51145  0.73739  1.0000
  H   H399      1.0  0.17154  0.57075  0.82158  1.0000
  H   H400      1.0  0.23498  0.58728  0.95598  1.0000
  H   H401      1.0  0.14049  0.56446  0.80228  1.0000
  H   H402      1.0  0.08359  0.51229  0.72938  1.0000
  H   H403      1.0  0.21921  0.63656  0.99514  1.0000
  H   H404      1.0  0.12701  0.64394  0.68018  1.0000
  H   H405      1.0  0.23088  0.56636  0.93959  1.0000
  H   H406      1.0  0.14631  0.53691  0.80485  1.0000
  N   N25       1.0  0.23327  0.55731  0.97195  1.0000
  C   C259      1.0  0.05830  0.65600  0.73720  1.0000
  H   H407      1.0  0.31490  0.70456  0.87689  1.0000
  H   H408      1.0  0.06223  0.62350  0.71232  1.0000
  H   H409      1.0  0.20891  0.56770  0.99334  1.0000
  H   H410      1.0  0.19978  0.53964  0.78109  1.0000
  H   H411      1.0  0.31154  0.68309  0.95185  1.0000
  C   C260      1.0  0.23391  0.62776  0.99564  1.0000
  H   H412      1.0  0.25154  0.66994  0.93075  1.0000
  C   C261      1.0  0.05549  0.67598  0.70478  1.0000
  H   H413      1.0  0.25898  0.66433  0.96775  1.0000
  C   C262      1.0  0.02975  0.65082  0.71507  1.0000
  H   H414      1.0  0.18071  0.52246  0.79245  1.0000
  H   H415      1.0  0.04852  0.66739  0.74615  1.0000
  H   H416      1.0  0.28430  0.66859  0.97687  1.0000
  N   N26       1.0  0.05201  0.65551  0.71542  1.0000
  C   C263      1.0  0.06458  0.63918  0.70470  1.0000
  C   C264      1.0  0.22697  0.57244  0.95518  1.0000
  H   H417      1.0  0.23283  0.58064  0.99480  1.0000
  C   C265      1.0  0.22613  0.56533  0.99227  1.0000
  C   C266      1.0  0.28875  0.65221  0.93963  1.0000
  H   H418      1.0  0.26727  0.69041  0.96934  1.0000
  N   N27       1.0  0.28130  0.67370  0.94386  1.0000
  H   H419      1.0  0.20994  0.57621  0.95591  1.0000
  C   C267      1.0  0.27264  0.67434  0.96542  1.0000
  H   H420      1.0  0.05699  0.64047  0.74537  1.0000
  C   C268      1.0  0.11143  0.69413  0.68853  1.0000
  H   H421      1.0  0.05132  0.67614  0.68818  1.0000
  H   H422      1.0  0.30578  0.68749  0.92503  1.0000
  H   H423      1.0  0.27603  0.64115  0.94189  1.0000
  H   H424      1.0  0.10684  0.70422  0.70104  1.0000
  H   H425      1.0  0.03835  0.62760  0.77955  1.0000
  H   H426      1.0  0.06046  0.63845  0.68815  1.0000
  H   H427      1.0  0.07216  0.67991  0.70508  1.0000
  H   H428      1.0  0.15951  0.51118  0.73925  1.0000
  C   C269      1.0  0.10013  0.51196  0.73183  1.0000
  H   H429      1.0  0.23088  0.55453  0.00539  1.0000
  H   H430      1.0  0.16732  0.70901  0.68023  1.0000
  H   H431      1.0  0.14592  0.74080  0.67429  1.0000
  H   H432      1.0  0.30972  0.85569  0.22689  1.0000
  H   H433      1.0  0.32218  0.85983  0.25079  1.0000
  C   C270      1.0  0.31948  0.89356  0.31351  1.0000
  H   H434      1.0  0.31063  0.90200  0.30167  1.0000
  C   C271      1.0  0.32391  0.85172  0.23582  1.0000
  H   H435      1.0  0.33129  0.85050  0.19443  1.0000
  H   H436      1.0  0.32435  0.83466  0.23964  1.0000
  H   H437      1.0  0.32783  0.88550  0.21032  1.0000
  H   H438      1.0  0.29454  0.89578  0.33695  1.0000
  H   H439      1.0  0.25910  0.86157  0.32645  1.0000
  C   C272      1.0  0.31026  0.89000  0.33356  1.0000
  H   H440      1.0  0.27670  0.82704  0.32261  1.0000
  H   H441      1.0  0.23782  0.83025  0.32368  1.0000
  C   C273      1.0  0.26682  0.98103  0.45256  1.0000
  H   H442      1.0  0.30361  0.00326  0.58774  1.0000
  Fe  Fe52      1.0  0.13053  0.77722  0.61060  1.0000
  S   S104      1.0  0.16032  0.79118  0.62134  1.0000
  S   S105      1.0  0.10653  0.78914  0.58812  1.0000
  C   C274      1.0  0.03006  0.78741  0.44428  1.0000
  C   C275      1.0  0.16928  0.80550  0.52745  1.0000
  S   S106      1.0  0.05646  0.77782  0.37944  1.0000
  H   H443      1.0  0.14360  0.93394  0.62230  1.0000
  S   S107      1.0  0.16291  0.78587  0.40215  1.0000
  C   C276      1.0  0.26703  0.00229  0.56926  1.0000
  S   S108      1.0  0.10440  0.77201  0.41564  1.0000
  Fe  Fe53      1.0  0.25528  0.89582  0.43041  1.0000
  S   S109      1.0  0.22956  0.91296  0.41288  1.0000
  S   S110      1.0  0.24646  0.89274  0.46511  1.0000
  Fe  Fe54      1.0  0.28068  0.88755  0.38938  1.0000
  S   S111      1.0  0.25650  0.90425  0.37018  1.0000
  S   S112      1.0  0.30965  0.87196  0.37392  1.0000
  Fe  Fe55      1.0  0.25543  0.92838  0.39446  1.0000
  S   S113      1.0  0.26087  0.96226  0.38471  1.0000
  Fe  Fe56      1.0  0.23321  0.88680  0.39070  1.0000
  S   S114      1.0  0.20689  0.87108  0.37518  1.0000
  S   S115      1.0  0.28102  0.91252  0.41290  1.0000
  S   S116      1.0  0.25749  0.86895  0.40904  1.0000
  Fe  Fe57      1.0  0.26838  0.90843  0.63012  1.0000
  S   S117      1.0  0.23454  0.91953  0.63207  1.0000
  H   H444      1.0  0.26745  0.99331  0.58445  1.0000
  Fe  Fe58      1.0  0.26813  0.90808  0.58261  1.0000
  S   S118      1.0  0.23492  0.91922  0.58174  1.0000
  S   S119      1.0  0.28732  0.90486  0.55231  1.0000
  Fe  Fe59      1.0  0.24272  0.94176  0.60553  1.0000
  S   S120      1.0  0.22844  0.97434  0.59904  1.0000
  Fe  Fe60      1.0  0.22878  0.89601  0.60825  1.0000
  S   S121      1.0  0.19639  0.88232  0.60668  1.0000
  S   S122      1.0  0.27669  0.93236  0.60476  1.0000
  S   S123      1.0  0.26206  0.88315  0.60791  1.0000
  H   H445      1.0  0.17627  0.94266  0.63843  1.0000
  H   H446      1.0  0.28181  0.92984  0.45786  1.0000
  C   C277      1.0  0.04764  0.77887  0.47630  1.0000
  C   C278      1.0  0.23283  0.99626  0.61364  1.0000
  H   H447      1.0  0.27131  0.83835  0.37851  1.0000
  H   H448      1.0  0.14241  0.93379  0.59443  1.0000
  H   H449      1.0  0.18980  0.92244  0.62445  1.0000
  H   H450      1.0  0.03657  0.76647  0.48076  1.0000
  C   C279      1.0  0.27589  0.90161  0.52806  1.0000
  C   C280      1.0  0.25446  0.89966  0.52663  1.0000
  C   C281      1.0  0.24588  0.89688  0.50722  1.0000
  C   C282      1.0  0.25854  0.89609  0.48897  1.0000
  C   C283      1.0  0.27999  0.89811  0.49033  1.0000
  C   C284      1.0  0.28860  0.90089  0.50980  1.0000
  H   H451      1.0  0.24451  0.89997  0.54051  1.0000
  H   H452      1.0  0.22929  0.89521  0.50636  1.0000
  H   H453      1.0  0.29001  0.89702  0.47653  1.0000
  H   H454      1.0  0.30522  0.90215  0.51079  1.0000
  C   C285      1.0  0.23307  0.98601  0.40891  1.0000
  C   C286      1.0  0.25133  0.98531  0.39641  1.0000
  H   H455      1.0  0.08069  0.79411  0.45461  1.0000
  H   H456      1.0  0.22397  0.97229  0.41110  1.0000
  C   C287      1.0  0.05861  0.76184  0.44494  1.0000
  C   C288      1.0  0.17428  0.81003  0.39464  1.0000
  C   C289      1.0  0.16713  0.82302  0.37816  1.0000
  C   C290      1.0  0.17720  0.84168  0.37254  1.0000
  C   C291      1.0  0.19432  0.84776  0.38344  1.0000
  C   C292      1.0  0.20138  0.83484  0.39999  1.0000
  C   C293      1.0  0.19151  0.81607  0.40543  1.0000
  H   H457      1.0  0.15397  0.81863  0.36966  1.0000
  H   H458      1.0  0.17158  0.85152  0.35970  1.0000
  H   H459      1.0  0.21443  0.83928  0.40864  1.0000
  H   H460      1.0  0.19718  0.80619  0.41821  1.0000
  H   H461      1.0  0.15752  0.91389  0.60827  1.0000
  H   H462      1.0  0.00803  0.79459  0.62231  1.0000
  N   N28       1.0  0.05032  0.78159  0.45346  1.0000
  C   C294      1.0  0.22633  0.00468  0.41816  1.0000
  H   H463      1.0  0.15750  0.79468  0.52251  1.0000
  C   C295      1.0  0.17008  0.81660  0.61681  1.0000
  C   C296      1.0  0.15740  0.83376  0.61047  1.0000
  C   C297      1.0  0.16580  0.85362  0.60731  1.0000
  C   C298      1.0  0.18696  0.85669  0.61048  1.0000
  C   C299      1.0  0.19969  0.83951  0.61668  1.0000
  C   C300      1.0  0.19126  0.81963  0.61991  1.0000
  H   H464      1.0  0.14100  0.83183  0.60844  1.0000
  H   H465      1.0  0.15575  0.86678  0.60265  1.0000
  H   H466      1.0  0.21596  0.84158  0.61924  1.0000
  H   H467      1.0  0.20125  0.80655  0.62492  1.0000
  S   S124      1.0  0.05119  0.78179  0.61674  1.0000
  H   H468      1.0  0.30806  0.00060  0.56026  1.0000
  C   C301      1.0  0.06512  0.79815  0.44821  1.0000
  H   H469      1.0  0.28926  0.94887  0.43807  1.0000
  S   S125      1.0  0.12259  0.76728  0.53676  1.0000
  H   H470      1.0  0.12915  0.77798  0.49362  1.0000
  H   H471      1.0  0.24771  0.97927  0.63894  1.0000
  H   H472      1.0  0.23688  0.81094  0.34485  1.0000
  H   H473      1.0  0.06128  0.76350  0.42781  1.0000
  H   H474      1.0  0.29633  0.95167  0.46450  1.0000
  C   C302      1.0  0.14772  0.81520  0.55721  1.0000
  N   N29       1.0  0.17126  0.94379  0.60554  1.0000
  H   H475      1.0  0.25568  0.94007  0.48588  1.0000
  H   H476      1.0  0.17349  0.94224  0.57221  1.0000
  C   C303      1.0  0.16472  0.96612  0.60491  1.0000
  C   C304      1.0  0.18459  0.93918  0.62347  1.0000
  Fe  Fe61      1.0  0.08365  0.76958  0.60687  1.0000
  Fe  Fe62      1.0  0.11392  0.75988  0.57088  1.0000
  H   H477      1.0  0.06270  0.77431  0.48361  1.0000
  C   C305      1.0  0.18304  0.93897  0.58608  1.0000
  H   H478      1.0  0.21218  0.00513  0.42777  1.0000
  H   H479      1.0  0.27007  0.96242  0.49087  1.0000
  S   S126      1.0  0.28259  0.90542  0.66243  1.0000
  H   H480      1.0  0.25619  0.81569  0.37658  1.0000
  C   C306      1.0  0.01384  0.78065  0.38489  1.0000
  H   H481      1.0  0.15470  0.97025  0.59152  1.0000
  H   H482      1.0  0.32413  0.90163  0.64171  1.0000
  H   H483      1.0  0.23270  0.95992  0.44808  1.0000
  H   H484      1.0  0.13527  0.80533  0.55210  1.0000
  C   C307      1.0  0.25796  0.95668  0.48096  1.0000
  H   H485      1.0  0.03176  0.79005  0.42709  1.0000
  H   H486      1.0  0.18430  0.82290  0.57344  1.0000
  H   H487      1.0  0.18706  0.75896  0.65657  1.0000
  H   H488      1.0  0.19715  0.94836  0.58397  1.0000
  C   C308      1.0  0.24265  0.99448  0.63267  1.0000
  H   H489      1.0  0.27909  0.98774  0.46157  1.0000
  H   H490      1.0  0.12143  0.76058  0.46142  1.0000
  N   N30       1.0  0.16856  0.80710  0.55030  1.0000
  H   H491      1.0  0.14622  0.81544  0.57445  1.0000
  C   C309      1.0  0.18447  0.82138  0.55628  1.0000
  H   H492      1.0  0.16088  0.77512  0.55617  1.0000
  C   C310      1.0  0.17268  0.78625  0.56028  1.0000
  H   H493      1.0  0.25216  0.99057  0.45503  1.0000
  H   H494      1.0  0.18823  0.77957  0.55538  1.0000
  H   H495      1.0  0.16601  0.82091  0.51939  1.0000
  C   C311      1.0  0.25832  0.85837  0.34356  1.0000
  H   H496      1.0  0.20041  0.81575  0.55134  1.0000
  H   H497      1.0  0.17219  0.78686  0.57754  1.0000
  C   C312      1.0  0.32127  0.87870  0.34899  1.0000
  H   H498      1.0  0.27131  0.99113  0.55695  1.0000
  S   S127      1.0  0.10696  0.76038  0.63135  1.0000
  H   H499      1.0  0.27144  0.98305  0.43575  1.0000
  H   H500      1.0  0.24330  0.84070  0.37919  1.0000
  C   C313      1.0  0.24762  0.95070  0.44626  1.0000
  H   H501      1.0  0.17849  0.97613  0.60331  1.0000
  H   H502      1.0  0.25222  0.95097  0.42943  1.0000
  H   H503      1.0  0.24308  0.96549  0.48448  1.0000
  H   H504      1.0  0.05950  0.81330  0.45451  1.0000
  H   H505      1.0  0.18831  0.92225  0.58606  1.0000
  C   C314      1.0  0.15283  0.93083  0.60772  1.0000
  N   N31       1.0  0.26405  0.95884  0.45863  1.0000
  H   H506      1.0  0.18183  0.83732  0.54913  1.0000
  C   C315      1.0  0.02857  0.77382  0.60498  1.0000
  Fe  Fe63      1.0  0.13370  0.76832  0.39555  1.0000
  C   C316      1.0  0.28376  0.94681  0.45463  1.0000
  H   H507      1.0  0.24446  0.93429  0.45105  1.0000
  H   H508      1.0  0.14441  0.83131  0.55082  1.0000
  C   C317      1.0  0.26248  0.00352  0.39292  1.0000
  C   C318      1.0  0.25707  0.83248  0.37183  1.0000
  C   C319      1.0  0.32602  0.90274  0.65824  1.0000
  H   H509      1.0  0.19875  0.94856  0.62228  1.0000
  H   H510      1.0  0.01468  0.79467  0.37498  1.0000
  H   H511      1.0  0.15586  0.97037  0.61938  1.0000
  C   C320      1.0  0.03219  0.76884  0.38924  1.0000
  C   C321      1.0  0.12122  0.76347  0.49472  1.0000
  N   N32       1.0  0.25738  0.83586  0.34899  1.0000
  H   H512      1.0  0.06740  0.80063  0.43103  1.0000
  H   H513      1.0  0.18479  0.79948  0.52163  1.0000
  H   H514      1.0  0.04154  0.79351  0.48336  1.0000
  Fe  Fe64      1.0  0.08754  0.76207  0.38794  1.0000
  S   S128      1.0  0.11667  0.76086  0.36683  1.0000
  C   C322      1.0  0.23825  0.82786  0.34087  1.0000
  H   H515      1.0  0.22407  0.83601  0.34764  1.0000
  C   C323      1.0  0.02966  0.75867  0.59004  1.0000
  H   H516      1.0  0.27650  0.00316  0.38309  1.0000
  H   H517      1.0  0.02308  0.80202  0.45067  1.0000
  H   H518      1.0  0.01868  0.77497  0.44727  1.0000
  H   H519      1.0  0.24433  0.86712  0.34983  1.0000
  C   C324      1.0  0.00899  0.78269  0.61093  1.0000
  H   H520      1.0  0.27225  0.86504  0.35002  1.0000
  H   H521      1.0  0.27595  0.80785  0.34385  1.0000
  H   H522      1.0  0.29053  0.83090  0.34571  1.0000
  C   C325      1.0  0.30843  0.90487  0.67153  1.0000
  C   C326      1.0  0.27594  0.82487  0.33985  1.0000
  C   C327      1.0  0.31128  0.90614  0.69301  1.0000
  H   H523      1.0  0.29778  0.90780  0.70343  1.0000
  H   H524      1.0  0.33100  0.87083  0.74348  1.0000
  H   H525      1.0  0.33315  0.90641  0.71764  1.0000
  H   H526      1.0  0.32511  0.83291  0.74946  1.0000
  H   H527      1.0  0.32596  0.84963  0.71351  1.0000
  C   C328      1.0  0.33137  0.90526  0.70113  1.0000
  Fe  Fe65      1.0  0.62688  0.10815  0.28703  1.0000
  S   S129      1.0  0.64823  0.10756  0.25881  1.0000
  S   S130      1.0  0.63763  0.11297  0.31992  1.0000
  Fe  Fe66      1.0  0.58862  0.09848  0.26148  1.0000
  S   S131      1.0  0.60799  0.09762  0.23155  1.0000
  S   S132      1.0  0.55605  0.08636  0.25861  1.0000
  Fe  Fe67      1.0  0.63138  0.07913  0.25077  1.0000
  S   S133      1.0  0.64792  0.04814  0.24405  1.0000
  Fe  Fe68      1.0  0.62263  0.12626  0.24239  1.0000
  S   S134      1.0  0.63039  0.15772  0.22630  1.0000
  S   S135      1.0  0.61159  0.07869  0.28000  1.0000
  S   S136      1.0  0.60178  0.12824  0.27135  1.0000
  Fe  Fe69      1.0  0.38885  0.11354  0.28404  1.0000
  S   S137      1.0  0.38504  0.09356  0.25681  1.0000
  S   S138      1.0  0.35870  0.12594  0.29985  1.0000
  Fe  Fe70      1.0  0.43671  0.10967  0.27892  1.0000
  S   S139      1.0  0.43577  0.08862  0.25219  1.0000
  S   S140      1.0  0.46693  0.12125  0.29048  1.0000
  Fe  Fe71      1.0  0.41073  0.11166  0.24066  1.0000
  S   S141      1.0  0.41128  0.12231  0.20618  1.0000
  Fe  Fe72      1.0  0.41020  0.07270  0.27092  1.0000
  S   S142      1.0  0.40475  0.03915  0.28213  1.0000
  S   S143      1.0  0.41269  0.13329  0.26676  1.0000
  S   S144      1.0  0.41307  0.09226  0.29872  1.0000
  H   H528      1.0  0.65291  0.18639  0.24983  1.0000
  C   C329      1.0  0.56119  0.22251  0.13837  1.0000
  Fe  Fe73      1.0  0.41770  0.22834  0.13183  1.0000
  S   S145      1.0  0.41848  0.21457  0.16536  1.0000
  H   H529      1.0  0.35014  0.24014  0.13757  1.0000
  S   S146      1.0  0.43908  0.22307  0.10392  1.0000
  N   N33       1.0  0.55905  0.02608  0.28524  1.0000
  H   H530      1.0  0.65096  0.14423  0.29091  1.0000
  Fe  Fe74      1.0  0.61734  0.23120  0.12230  1.0000
  S   S147      1.0  0.61460  0.19749  0.13493  1.0000
  S   S148      1.0  0.59452  0.24167  0.09767  1.0000
  C   C330      1.0  0.53495  0.20723  0.16119  1.0000
  S   S149      1.0  0.40868  0.20612  0.05773  1.0000
  H   H531      1.0  0.65405  0.19993  0.27347  1.0000
  H   H532      1.0  0.54452  0.23791  0.18618  1.0000
  N   N34       1.0  0.47444  0.13444  0.21723  1.0000
  H   H533      1.0  0.59178  0.03038  0.27909  1.0000
  H   H534      1.0  0.40950  0.18482  0.01990  1.0000
  H   H535      1.0  0.52232  0.21564  0.15240  1.0000
  N   N35       1.0  0.55402  0.21925  0.16028  1.0000
  C   C331      1.0  0.34687  0.11672  0.32371  1.0000
  C   C332      1.0  0.41198  0.14823  0.19516  1.0000
  C   C333      1.0  0.41252  0.15142  0.17337  1.0000
  C   C334      1.0  0.41431  0.17156  0.16392  1.0000
  C   C335      1.0  0.41577  0.18879  0.17620  1.0000
  C   C336      1.0  0.41515  0.18562  0.19799  1.0000
  C   C337      1.0  0.41317  0.16552  0.20743  1.0000
  H   H536      1.0  0.41165  0.13818  0.16370  1.0000
  H   H537      1.0  0.41475  0.17370  0.14715  1.0000
  H   H538      1.0  0.41620  0.19882  0.20766  1.0000
  H   H539      1.0  0.41262  0.16344  0.22419  1.0000
  C   C338      1.0  0.40847  0.01628  0.26796  1.0000
  H   H540      1.0  0.54921  0.23119  0.12896  1.0000
  H   H541      1.0  0.46195  0.13195  0.24859  1.0000
  H   H542      1.0  0.42025  0.03142  0.23972  1.0000
  H   H543      1.0  0.34684  0.01700  0.31489  1.0000
  C   C339      1.0  0.62562  0.16840  0.20081  1.0000
  C   C340      1.0  0.61747  0.15679  0.18543  1.0000
  C   C341      1.0  0.61445  0.16588  0.16533  1.0000
  C   C342      1.0  0.61937  0.18669  0.16037  1.0000
  C   C343      1.0  0.62729  0.19838  0.17582  1.0000
  C   C344      1.0  0.63046  0.18925  0.19587  1.0000
  H   H544      1.0  0.61374  0.14074  0.18892  1.0000
  H   H545      1.0  0.60832  0.15668  0.15351  1.0000
  H   H546      1.0  0.63114  0.21440  0.17229  1.0000
  H   H547      1.0  0.63679  0.19841  0.20759  1.0000
  S   S150      1.0  0.38915  0.22942  0.11280  1.0000
  H   H548      1.0  0.57451  0.19230  0.16517  1.0000
  H   H549      1.0  0.59825  0.21463  0.00933  1.0000
  C   C345      1.0  0.53155  0.09696  0.26720  1.0000
  C   C346      1.0  0.52951  0.11443  0.27938  1.0000
  C   C347      1.0  0.50961  0.12171  0.28644  1.0000
  C   C348      1.0  0.49165  0.11163  0.28138  1.0000
  C   C349      1.0  0.49373  0.09426  0.26908  1.0000
  C   C350      1.0  0.51356  0.08702  0.26199  1.0000
  H   H550      1.0  0.54323  0.12219  0.28355  1.0000
  H   H551      1.0  0.50813  0.13515  0.29599  1.0000
  H   H552      1.0  0.48008  0.08621  0.26529  1.0000
  H   H553      1.0  0.51497  0.07355  0.25251  1.0000
  H   H554      1.0  0.57499  0.04269  0.26009  1.0000
  C   C351      1.0  0.63247  0.02610  0.24380  1.0000
  C   C352      1.0  0.61210  0.02798  0.23701  1.0000
  H   H555      1.0  0.45460  0.14373  0.19211  1.0000
  H   H556      1.0  0.60572  0.04310  0.23182  1.0000
  H   H557      1.0  0.57626  0.01311  0.31101  1.0000
  C   C353      1.0  0.45931  0.14097  0.23374  1.0000
  H   H558      1.0  0.36316  0.06194  0.28105  1.0000
  C   C354      1.0  0.35615  0.02970  0.30751  1.0000
  C   C355      1.0  0.37509  0.25288  0.16658  1.0000
  H   H559      1.0  0.66914  0.15106  0.24719  1.0000
  H   H560      1.0  0.34865  0.08143  0.29538  1.0000
  C   C356      1.0  0.54954  0.23966  0.16951  1.0000
  C   C357      1.0  0.64797  0.15958  0.28270  1.0000
  H   H561      1.0  0.53786  0.19178  0.15425  1.0000
  S   S151      1.0  0.64395  0.24687  0.10499  1.0000
  C   C358      1.0  0.36432  0.21736  0.17044  1.0000
  C   C359      1.0  0.39905  0.21381  0.03306  1.0000
  H   H562      1.0  0.53701  0.24871  0.16122  1.0000
  H   H563      1.0  0.38662  0.25002  0.17895  1.0000
  C   C360      1.0  0.38133  0.23846  0.00915  1.0000
  C   C361      1.0  0.38886  0.23320  0.02910  1.0000
  H   H564      1.0  0.56347  0.24941  0.16842  1.0000
  H   H565      1.0  0.52904  0.20452  0.17750  1.0000
  C   C362      1.0  0.53916  0.03781  0.28160  1.0000
  N   N36       1.0  0.35707  0.23951  0.16999  1.0000
  H   H566      1.0  0.52557  0.02890  0.28750  1.0000
  H   H567      1.0  0.37036  0.03090  0.31665  1.0000
  Fe  Fe75      1.0  0.41067  0.22747  0.08459  1.0000
  H   H568      1.0  0.57535  0.23177  0.13726  1.0000
  C   C363      1.0  0.56131  0.02184  0.30780  1.0000
  C   C364      1.0  0.41631  0.01674  0.24743  1.0000
  H   H569      1.0  0.38344  0.24974  0.15161  1.0000
  C   C365      1.0  0.66359  0.11460  0.32814  1.0000
  H   H570      1.0  0.54844  0.01244  0.31464  1.0000
  H   H571      1.0  0.56121  0.03660  0.31623  1.0000
  C   C366      1.0  0.35726  0.06607  0.29686  1.0000
  C   C367      1.0  0.61213  0.23772  0.02709  1.0000
  H   H572      1.0  0.56530  0.20751  0.13094  1.0000
  C   C368      1.0  0.49574  0.13791  0.22374  1.0000
  H   H573      1.0  0.48329  0.10662  0.20117  1.0000
  N   N37       1.0  0.34401  0.04974  0.30632  1.0000
  H   H574      1.0  0.53848  0.05298  0.28937  1.0000
  H   H575      1.0  0.63747  0.15706  0.26983  1.0000
  H   H576      1.0  0.46028  0.15776  0.23687  1.0000
  H   H577      1.0  0.49784  0.15464  0.22647  1.0000
  H   H578      1.0  0.63930  0.16976  0.29386  1.0000
  H   H579      1.0  0.43864  0.23466  0.02930  1.0000
  H   H580      1.0  0.50765  0.13286  0.21183  1.0000
  H   H581      1.0  0.49921  0.12899  0.23853  1.0000
  H   H582      1.0  0.47555  0.10232  0.22806  1.0000
  C   C369      1.0  0.57050  0.20767  0.17191  1.0000
  H   H583      1.0  0.48178  0.14277  0.18513  1.0000
  C   C370      1.0  0.47234  0.11208  0.21374  1.0000
  H   H584      1.0  0.56580  0.20481  0.18855  1.0000
  C   C371      1.0  0.62426  0.25527  0.02628  1.0000
  H   H585      1.0  0.37378  0.09913  0.33462  1.0000
  C   C372      1.0  0.40183  0.19991  0.01692  1.0000
  C   C373      1.0  0.47025  0.14675  0.19778  1.0000
  H   H586      1.0  0.45627  0.10889  0.20919  1.0000
  H   H587      1.0  0.44312  0.13840  0.22946  1.0000
  H   H588      1.0  0.57655  0.05366  0.28489  1.0000
  C   C374      1.0  0.57640  0.03866  0.27699  1.0000
  H   H589      1.0  0.47059  0.16379  0.20004  1.0000
  H   H590      1.0  0.60659  0.23122  0.04198  1.0000
  H   H591      1.0  0.58509  0.21642  0.17135  1.0000
  C   C375      1.0  0.43987  0.25056  0.02180  1.0000
  H   H592      1.0  0.37525  0.21369  0.18323  1.0000
  H   H593      1.0  0.35117  0.20674  0.17268  1.0000
  H   H594      1.0  0.38641  0.24393  0.04149  1.0000
  N   N38       1.0  0.66755  0.16873  0.27480  1.0000
  H   H595      1.0  0.37111  0.06820  0.30625  1.0000
  H   H596      1.0  0.37295  0.25320  0.00630  1.0000
  C   C376      1.0  0.60015  0.01025  0.23641  1.0000
  H   H597      1.0  0.67167  0.25473  0.06959  1.0000
  H   H598      1.0  0.58459  0.01187  0.23063  1.0000
  C   C377      1.0  0.60745  0.22834  0.00857  1.0000
  H   H599      1.0  0.35699  0.24137  0.20319  1.0000
  H   H600      1.0  0.53723  0.04162  0.26471  1.0000
  C   C378      1.0  0.66274  0.18871  0.26336  1.0000
  H   H601      1.0  0.55750  0.00885  0.25756  1.0000
  H   H602      1.0  0.37290  0.21336  0.15571  1.0000
  H   H603      1.0  0.36159  0.02482  0.29176  1.0000
  H   H604      1.0  0.46992  0.22389  0.00786  1.0000
  C   C379      1.0  0.34636  0.24424  0.19003  1.0000
  C   C380      1.0  0.34254  0.24362  0.15292  1.0000
  C   C381      1.0  0.35767  0.10371  0.33798  1.0000
  H   H605      1.0  0.48041  0.24903  0.01042  1.0000
  H   H606      1.0  0.35025  0.05708  0.33762  1.0000
  H   H607      1.0  0.35626  0.08695  0.36778  1.0000
  H   H608      1.0  0.58607  0.14335  0.64810  1.0000
  H   H609      1.0  0.35886  0.08899  0.66594  1.0000
  C   C382      1.0  0.59908  0.13154  0.65016  1.0000
  H   H610      1.0  0.57691  0.10046  0.66774  1.0000
  H   H611      1.0  0.65393  0.11714  0.36037  1.0000
  H   H612      1.0  0.35145  0.13444  0.45581  1.0000
  C   C383      1.0  0.34771  0.09691  0.35681  1.0000
  H   H613      1.0  0.61380  0.13916  0.64523  1.0000
  H   H614      1.0  0.38706  0.15207  0.66384  1.0000
  H   H615      1.0  0.34135  0.12694  0.40021  1.0000
  H   H616      1.0  0.36236  0.12493  0.43175  1.0000
  H   H617      1.0  0.59691  0.11890  0.63930  1.0000
  C   C384      1.0  0.66705  0.11683  0.34936  1.0000
  H   H618      1.0  0.61533  0.09423  0.66417  1.0000
  H   H619      1.0  0.42556  0.15695  0.66100  1.0000
  C   C385      1.0  0.35145  0.13691  0.43858  1.0000
  H   H620      1.0  0.35784  0.15245  0.43457  1.0000
  H   H621      1.0  0.63236  0.11458  0.66935  1.0000
  N   N39       1.0  0.59971  0.12331  0.67193  1.0000
  S   S152      1.0  0.41867  0.22368  0.92401  1.0000
  C   C386      1.0  0.42415  0.16458  0.67618  1.0000
  Fe  Fe76      1.0  0.39269  0.24142  0.94070  1.0000
  S   S153      1.0  0.37303  0.23013  0.96864  1.0000
  Fe  Fe77      1.0  0.40593  0.23811  0.89437  1.0000
  S   S154      1.0  0.40745  0.22435  0.86188  1.0000
  S   S155      1.0  0.63481  0.23706  0.90929  1.0000
  S   S156      1.0  0.58473  0.23797  0.91437  1.0000
  H   H622      1.0  0.41174  0.04083  0.81861  1.0000
  C   C387      1.0  0.41063  0.13366  0.69329  1.0000
  Fe  Fe78      1.0  0.60817  0.23551  0.88772  1.0000
  S   S157      1.0  0.59776  0.21042  0.86651  1.0000
  Fe  Fe79      1.0  0.41273  0.12435  0.78910  1.0000
  S   S158      1.0  0.41003  0.14256  0.75866  1.0000
  S   S159      1.0  0.41004  0.13385  0.82312  1.0000
  Fe  Fe80      1.0  0.42038  0.08307  0.76731  1.0000
  S   S160      1.0  0.41846  0.09802  0.73513  1.0000
  S   S161      1.0  0.43113  0.04951  0.77509  1.0000
  Fe  Fe81      1.0  0.43768  0.12291  0.74734  1.0000
  S   S162      1.0  0.46127  0.13820  0.72516  1.0000
  Fe  Fe82      1.0  0.39093  0.11669  0.74798  1.0000
  S   S163      1.0  0.36116  0.12692  0.73103  1.0000
  S   S164      1.0  0.44191  0.10666  0.77837  1.0000
  S   S165      1.0  0.39135  0.09978  0.77953  1.0000
  Fe  Fe83      1.0  0.61787  0.12883  0.77667  1.0000
  S   S166      1.0  0.61649  0.13913  0.74286  1.0000
  S   S167      1.0  0.63558  0.14946  0.79742  1.0000
  Fe  Fe84      1.0  0.60192  0.08562  0.76821  1.0000
  S   S168      1.0  0.60006  0.09297  0.73396  1.0000
  S   S169      1.0  0.58980  0.05467  0.78086  1.0000
  Fe  Fe85      1.0  0.63086  0.10777  0.73597  1.0000
  S   S170      1.0  0.65816  0.09977  0.71359  1.0000
  Fe  Fe86      1.0  0.58563  0.12362  0.74352  1.0000
  S   S171      1.0  0.56054  0.13839  0.72312  1.0000
  S   S172      1.0  0.63390  0.09784  0.76972  1.0000
  S   S173      1.0  0.58574  0.11582  0.77791  1.0000
  C   C388      1.0  0.62510  0.02952  0.77241  1.0000
  C   C389      1.0  0.60440  0.03076  0.77990  1.0000
  C   C390      1.0  0.61464  0.23659  0.98915  1.0000
  H   H623      1.0  0.63275  0.04358  0.76722  1.0000
  H   H624      1.0  0.62817  0.17029  0.88254  1.0000
  C   C391      1.0  0.48888  0.13707  0.72617  1.0000
  C   C392      1.0  0.50009  0.12594  0.74172  1.0000
  C   C393      1.0  0.52218  0.12599  0.74129  1.0000
  C   C394      1.0  0.53299  0.13718  0.72532  1.0000
  C   C395      1.0  0.52162  0.14808  0.70993  1.0000
  C   C396      1.0  0.49987  0.14802  0.71035  1.0000
  H   H625      1.0  0.49179  0.11744  0.75406  1.0000
  H   H626      1.0  0.53078  0.11753  0.75331  1.0000
  H   H627      1.0  0.52970  0.15682  0.69760  1.0000
  H   H628      1.0  0.49148  0.15669  0.69832  1.0000
  H   H629      1.0  0.43448  0.22119  0.99467  1.0000
  C   C397      1.0  0.41722  0.02684  0.77152  1.0000
  C   C398      1.0  0.39578  0.02773  0.76866  1.0000
  Fe  Fe87      1.0  0.43621  0.25308  0.92560  1.0000
  H   H630      1.0  0.38737  0.04265  0.76788  1.0000
  C   C399      1.0  0.45893  0.23796  0.84990  1.0000
  H   H631      1.0  0.43931  0.16186  0.68393  1.0000
  H   H632      1.0  0.59235  0.19282  0.90730  1.0000
  H   H633      1.0  0.58442  0.16982  0.92157  1.0000
  H   H634      1.0  0.64801  0.17461  0.90063  1.0000
  C   C400      1.0  0.60877  0.19421  0.84689  1.0000
  C   C401      1.0  0.63005  0.19332  0.84151  1.0000
  C   C402      1.0  0.63797  0.17955  0.82636  1.0000
  C   C403      1.0  0.62475  0.16667  0.81628  1.0000
  C   C404      1.0  0.60350  0.16761  0.82165  1.0000
  C   C405      1.0  0.59561  0.18121  0.83692  1.0000
  H   H635      1.0  0.64038  0.20322  0.84899  1.0000
  H   H636      1.0  0.65444  0.17898  0.82234  1.0000
  H   H637      1.0  0.59312  0.15781  0.81409  1.0000
  H   H638      1.0  0.57913  0.18174  0.84093  1.0000
  H   H639      1.0  0.55248  0.03143  0.76912  1.0000
  H   H640      1.0  0.43831  0.06668  0.82215  1.0000
  N   N40       1.0  0.61736  0.17083  0.91457  1.0000
  C   C406      1.0  0.40824  0.19893  0.85164  1.0000
  C   C407      1.0  0.40981  0.19711  0.82991  1.0000
  C   C408      1.0  0.41049  0.17742  0.82093  1.0000
  C   C409      1.0  0.40961  0.15918  0.83358  1.0000
  C   C410      1.0  0.40825  0.16098  0.85533  1.0000
  C   C411      1.0  0.40761  0.18068  0.86432  1.0000
  H   H641      1.0  0.41030  0.21106  0.81990  1.0000
  H   H642      1.0  0.41153  0.17640  0.80421  1.0000
  H   H643      1.0  0.40754  0.14704  0.86534  1.0000
  H   H644      1.0  0.40637  0.18174  0.88104  1.0000
  C   C412      1.0  0.38421  0.22449  0.99301  1.0000
  C   C413      1.0  0.35062  0.12018  0.70716  1.0000
  C   C414      1.0  0.67188  0.11321  0.69292  1.0000
  H   H645      1.0  0.41976  0.06841  0.86706  1.0000
  N   N41       1.0  0.40752  0.06828  0.83653  1.0000
  H   H646      1.0  0.42624  0.04521  0.85324  1.0000
  H   H647      1.0  0.65411  0.14229  0.69433  1.0000
  C   C415      1.0  0.42790  0.00729  0.77266  1.0000
  Fe  Fe88      1.0  0.61103  0.24255  0.93511  1.0000
  C   C416      1.0  0.66678  0.13385  0.68653  1.0000
  H   H648      1.0  0.39821  0.12702  0.70373  1.0000
  H   H649      1.0  0.42044  0.16400  0.71784  1.0000
  C   C417      1.0  0.35134  0.10066  0.67558  1.0000
  H   H650      1.0  0.44562  0.22280  0.88701  1.0000
  H   H651      1.0  0.44254  0.23585  0.97165  1.0000
  H   H652      1.0  0.38363  0.17698  0.67547  1.0000
  C   C418      1.0  0.62054  0.14809  0.91826  1.0000
  C   C419      1.0  0.36017  0.10515  0.69452  1.0000
  S   S174      1.0  0.46923  0.24656  0.93636  1.0000
  C   C420      1.0  0.39107  0.08440  0.84102  1.0000
  H   H653      1.0  0.38581  0.04527  0.82941  1.0000
  H   H654      1.0  0.40037  0.04956  0.86415  1.0000
  H   H655      1.0  0.37707  0.07755  0.84878  1.0000
  H   H656      1.0  0.38607  0.09300  0.82654  1.0000
  H   H657      1.0  0.39669  0.09635  0.85124  1.0000
  H   H658      1.0  0.46725  0.20501  0.89183  1.0000
  C   C421      1.0  0.51139  0.24905  0.93206  1.0000
  H   H659      1.0  0.57994  0.10697  0.69425  1.0000
  N   N42       1.0  0.44896  0.24976  0.00038  1.0000
  C   C422      1.0  0.48153  0.24191  0.87843  1.0000
  C   C423      1.0  0.62659  0.25424  0.98835  1.0000
  H   H660      1.0  0.39275  0.16087  0.71970  1.0000
  H   H661      1.0  0.41105  0.12512  0.67864  1.0000
  H   H662      1.0  0.42572  0.13021  0.70086  1.0000
  H   H663      1.0  0.49789  0.20485  0.86685  1.0000
  H   H664      1.0  0.61971  0.19877  0.93121  1.0000
  H   H665      1.0  0.51185  0.23411  0.94051  1.0000
  C   C424      1.0  0.59550  0.17572  0.90924  1.0000
  H   H666      1.0  0.39632  0.19414  0.98487  1.0000
  C   C425      1.0  0.45833  0.21339  0.87934  1.0000
  C   C426      1.0  0.48803  0.21362  0.85532  1.0000
  C   C427      1.0  0.62199  0.18159  0.93354  1.0000
  H   H667      1.0  0.66236  0.14000  0.73298  1.0000
  H   H668      1.0  0.61028  0.14220  0.93134  1.0000
  H   H669      1.0  0.39508  0.06081  0.80737  1.0000
  C   C428      1.0  0.39964  0.05313  0.82245  1.0000
  C   C429      1.0  0.41374  0.05736  0.85614  1.0000
  H   H670      1.0  0.63691  0.14385  0.92220  1.0000
  C   C430      1.0  0.57991  0.11343  0.67791  1.0000
  C   C431      1.0  0.42573  0.07830  0.82645  1.0000
  H   H671      1.0  0.43224  0.08982  0.83656  1.0000
  H   H672      1.0  0.42132  0.08700  0.81194  1.0000
  H   H673      1.0  0.42003  0.24446  0.98646  1.0000
  H   H674      1.0  0.62931  0.19500  0.89388  1.0000
  H   H675      1.0  0.63836  0.17842  0.93809  1.0000
  C   C432      1.0  0.63137  0.17793  0.89719  1.0000
  H   H676      1.0  0.54472  0.25043  0.92931  1.0000
  H   H677      1.0  0.59175  0.16896  0.89427  1.0000
  N   N43       1.0  0.47172  0.22673  0.86574  1.0000
  H   H678      1.0  0.37429  0.09689  0.69935  1.0000
  S   S175      1.0  0.60831  0.22459  0.96619  1.0000
  H   H679      1.0  0.44651  0.24810  0.85724  1.0000
  H   H680      1.0  0.61848  0.10156  0.69036  1.0000
  H   H681      1.0  0.61160  0.17686  0.94699  1.0000
  H   H682      1.0  0.49849  0.22321  0.84500  1.0000
  C   C433      1.0  0.40572  0.16673  0.70937  1.0000
  H   H683      1.0  0.61704  0.13958  0.90421  1.0000
  H   H684      1.0  0.60309  0.13485  0.70220  1.0000
  H   H685      1.0  0.58961  0.15252  0.68484  1.0000
  C   C434      1.0  0.43595  0.23725  0.98777  1.0000
  H   H686      1.0  0.51513  0.02578  0.77799  1.0000
  H   H687      1.0  0.45086  0.22694  0.84040  1.0000
  H   H688      1.0  0.48110  0.20204  0.84558  1.0000
  N   N44       1.0  0.40685  0.15628  0.68937  1.0000
  H   H689      1.0  0.37368  0.15411  0.68864  1.0000
  C   C435      1.0  0.60267  0.14060  0.68571  1.0000
  C   C436      1.0  0.38511  0.00918  0.76736  1.0000
  C   C437      1.0  0.55128  0.02056  0.75626  1.0000
  H   H690      1.0  0.40302  0.18387  0.70708  1.0000
  H   H691      1.0  0.65711  0.15437  0.75602  1.0000
  H   H692      1.0  0.45072  0.20163  0.87035  1.0000
  H   H693      1.0  0.56644  0.12490  0.67711  1.0000
  H   H694      1.0  0.47740  0.23923  0.98495  1.0000
  C   C438      1.0  0.47017  0.24007  0.00092  1.0000
  H   H695      1.0  0.61744  0.14848  0.68178  1.0000
  H   H696      1.0  0.54715  0.03017  0.74211  1.0000
  S   S176      1.0  0.37798  0.25343  0.91091  1.0000
  H   H697      1.0  0.36845  0.00996  0.76563  1.0000
  H   H698      1.0  0.56862  0.24693  0.98502  1.0000
  H   H699      1.0  0.54832  0.25345  0.96716  1.0000
  C   C439      1.0  0.51509  0.01489  0.76504  1.0000
  H   H700      1.0  0.65218  0.00924  0.76680  1.0000
  H   H701      1.0  0.49126  0.23396  0.89058  1.0000
  H   H702      1.0  0.46847  0.24804  0.83917  1.0000
  H   H703      1.0  0.67076  0.12394  0.77696  1.0000
  H   H704      1.0  0.56709  0.01334  0.75334  1.0000
  C   C440      1.0  0.63604  0.01005  0.77210  1.0000
  C   C441      1.0  0.61719  0.10774  0.67401  1.0000
  C   C442      1.0  0.59477  0.01241  0.78683  1.0000
  H   H705      1.0  0.51000  0.02411  0.75094  1.0000
  H   H706      1.0  0.57908  0.01335  0.79334  1.0000
  H   H707      1.0  0.46963  0.25192  0.88666  1.0000
  C   C443      1.0  0.66922  0.15058  0.74379  1.0000
  C   C444      1.0  0.38697  0.16007  0.67881  1.0000
  H   H708      1.0  0.49169  0.25239  0.86876  1.0000
  C   C445      1.0  0.39448  0.20521  0.99703  1.0000
  H   H709      1.0  0.42191  0.18166  0.67296  1.0000
  H   H710      1.0  0.54661  0.27028  0.08745  1.0000
  H   H711      1.0  0.37027  0.26973  0.16593  1.0000
  Fe  Fe89      1.0  0.39285  0.26423  0.10966  1.0000
  S   S177      1.0  0.36094  0.28065  0.11594  1.0000
  C   C446      1.0  0.35133  0.30666  0.11963  1.0000
  C   C447      1.0  0.66476  0.32743  0.11031  1.0000
  S   S178      1.0  0.61226  0.28883  0.10035  1.0000
  H   H712      1.0  0.36566  0.35708  0.12042  1.0000
  S   S179      1.0  0.47042  0.26992  0.08558  1.0000
  C   C448      1.0  0.36422  0.32366  0.11878  1.0000
  Fe  Fe90      1.0  0.63506  0.27518  0.12318  1.0000
  Fe  Fe91      1.0  0.58828  0.26925  0.11744  1.0000
  H   H713      1.0  0.64601  0.41334  0.12364  1.0000
  H   H714      1.0  0.65753  0.29059  0.07764  1.0000
  C   C449      1.0  0.35555  0.34404  0.12108  1.0000
  C   C450      1.0  0.51357  0.27474  0.12961  1.0000
  H   H715      1.0  0.48004  0.27343  0.12919  1.0000
  S   S180      1.0  0.41229  0.26200  0.07982  1.0000
  H   H716      1.0  0.65074  0.44028  0.12713  1.0000
  H   H717      1.0  0.54937  0.26963  0.01043  1.0000
  H   H718      1.0  0.34830  0.32710  0.05477  1.0000
  H   H719      1.0  0.51291  0.26736  0.07040  1.0000
  S   S181      1.0  0.55592  0.27803  0.13045  1.0000
  H   H720      1.0  0.65001  0.32352  0.10435  1.0000
  C   C451      1.0  0.65435  0.42409  0.13319  1.0000
  C   C452      1.0  0.53219  0.27076  0.09663  1.0000
  C   C453      1.0  0.49414  0.26999  0.09866  1.0000
  S   S182      1.0  0.66144  0.29227  0.13689  1.0000
  S   S183      1.0  0.42092  0.26330  0.12963  1.0000
  H   H721      1.0  0.34071  0.26085  0.19015  1.0000
  Fe  Fe92      1.0  0.62037  0.26004  0.08246  1.0000
  C   C454      1.0  0.53247  0.27403  0.11792  1.0000
  H   H722      1.0  0.51358  0.27757  0.14603  1.0000
  C   C455      1.0  0.51307  0.26910  0.08700  1.0000
  C   C456      1.0  0.49451  0.27241  0.12011  1.0000
  H   H723      1.0  0.38084  0.32116  0.11630  1.0000
  C   C457      1.0  0.63144  0.26347  0.00684  1.0000
  H   H724      1.0  0.64775  0.42258  0.14939  1.0000
  S   S184      1.0  0.63113  0.26750  0.04892  1.0000
  S   S185      1.0  0.61038  0.25831  0.14235  1.0000
  H   H725      1.0  0.66447  0.29778  0.05119  1.0000
  H   H726      1.0  0.66840  0.35419  0.08922  1.0000
  C   C458      1.0  0.67041  0.29645  0.06722  1.0000
  Fe  Fe93      1.0  0.44019  0.25784  0.10014  1.0000
  H   H727      1.0  0.42390  0.25792  0.02197  1.0000
  H   H728      1.0  0.44941  0.25962  0.03195  1.0000
  H   H729      1.0  0.64087  0.27703  0.00608  1.0000
  H   H730      1.0  0.63234  0.26064  0.97350  1.0000
  C   C459      1.0  0.65887  0.33029  0.90228  1.0000
  Fe  Fe94      1.0  0.39768  0.28101  0.91391  1.0000
  S   S186      1.0  0.38662  0.31531  0.91063  1.0000
  H   H731      1.0  0.36689  0.35583  0.91615  1.0000
  H   H732      1.0  0.59431  0.28444  0.97595  1.0000
  Fe  Fe95      1.0  0.63204  0.27218  0.90352  1.0000
  H   H733      1.0  0.35396  0.42864  0.85754  1.0000
  Fe  Fe96      1.0  0.58446  0.27227  0.90814  1.0000
  S   S187      1.0  0.55322  0.29029  0.90814  1.0000
  S   S188      1.0  0.60952  0.27736  0.93072  1.0000
  C   C460      1.0  0.35055  0.41182  0.85725  1.0000
  C   C461      1.0  0.36012  0.32432  0.90961  1.0000
  H   H734      1.0  0.55393  0.31088  0.96818  1.0000
  H   H735      1.0  0.58649  0.27466  0.00146  1.0000
  S   S189      1.0  0.60670  0.27016  0.88026  1.0000
  H   H736      1.0  0.43397  0.27871  0.99007  1.0000
  H   H737      1.0  0.65590  0.36373  0.90449  1.0000
  H   H738      1.0  0.51016  0.30269  0.90226  1.0000
  H   H739      1.0  0.52998  0.27679  0.99173  1.0000
  C   C462      1.0  0.49173  0.27820  0.91651  1.0000
  C   C463      1.0  0.51055  0.28761  0.91044  1.0000
  C   C464      1.0  0.52983  0.27764  0.91492  1.0000
  H   H740      1.0  0.47698  0.28605  0.91302  1.0000
  C   C465      1.0  0.35483  0.34550  0.91260  1.0000
  H   H741      1.0  0.54072  0.29066  0.95637  1.0000
  H   H742      1.0  0.58104  0.30150  0.99387  1.0000
  H   H743      1.0  0.64236  0.32807  0.90439  1.0000
  N   N45       1.0  0.56155  0.27981  0.98030  1.0000
  H   H744      1.0  0.35425  0.40666  0.84122  1.0000
  C   C466      1.0  0.54543  0.28075  0.99725  1.0000
  S   S190      1.0  0.42484  0.26688  0.89529  1.0000
  C   C467      1.0  0.58171  0.28538  0.98825  1.0000
  C   C468      1.0  0.55568  0.29460  0.96306  1.0000
  S   S191      1.0  0.66378  0.28707  0.89892  1.0000
  S   S192      1.0  0.41106  0.26966  0.94443  1.0000
  H   H745      1.0  0.56761  0.29441  0.95007  1.0000
  C   C469      1.0  0.34437  0.31108  0.90515  1.0000
  C   C470      1.0  0.66662  0.35053  0.90227  1.0000
  H   H746      1.0  0.54377  0.29661  0.00352  1.0000
  C   C471      1.0  0.56339  0.25846  0.97267  1.0000
  H   H747      1.0  0.34817  0.29479  0.90277  1.0000
  H   H748      1.0  0.36143  0.40307  0.86786  1.0000
  C   C472      1.0  0.49213  0.25892  0.92750  1.0000
  H   H749      1.0  0.45656  0.27097  0.97470  1.0000
  H   H750      1.0  0.45941  0.28108  0.00004  1.0000
  C   C473      1.0  0.44981  0.27110  0.99091  1.0000
  C   C474      1.0  0.53010  0.25824  0.92565  1.0000
  H   H751      1.0  0.57495  0.25735  0.95942  1.0000
  S   S193      1.0  0.60201  0.73806  0.08882  1.0000
  S   S194      1.0  0.60916  0.74009  0.13873  1.0000
  Fe  Fe97      1.0  0.62946  0.73836  0.10956  1.0000
  C   C475      1.0  0.36156  0.71508  0.06693  1.0000
  Fe  Fe98      1.0  0.58191  0.74304  0.11771  1.0000
  S   S195      1.0  0.55274  0.72479  0.12416  1.0000
  H   H752      1.0  0.52428  0.73387  0.07290  1.0000
  H   H753      1.0  0.55865  0.72321  0.02697  1.0000
  Fe  Fe99      1.0  0.39439  0.72106  0.10914  1.0000
  S   S196      1.0  0.38462  0.68719  0.10828  1.0000
  S   S197      1.0  0.41171  0.73370  0.08047  1.0000
  S   S198      1.0  0.41647  0.73521  0.13056  1.0000
  C   C476      1.0  0.53861  0.72915  0.06381  1.0000
  H   H754      1.0  0.66831  0.72605  0.15189  1.0000
  H   H755      1.0  0.61754  0.73403  0.01092  1.0000
  H   H756      1.0  0.34078  0.56413  0.13907  1.0000
  C   C477      1.0  0.51040  0.72317  0.12074  1.0000
  H   H757      1.0  0.35863  0.71520  0.08401  1.0000
  H   H758      1.0  0.64835  0.68769  0.13274  1.0000
  C   C478      1.0  0.52789  0.73548  0.11785  1.0000
  H   H759      1.0  0.57595  0.73398  0.04449  1.0000
  H   H760      1.0  0.61528  0.75092  0.04483  1.0000
  S   S199      1.0  0.66119  0.72160  0.10331  1.0000
  H   H761      1.0  0.47736  0.72107  0.11644  1.0000
  H   H762      1.0  0.35922  0.58410  0.16435  1.0000
  H   H763      1.0  0.37065  0.72894  0.06230  1.0000
  Fe  Fe100     1.0  0.43122  0.75060  0.10195  1.0000
  C   C479      1.0  0.35062  0.60347  0.12760  1.0000
  H   H764      1.0  0.65391  0.74414  0.16824  1.0000
  H   H765      1.0  0.35637  0.61920  0.13025  1.0000
  S   S200      1.0  0.37107  0.74791  0.11067  1.0000
  C   C480      1.0  0.34576  0.59557  0.16444  1.0000
  H   H766      1.0  0.37168  0.70102  0.06370  1.0000
  C   C481      1.0  0.35862  0.67878  0.11091  1.0000
  H   H767      1.0  0.51222  0.70750  0.12748  1.0000
  H   H768      1.0  0.36567  0.65081  0.09435  1.0000
  H   H769      1.0  0.66888  0.64037  0.06841  1.0000
  C   C482      1.0  0.61089  0.74972  0.01182  1.0000
  C   C483      1.0  0.48835  0.75077  0.10511  1.0000
  C   C484      1.0  0.49064  0.73082  0.11450  1.0000
  C   C485      1.0  0.66435  0.68460  0.12766  1.0000
  H   H770      1.0  0.35167  0.61093  0.16822  1.0000
  H   H771      1.0  0.65185  0.74616  0.14060  1.0000
  C   C486      1.0  0.35368  0.65980  0.10260  1.0000
  C   C487      1.0  0.34291  0.69036  0.12132  1.0000
  H   H772      1.0  0.34644  0.70493  0.12790  1.0000
  H   H773      1.0  0.66752  0.65558  0.14578  1.0000
  H   H774      1.0  0.53557  0.71412  0.05683  1.0000
  H   H775      1.0  0.34343  0.60431  0.11212  1.0000
  C   C488      1.0  0.66287  0.74264  0.15321  1.0000
  C   C489      1.0  0.56214  0.73761  0.03488  1.0000
  H   H776      1.0  0.55124  0.72610  0.07506  1.0000
  H   H777      1.0  0.52167  0.73607  0.02652  1.0000
  N   N46       1.0  0.54418  0.74531  0.04773  1.0000
  H   H778      1.0  0.36437  0.59241  0.12664  1.0000
  H   H779      1.0  0.34080  0.68183  0.05787  1.0000
  H   H780      1.0  0.35479  0.73111  0.02862  1.0000
  H   H781      1.0  0.43231  0.75454  0.00706  1.0000
  N   N47       1.0  0.34189  0.71527  0.05591  1.0000
  H   H782      1.0  0.56670  0.74942  0.02254  1.0000
  H   H783      1.0  0.35673  0.70323  0.02824  1.0000
  H   H784      1.0  0.46023  0.75508  0.14162  1.0000
  C   C490      1.0  0.52627  0.75013  0.03438  1.0000
  C   C491      1.0  0.52538  0.75570  0.10914  1.0000
  H   H785      1.0  0.46694  0.75363  0.16845  1.0000
  C   C492      1.0  0.34651  0.71663  0.03325  1.0000
  H   H786      1.0  0.44012  0.75627  0.16164  1.0000
  H   H787      1.0  0.51243  0.75604  0.04362  1.0000
  S   S201      1.0  0.60279  0.72889  0.91695  1.0000
  N   N48       1.0  0.60151  0.68221  0.87078  1.0000
  C   C493      1.0  0.35453  0.67975  0.90257  1.0000
  S   S202      1.0  0.55470  0.72584  0.88348  1.0000
  Fe  Fe101     1.0  0.57858  0.74577  0.89742  1.0000
  S   S203      1.0  0.60443  0.74667  0.97036  1.0000
  S   S204      1.0  0.40811  0.72376  0.91761  1.0000
  H   H788      1.0  0.36897  0.68274  0.90967  1.0000
  Fe  Fe102     1.0  0.38166  0.73781  0.89908  1.0000
  S   S205      1.0  0.35184  0.72215  0.89069  1.0000
  Fe  Fe103     1.0  0.42905  0.73856  0.89282  1.0000
  S   S206      1.0  0.45609  0.72002  0.87798  1.0000
  Fe  Fe104     1.0  0.62668  0.74534  0.89711  1.0000
  C   C494      1.0  0.49153  0.73859  0.89239  1.0000
  H   H789      1.0  0.62389  0.66775  0.84972  1.0000
  H   H790      1.0  0.58802  0.68037  0.84091  1.0000
  C   C495      1.0  0.51345  0.73996  0.89358  1.0000
  H   H791      1.0  0.57754  0.66295  0.86095  1.0000
  C   C496      1.0  0.67022  0.70791  0.89061  1.0000
  H   H792      1.0  0.64335  0.69512  0.90643  1.0000
  C   C497      1.0  0.52702  0.72588  0.88309  1.0000
  C   C498      1.0  0.51851  0.71063  0.87154  1.0000
  C   C499      1.0  0.49693  0.70932  0.87032  1.0000
  C   C500      1.0  0.48321  0.72318  0.88067  1.0000
  H   H793      1.0  0.52868  0.69970  0.86336  1.0000
  H   H794      1.0  0.49081  0.69741  0.86124  1.0000
  C   C501      1.0  0.59484  0.68014  0.89297  1.0000
  H   H795      1.0  0.57058  0.69026  0.86084  1.0000
  N   N49       1.0  0.40276  0.68537  0.85588  1.0000
  C   C502      1.0  0.40412  0.68966  0.87808  1.0000
  C   C503      1.0  0.38234  0.67673  0.85237  1.0000
  C   C504      1.0  0.41967  0.67026  0.84998  1.0000
  C   C505      1.0  0.40497  0.70498  0.84323  1.0000
  H   H796      1.0  0.41942  0.69598  0.88138  1.0000
  H   H797      1.0  0.40222  0.67534  0.88821  1.0000
  H   H798      1.0  0.39184  0.70132  0.88292  1.0000
  H   H799      1.0  0.38077  0.67307  0.83580  1.0000
  H   H800      1.0  0.37989  0.66218  0.86205  1.0000
  H   H801      1.0  0.36933  0.68797  0.85653  1.0000
  H   H802      1.0  0.41922  0.66665  0.83328  1.0000
  H   H803      1.0  0.41853  0.65534  0.85934  1.0000
  H   H804      1.0  0.43522  0.67650  0.85258  1.0000
  H   H805      1.0  0.39207  0.71649  0.84692  1.0000
  H   H806      1.0  0.40472  0.70231  0.82631  1.0000
  H   H807      1.0  0.41988  0.71237  0.84620  1.0000
  H   H808      1.0  0.63226  0.66899  0.87581  1.0000
  C   C506      1.0  0.60898  0.70338  0.86601  1.0000
  H   H809      1.0  0.61350  0.65049  0.86991  1.0000
  H   H810      1.0  0.58898  0.66441  0.89711  1.0000
  H   H811      1.0  0.61434  0.70547  0.84946  1.0000
  C   C507      1.0  0.61851  0.66666  0.86635  1.0000
  H   H812      1.0  0.58203  0.69171  0.89684  1.0000
  H   H813      1.0  0.59641  0.71543  0.86890  1.0000
  C   C508      1.0  0.58367  0.67874  0.85777  1.0000
  H   H814      1.0  0.60784  0.68273  0.90331  1.0000
  H   H815      1.0  0.62222  0.70678  0.87575  1.0000
  H   H816      1.0  0.35646  0.64665  0.91024  1.0000
  S   S207      1.0  0.65860  0.73310  0.88515  1.0000
  C   C509      1.0  0.66836  0.67173  0.90327  1.0000
  H   H817      1.0  0.65944  0.65937  0.91064  1.0000
  C   C510      1.0  0.65913  0.69196  0.90077  1.0000
  C   C511      1.0  0.34729  0.65930  0.90303  1.0000
  C   C512      1.0  0.34303  0.69620  0.89294  1.0000
  S   S208      1.0  0.40263  0.75062  0.87302  1.0000
  Fe  Fe105     1.0  0.40799  0.75473  0.93256  1.0000
  H   H818      1.0  0.48113  0.74941  0.90047  1.0000
  H   H819      1.0  0.51978  0.75180  0.90258  1.0000
  H   H820      1.0  0.47677  0.97174  0.27333  1.0000
  S   S209      1.0  0.59725  0.79117  0.05693  1.0000
  Fe  Fe106     1.0  0.61025  0.77513  0.13446  1.0000
  S   S210      1.0  0.61857  0.79023  0.16462  1.0000
  C   C513      1.0  0.54971  0.76441  0.05781  1.0000
  S   S211      1.0  0.58153  0.77795  0.11534  1.0000
  S   S212      1.0  0.40952  0.77906  0.10223  1.0000
  H   H821      1.0  0.45012  0.80920  0.17741  1.0000
  H   H822      1.0  0.52669  0.86459  0.31814  1.0000
  H   H823      1.0  0.47204  0.93798  0.25735  1.0000
  C   C514      1.0  0.61511  0.96085  0.16352  1.0000
  S   S213      1.0  0.38722  0.77651  0.16229  1.0000
  Fe  Fe107     1.0  0.60999  0.89356  0.23213  1.0000
  S   S214      1.0  0.61186  0.87620  0.26310  1.0000
  S   S215      1.0  0.60926  0.88240  0.19892  1.0000
  Fe  Fe108     1.0  0.60195  0.93573  0.25259  1.0000
  S   S216      1.0  0.60266  0.92148  0.28519  1.0000
  S   S217      1.0  0.59207  0.96902  0.24280  1.0000
  Fe  Fe109     1.0  0.63067  0.90260  0.27339  1.0000
  S   S218      1.0  0.66237  0.89669  0.28829  1.0000
  Fe  Fe110     1.0  0.58382  0.89633  0.27262  1.0000
  S   S219      1.0  0.55713  0.88085  0.29042  1.0000
  S   S220      1.0  0.63095  0.91854  0.24130  1.0000
  S   S221      1.0  0.58088  0.91199  0.24130  1.0000
  Fe  Fe111     1.0  0.41165  0.92322  0.24552  1.0000
  S   S222      1.0  0.40889  0.91221  0.27904  1.0000
  S   S223      1.0  0.41758  0.95597  0.23252  1.0000
  Fe  Fe112     1.0  0.40863  0.87873  0.22959  1.0000
  S   S224      1.0  0.40613  0.86445  0.26216  1.0000
  S   S225      1.0  0.40789  0.86431  0.19771  1.0000
  Fe  Fe113     1.0  0.38386  0.89153  0.26949  1.0000
  S   S226      1.0  0.35021  0.89002  0.28260  1.0000
  Fe  Fe114     1.0  0.43142  0.88631  0.26909  1.0000
  S   S227      1.0  0.45835  0.87689  0.28977  1.0000
  S   S228      1.0  0.38514  0.90466  0.23635  1.0000
  S   S229      1.0  0.43550  0.89845  0.23621  1.0000
  H   H824      1.0  0.36016  0.86027  0.25162  1.0000
  H   H825      1.0  0.39725  0.99661  0.29364  1.0000
  H   H826      1.0  0.44242  0.81084  0.14086  1.0000
  H   H827      1.0  0.60469  0.97499  0.16529  1.0000
  C   C515      1.0  0.41372  0.97894  0.24650  1.0000
  C   C516      1.0  0.40589  0.97847  0.26706  1.0000
  H   H828      1.0  0.66069  0.78319  0.14175  1.0000
  H   H829      1.0  0.40159  0.96384  0.27461  1.0000
  C   C517      1.0  0.38488  0.76765  0.02901  1.0000
  S   S230      1.0  0.46441  0.76087  0.09560  1.0000
  N   N50       1.0  0.61901  0.95016  0.18388  1.0000
  C   C518      1.0  0.52966  0.88131  0.28855  1.0000
  C   C519      1.0  0.51853  0.87144  0.30495  1.0000
  C   C520      1.0  0.49691  0.87027  0.30465  1.0000
  C   C521      1.0  0.48582  0.87872  0.28782  1.0000
  C   C522      1.0  0.49680  0.88857  0.27105  1.0000
  C   C523      1.0  0.51877  0.88996  0.27146  1.0000
  H   H830      1.0  0.45852  0.91788  0.27179  1.0000
  C   C524      1.0  0.59359  0.79003  0.01449  1.0000
  H   H831      1.0  0.48844  0.89502  0.25784  1.0000
  H   H832      1.0  0.52721  0.89749  0.25859  1.0000
  C   C525      1.0  0.60820  0.99056  0.24315  1.0000
  C   C526      1.0  0.62862  0.98858  0.24985  1.0000
  H   H833      1.0  0.48871  0.86267  0.31767  1.0000
  H   H834      1.0  0.63505  0.97347  0.25498  1.0000
  H   H835      1.0  0.57750  0.82764  0.21406  1.0000
  C   C527      1.0  0.39291  0.80109  0.17184  1.0000
  C   C528      1.0  0.39243  0.80354  0.19347  1.0000
  C   C529      1.0  0.39732  0.82260  0.20176  1.0000
  C   C530      1.0  0.40241  0.83958  0.18845  1.0000
  C   C531      1.0  0.40277  0.83714  0.16684  1.0000
  C   C532      1.0  0.39806  0.81805  0.15856  1.0000
  H   H836      1.0  0.38851  0.79050  0.20389  1.0000
  H   H837      1.0  0.39723  0.82410  0.21841  1.0000
  H   H838      1.0  0.40653  0.85021  0.15639  1.0000
  H   H839      1.0  0.39816  0.81657  0.14189  1.0000
  C   C533      1.0  0.45608  0.76129  0.15716  1.0000
  H   H840      1.0  0.42497  0.99858  0.22084  1.0000
  C   C534      1.0  0.45023  0.79187  0.17729  1.0000
  C   C535      1.0  0.61504  0.81590  0.17396  1.0000
  C   C536      1.0  0.60745  0.83280  0.16160  1.0000
  C   C537      1.0  0.60567  0.85295  0.16954  1.0000
  C   C538      1.0  0.61124  0.85650  0.18997  1.0000
  C   C539      1.0  0.61855  0.83956  0.20245  1.0000
  C   C540      1.0  0.62049  0.81944  0.19445  1.0000
  H   H841      1.0  0.60324  0.83040  0.14581  1.0000
  H   H842      1.0  0.60006  0.86590  0.15969  1.0000
  H   H843      1.0  0.62321  0.84203  0.21807  1.0000
  H   H844      1.0  0.62649  0.80655  0.20414  1.0000
  H   H845      1.0  0.60153  0.93593  0.20921  1.0000
  H   H846      1.0  0.57892  0.81716  0.26118  1.0000
  Fe  Fe115     1.0  0.60316  0.77284  0.08735  1.0000
  H   H847      1.0  0.56005  0.87121  0.24722  1.0000
  C   C541      1.0  0.60062  0.77934  0.03261  1.0000
  C   C542      1.0  0.59906  0.94379  0.19377  1.0000
  H   H848      1.0  0.63603  0.92295  0.19588  1.0000
  H   H849      1.0  0.56296  0.80827  0.22848  1.0000
  Fe  Fe116     1.0  0.38914  0.76099  0.08266  1.0000
  S   S231      1.0  0.63186  0.77327  0.10618  1.0000
  H   H850      1.0  0.64414  0.96960  0.19059  1.0000
  H   H851      1.0  0.48200  0.91984  0.30150  1.0000
  H   H852      1.0  0.63186  0.95706  0.21303  1.0000
  H   H853      1.0  0.46049  0.78546  0.18974  1.0000
  H   H854      1.0  0.35905  0.85168  0.19492  1.0000
  H   H855      1.0  0.52766  0.83926  0.24376  1.0000
  H   H856      1.0  0.44456  0.94079  0.26241  1.0000
  H   H857      1.0  0.44416  0.92371  0.30708  1.0000
  N   N51       1.0  0.45709  0.78423  0.15673  1.0000
  H   H858      1.0  0.53866  0.76537  0.10700  1.0000
  H   H859      1.0  0.44779  0.94794  0.31905  1.0000
  C   C543      1.0  0.62895  0.96451  0.19741  1.0000
  C   C544      1.0  0.40337  0.99708  0.27775  1.0000
  H   H860      1.0  0.62985  0.96590  0.15562  1.0000
  C   C545      1.0  0.55942  0.00619  0.27458  1.0000
  C   C546      1.0  0.65857  0.90813  0.32978  1.0000
  C   C547      1.0  0.48265  0.93686  0.29750  1.0000
  H   H861      1.0  0.57646  0.86395  0.22535  1.0000
  H   H862      1.0  0.54869  0.86490  0.22345  1.0000
  C   C548      1.0  0.40604  0.76196  0.02752  1.0000
  H   H863      1.0  0.64275  0.91330  0.32665  1.0000
  H   H864      1.0  0.46601  0.97624  0.29907  1.0000
  N   N52       1.0  0.34293  0.85793  0.22397  1.0000
  H   H865      1.0  0.61888  0.97875  0.20005  1.0000
  C   C549      1.0  0.44556  0.94082  0.30392  1.0000
  H   H866      1.0  0.44918  0.97449  0.27771  1.0000
  H   H867      1.0  0.47993  0.80742  0.15109  1.0000
  H   H868      1.0  0.43411  0.78721  0.18160  1.0000
  Fe  Fe117     1.0  0.39410  0.76323  0.13015  1.0000
  H   H869      1.0  0.54973  0.82825  0.21291  1.0000
  H   H870      1.0  0.54028  0.81846  0.25886  1.0000
  C   C550      1.0  0.44326  0.79353  0.14073  1.0000
  H   H871      1.0  0.50407  0.77870  0.09544  1.0000
  C   C551      1.0  0.64079  0.00629  0.24994  1.0000
  H   H872      1.0  0.48963  0.78334  0.16328  1.0000
  H   H873      1.0  0.43042  0.94711  0.29800  1.0000
  H   H874      1.0  0.53640  0.77103  0.06721  1.0000
  H   H875      1.0  0.42719  0.78805  0.14321  1.0000
  S   S232      1.0  0.37231  0.77212  0.05347  1.0000
  N   N53       1.0  0.46288  0.94518  0.28883  1.0000
  C   C552      1.0  0.46381  0.96792  0.28460  1.0000
  C   C553      1.0  0.45940  0.93502  0.26924  1.0000
  H   H876      1.0  0.37579  0.85729  0.22824  1.0000
  C   C554      1.0  0.37355  0.76989  0.01072  1.0000
  C   C555      1.0  0.35121  0.87555  0.32424  1.0000
  C   C556      1.0  0.63283  0.93147  0.18084  1.0000
  H   H877      1.0  0.58677  0.80564  0.01548  1.0000
  H   H878      1.0  0.35568  0.88581  0.21003  1.0000
  H   H879      1.0  0.58818  0.95744  0.19638  1.0000
  H   H880      1.0  0.64806  0.93558  0.17338  1.0000
  H   H881      1.0  0.36694  0.86978  0.32082  1.0000
  N   N54       1.0  0.56114  0.83857  0.24148  1.0000
  C   C557      1.0  0.57876  0.83365  0.25517  1.0000
  C   C558      1.0  0.54138  0.83503  0.25332  1.0000
  C   C559      1.0  0.56287  0.82507  0.22347  1.0000
  C   C560      1.0  0.56160  0.86062  0.23402  1.0000
  H   H882      1.0  0.59395  0.83621  0.24678  1.0000
  H   H883      1.0  0.57792  0.84366  0.26891  1.0000
  H   H884      1.0  0.53994  0.84462  0.26732  1.0000
  H   H885      1.0  0.62564  0.92017  0.17096  1.0000
  H   H886      1.0  0.60757  0.95045  0.15297  1.0000
  H   H887      1.0  0.48413  0.78460  0.13617  1.0000
  H   H888      1.0  0.44868  0.78920  0.12485  1.0000
  H   H889      1.0  0.55464  0.77673  0.04614  1.0000
  H   H890      1.0  0.59123  0.93262  0.18426  1.0000
  H   H891      1.0  0.49598  0.93896  0.28619  1.0000
  C   C561      1.0  0.41896  0.99811  0.23678  1.0000
  H   H892      1.0  0.48613  0.94459  0.31199  1.0000
  C   C562      1.0  0.47866  0.79019  0.15165  1.0000
  C   C563      1.0  0.36123  0.85245  0.23653  1.0000
  C   C564      1.0  0.50575  0.76320  0.10261  1.0000
  C   C565      1.0  0.60953  0.75923  0.03111  1.0000
  C   C566      1.0  0.34003  0.88644  0.30869  1.0000
  H   H893      1.0  0.36288  0.83538  0.24007  1.0000
  H   H894      1.0  0.57446  0.99722  0.27659  1.0000
  H   H895      1.0  0.34644  0.82976  0.20708  1.0000
  H   H896      1.0  0.65661  0.00470  0.25504  1.0000
  C   C567      1.0  0.67113  0.89931  0.31398  1.0000
  H   H897      1.0  0.66412  0.78043  0.16912  1.0000
  C   C568      1.0  0.34494  0.84697  0.20425  1.0000
  H   H898      1.0  0.35718  0.77443  0.01172  1.0000
  C   C569      1.0  0.41584  0.75871  0.00799  1.0000
  H   H899      1.0  0.56290  0.76131  0.06836  1.0000
  H   H900      1.0  0.54678  0.99609  0.28064  1.0000
  H   H901      1.0  0.41503  0.76046  0.04138  1.0000
  C   C570      1.0  0.34174  0.88068  0.21936  1.0000
  C   C571      1.0  0.67226  0.77849  0.15370  1.0000
  H   H902      1.0  0.53001  0.76227  0.02207  1.0000
  H   H903      1.0  0.34085  0.88946  0.23394  1.0000
  H   H904      1.0  0.64416  0.91862  0.65727  1.0000
  C   C572      1.0  0.66593  0.91771  0.44598  1.0000
  H   H905      1.0  0.66432  0.91622  0.42893  1.0000
  H   H906      1.0  0.65556  0.93104  0.45087  1.0000
  C   C573      1.0  0.66651  0.91023  0.34972  1.0000
  H   H907      1.0  0.35955  0.89959  0.65594  1.0000
  H   H908      1.0  0.65660  0.91701  0.36178  1.0000
  H   H909      1.0  0.35047  0.86269  0.35586  1.0000
  C   C574      1.0  0.34179  0.87150  0.34414  1.0000
  H   H910      1.0  0.66004  0.90328  0.45394  1.0000
  C   C575      1.0  0.34611  0.90158  0.66639  1.0000
  C   C576      1.0  0.65714  0.91497  0.66716  1.0000
  H   H911      1.0  0.58944  0.78885  0.98133  1.0000
  N   N55       1.0  0.66676  0.80127  0.87090  1.0000
  Fe  Fe118     1.0  0.60074  0.78656  0.89689  1.0000
  S   S233      1.0  0.60263  0.82070  0.88524  1.0000
  S   S234      1.0  0.57496  0.77321  0.91791  1.0000
  H   H912      1.0  0.65615  0.77642  0.85319  1.0000
  H   H913      1.0  0.40701  0.84909  0.95352  1.0000
  H   H914      1.0  0.36911  0.94308  0.72659  1.0000
  Fe  Fe119     1.0  0.40288  0.77974  0.89095  1.0000
  S   S235      1.0  0.40447  0.81394  0.87960  1.0000
  C   C577      1.0  0.41948  0.83831  0.95982  1.0000
  S   S236      1.0  0.43081  0.76830  0.90887  1.0000
  Fe  Fe120     1.0  0.43132  0.90427  0.75021  1.0000
  S   S237      1.0  0.41643  0.91118  0.78161  1.0000
  S   S238      1.0  0.46501  0.89511  0.74195  1.0000
  Fe  Fe121     1.0  0.38875  0.90413  0.72896  1.0000
  S   S239      1.0  0.37145  0.91052  0.75890  1.0000
  S   S240      1.0  0.37472  0.90062  0.69717  1.0000
  Fe  Fe122     1.0  0.39577  0.93409  0.76300  1.0000
  S   S241      1.0  0.38155  0.96676  0.76743  1.0000
  Fe  Fe123     1.0  0.39356  0.88697  0.77444  1.0000
  S   S242      1.0  0.38097  0.85792  0.79176  1.0000
  S   S243      1.0  0.41227  0.92850  0.73228  1.0000
  S   S244      1.0  0.40943  0.87927  0.74393  1.0000
  Fe  Fe124     1.0  0.60982  0.89359  0.77730  1.0000
  S   S245      1.0  0.59010  0.89660  0.74892  1.0000
  S   S246      1.0  0.61014  0.86046  0.79233  1.0000
  Fe  Fe125     1.0  0.62162  0.93943  0.77164  1.0000
  S   S247      1.0  0.60241  0.94502  0.74370  1.0000
  S   S248      1.0  0.64013  0.96739  0.77828  1.0000
  Fe  Fe126     1.0  0.57828  0.92691  0.76176  1.0000
  S   S249      1.0  0.54549  0.94066  0.76662  1.0000
  Fe  Fe127     1.0  0.61650  0.91439  0.73346  1.0000
  S   S250      1.0  0.62744  0.91377  0.69921  1.0000
  S   S251      1.0  0.59661  0.92328  0.79081  1.0000
  S   S252      1.0  0.63702  0.90942  0.76074  1.0000
  C   C578      1.0  0.62615  0.99167  0.77860  1.0000
  H   H915      1.0  0.53057  0.98027  0.78492  1.0000
  C   C579      1.0  0.60539  0.99291  0.78573  1.0000
  H   H916      1.0  0.40586  0.79458  0.93730  1.0000
  H   H917      1.0  0.59777  0.97889  0.79113  1.0000
  C   C580      1.0  0.39580  0.98962  0.76855  1.0000
  C   C581      1.0  0.41730  0.98877  0.77094  1.0000
  H   H918      1.0  0.37453  0.76813  0.97714  1.0000
  H   H919      1.0  0.42569  0.97383  0.77195  1.0000
  H   H920      1.0  0.66320  0.95340  0.74416  1.0000
  C   C582      1.0  0.48707  0.90829  0.74879  1.0000
  C   C583      1.0  0.50682  0.90119  0.74138  1.0000
  C   C584      1.0  0.52486  0.91102  0.74664  1.0000
  C   C585      1.0  0.52326  0.92799  0.75947  1.0000
  C   C586      1.0  0.50353  0.93519  0.76682  1.0000
  C   C587      1.0  0.48547  0.92536  0.76153  1.0000
  H   H921      1.0  0.50812  0.88809  0.73137  1.0000
  H   H922      1.0  0.53994  0.90565  0.74055  1.0000
  H   H923      1.0  0.50217  0.94832  0.77676  1.0000
  H   H924      1.0  0.47033  0.93091  0.76733  1.0000
  C   C588      1.0  0.59512  0.78057  0.99511  1.0000
  H   H925      1.0  0.63795  0.78575  0.87273  1.0000
  C   C589      1.0  0.35166  0.98155  0.69316  1.0000
  H   H926      1.0  0.34491  0.81400  0.74149  1.0000
  C   C590      1.0  0.66533  0.96512  0.69218  1.0000
  H   H927      1.0  0.60214  0.80255  0.84418  1.0000
  C   C591      1.0  0.39892  0.82530  0.85451  1.0000
  C   C592      1.0  0.38747  0.81516  0.84027  1.0000
  C   C593      1.0  0.38233  0.82530  0.82110  1.0000
  C   C594      1.0  0.38888  0.84552  0.81571  1.0000
  C   C595      1.0  0.40072  0.85548  0.82975  1.0000
  C   C596      1.0  0.40551  0.84550  0.84909  1.0000
  H   H928      1.0  0.38215  0.79970  0.84422  1.0000
  H   H929      1.0  0.37310  0.81744  0.81046  1.0000
  H   H930      1.0  0.40579  0.87105  0.82593  1.0000
  H   H931      1.0  0.41431  0.85355  0.85996  1.0000
  H   H932      1.0  0.60593  0.81857  0.80844  1.0000
  C   C597      1.0  0.52074  0.87293  0.79482  1.0000
  H   H933      1.0  0.65289  0.95504  0.68736  1.0000
  C   C598      1.0  0.60378  0.83156  0.85926  1.0000
  C   C599      1.0  0.60548  0.85323  0.85594  1.0000
  C   C600      1.0  0.60725  0.86244  0.83564  1.0000
  C   C601      1.0  0.60763  0.85000  0.81836  1.0000
  C   C602      1.0  0.60580  0.82835  0.82168  1.0000
  C   C603      1.0  0.60368  0.81920  0.84196  1.0000
  H   H934      1.0  0.60549  0.86299  0.86919  1.0000
  H   H935      1.0  0.60860  0.87911  0.83340  1.0000
  C   C604      1.0  0.38333  0.76634  0.99112  1.0000
  N   N56       1.0  0.66254  0.96990  0.71438  1.0000
  C   C605      1.0  0.35756  0.95403  0.71918  1.0000
  H   H936      1.0  0.51694  0.88565  0.78310  1.0000
  H   H937      1.0  0.54800  0.87311  0.76218  1.0000
  C   C606      1.0  0.43955  0.80606  0.95581  1.0000
  H   H938      1.0  0.55152  0.89985  0.78794  1.0000
  H   H939      1.0  0.66479  0.97951  0.68194  1.0000
  H   H940      1.0  0.64222  0.80109  0.84926  1.0000
  H   H941      1.0  0.43231  0.81345  0.91535  1.0000
  H   H942      1.0  0.41465  0.83355  0.97609  1.0000
  C   C607      1.0  0.55413  0.88717  0.80003  1.0000
  C   C608      1.0  0.55109  0.86105  0.77475  1.0000
  H   H943      1.0  0.51436  0.87806  0.81014  1.0000
  H   H944      1.0  0.51215  0.85911  0.79075  1.0000
  H   H945      1.0  0.54348  0.84667  0.77064  1.0000
  N   N57       1.0  0.53583  0.00460  0.76150  1.0000
  N   N58       1.0  0.35191  0.84586  0.73365  1.0000
  H   H946      1.0  0.54267  0.85667  0.82716  1.0000
  H   H947      1.0  0.39822  0.80325  0.96247  1.0000
  H   H948      1.0  0.45444  0.81407  0.95654  1.0000
  H   H949      1.0  0.44447  0.00645  0.77497  1.0000
  C   C609      1.0  0.37849  0.95488  0.68727  1.0000
  N   N59       1.0  0.42299  0.82000  0.94690  1.0000
  N   N60       1.0  0.54341  0.86820  0.79525  1.0000
  H   H950      1.0  0.54855  0.89326  0.81524  1.0000
  H   H951      1.0  0.44377  0.83579  0.92505  1.0000
  H   H952      1.0  0.56822  0.85755  0.77451  1.0000
  C   C610      1.0  0.42931  0.82692  0.92546  1.0000
  H   H953      1.0  0.62922  0.97000  0.71349  1.0000
  H   H954      1.0  0.39497  0.97049  0.72088  1.0000
  H   H955      1.0  0.43383  0.84726  0.96046  1.0000
  H   H956      1.0  0.54266  0.00269  0.79400  1.0000
  N   N61       1.0  0.36766  0.96774  0.70314  1.0000
  H   H957      1.0  0.57123  0.88404  0.80080  1.0000
  H   H958      1.0  0.37826  0.82566  0.72565  1.0000
  H   H959      1.0  0.34003  0.97235  0.68557  1.0000
  H   H960      1.0  0.35019  0.85792  0.70203  1.0000
  C   C611      1.0  0.54185  0.99252  0.78057  1.0000
  S   S253      1.0  0.60287  0.75994  0.87554  1.0000
  H   H961      1.0  0.50307  0.00328  0.76909  1.0000
  H   H962      1.0  0.55041  0.98198  0.74143  1.0000
  H   H963      1.0  0.34572  0.94449  0.71245  1.0000
  C   C612      1.0  0.54777  0.85167  0.81139  1.0000
  C   C613      1.0  0.65008  0.79065  0.86103  1.0000
  H   H964      1.0  0.41694  0.83698  0.91798  1.0000
  C   C614      1.0  0.34895  0.90277  0.68786  1.0000
  H   H965      1.0  0.38633  0.96463  0.67487  1.0000
  H   H966      1.0  0.55737  0.98436  0.77837  1.0000
  H   H967      1.0  0.53972  0.83718  0.80846  1.0000
  H   H968      1.0  0.56473  0.84754  0.81182  1.0000
  S   S254      1.0  0.62616  0.77294  0.91724  1.0000
  H   H969      1.0  0.38235  0.85294  0.72114  1.0000
  H   H970      1.0  0.64010  0.99516  0.70899  1.0000
  C   C615      1.0  0.38283  0.98045  0.71296  1.0000
  H   H971      1.0  0.35873  0.99218  0.68099  1.0000
  H   H972      1.0  0.43507  0.80011  0.97181  1.0000
  C   C616      1.0  0.40355  0.80867  0.94655  1.0000
  H   H973      1.0  0.44265  0.79209  0.94636  1.0000
  H   H974      1.0  0.63889  0.98327  0.73478  1.0000
  H   H975      1.0  0.65150  0.93991  0.72427  1.0000
  S   S255      1.0  0.38000  0.76810  0.91588  1.0000
  C   C617      1.0  0.34792  0.86650  0.74245  1.0000
  H   H976      1.0  0.39078  0.81844  0.93944  1.0000
  H   H977      1.0  0.35569  0.87879  0.73271  1.0000
  C   C618      1.0  0.65338  0.91121  0.68867  1.0000
  H   H978      1.0  0.53087  0.99890  0.72942  1.0000
  H   H979      1.0  0.37519  0.99024  0.72513  1.0000
  C   C619      1.0  0.64178  0.98008  0.71804  1.0000
  C   C620      1.0  0.53510  0.99038  0.74417  1.0000
  H   H980      1.0  0.39091  0.99094  0.70138  1.0000
  H   H981      1.0  0.52350  0.97820  0.74757  1.0000
  H   H982      1.0  0.66725  0.77954  0.89728  1.0000
  H   H983      1.0  0.39060  0.94412  0.69425  1.0000
  C   C621      1.0  0.37459  0.84131  0.73184  1.0000
  H   H984      1.0  0.36751  0.94492  0.67970  1.0000
  H   H985      1.0  0.64658  0.81298  0.89552  1.0000
  H   H986      1.0  0.38188  0.84169  0.74725  1.0000
  H   H987      1.0  0.64835  0.82994  0.87282  1.0000
  C   C622      1.0  0.40460  0.76081  0.98972  1.0000
  C   C623      1.0  0.34303  0.84594  0.71281  1.0000
  H   H988      1.0  0.35394  0.86690  0.75839  1.0000
  C   C624      1.0  0.34221  0.82984  0.74758  1.0000
  C   C625      1.0  0.60364  0.76027  0.99374  1.0000
  H   H989      1.0  0.66770  0.90309  0.71770  1.0000
  C   C626      1.0  0.66423  0.95038  0.72730  1.0000
  H   H990      1.0  0.34310  0.99133  0.70476  1.0000
  C   C627      1.0  0.67033  0.90638  0.70121  1.0000
  C   C628      1.0  0.65752  0.81867  0.88289  1.0000
  H   H991      1.0  0.34876  0.82956  0.76340  1.0000
  H   H992      1.0  0.34569  0.83060  0.70564  1.0000
  H   H993      1.0  0.66960  0.82739  0.89025  1.0000
  H   H994      1.0  0.34985  0.96309  0.73187  1.0000
  Fe  Fe128     1.0  0.60088  0.75729  0.93632  1.0000
  S   S256      1.0  0.41833  0.75731  0.96569  1.0000
  C   C629      1.0  0.70091  0.11688  0.32112  1.0000
  H   H995      1.0  0.67839  0.11225  0.29780  1.0000
  H   H996      1.0  0.68263  0.13901  0.26873  1.0000
  H   H997      1.0  0.71399  0.11697  0.31005  1.0000
  H   H998      1.0  0.89633  0.17169  0.33744  1.0000
  H   H999      1.0  0.91324  0.20531  0.32864  1.0000
  H   H1000     1.0  0.72024  0.05009  0.32990  1.0000
  C   C630      1.0  0.68072  0.11430  0.31410  1.0000
  H   H1001     1.0  0.69574  0.17904  0.28715  1.0000
  H   H1002     1.0  0.69841  0.25093  0.06119  1.0000
  H   H1003     1.0  0.68437  0.15757  0.30158  1.0000
  H   H1004     1.0  0.69351  0.16072  0.25421  1.0000
  C   C631      1.0  0.67873  0.15425  0.26064  1.0000
  C   C632      1.0  0.68071  0.17235  0.29250  1.0000
  H   H1005     1.0  0.67714  0.19612  0.25717  1.0000
  H   H1006     1.0  0.93498  0.17301  0.33501  1.0000
  H   H1007     1.0  0.70871  0.07457  0.33758  1.0000
  H   H1008     1.0  0.67277  0.18326  0.30347  1.0000
  H   H1009     1.0  0.70540  0.08234  0.37525  1.0000
  S   S257      1.0  0.90700  0.22928  0.41769  1.0000
  H   H1010     1.0  0.67404  0.15949  0.66488  1.0000
  S   S258      1.0  0.96373  0.23035  0.39130  1.0000
  Fe  Fe129     1.0  0.88627  0.24067  0.39199  1.0000
  S   S259      1.0  0.86171  0.22208  0.37697  1.0000
  H   H1011     1.0  0.78006  0.03880  0.37479  1.0000
  S   S260      1.0  0.91601  0.23802  0.59345  1.0000
  H   H1012     1.0  0.72857  0.02950  0.38425  1.0000
  S   S261      1.0  0.85466  0.23322  0.61477  1.0000
  Fe  Fe130     1.0  0.93409  0.25006  0.61942  1.0000
  S   S262      1.0  0.96424  0.23313  0.62918  1.0000
  Fe  Fe131     1.0  0.76104  0.08863  0.62053  1.0000
  S   S263      1.0  0.73578  0.10379  0.60129  1.0000
  S   S264      1.0  0.75398  0.05555  0.63202  1.0000
  Fe  Fe132     1.0  0.78517  0.12983  0.62003  1.0000
  S   S265      1.0  0.76083  0.14734  0.60136  1.0000
  S   S266      1.0  0.81698  0.14240  0.62693  1.0000
  Fe  Fe133     1.0  0.73754  0.13032  0.62275  1.0000
  S   S267      1.0  0.70850  0.14553  0.63831  1.0000
  Fe  Fe134     1.0  0.76131  0.11895  0.58198  1.0000
  S   S268      1.0  0.77162  0.11598  0.54789  1.0000
  S   S269      1.0  0.76199  0.11472  0.64268  1.0000
  S   S270      1.0  0.78651  0.10186  0.60006  1.0000
  Fe  Fe135     1.0  0.74556  0.11809  0.38162  1.0000
  S   S271      1.0  0.77659  0.10005  0.38001  1.0000
  H   H1013     1.0  0.74779  0.06231  0.37730  1.0000
  Fe  Fe136     1.0  0.74763  0.12152  0.42918  1.0000
  S   S272      1.0  0.77776  0.10315  0.43009  1.0000
  S   S273      1.0  0.73274  0.13438  0.45892  1.0000
  Fe  Fe137     1.0  0.78742  0.12338  0.40216  1.0000
  S   S274      1.0  0.81913  0.13715  0.40684  1.0000
  Fe  Fe138     1.0  0.76395  0.08194  0.40807  1.0000
  S   S275      1.0  0.76211  0.04727  0.41665  1.0000
  S   S276      1.0  0.75743  0.14260  0.40186  1.0000
  S   S277      1.0  0.73278  0.09916  0.40893  1.0000
  C   C633      1.0  0.76738  0.02420  0.40295  1.0000
  C   C634      1.0  0.74061  0.06360  0.36186  1.0000
  H   H1014     1.0  0.78538  0.17714  0.41528  1.0000
  H   H1015     1.0  0.73975  0.08041  0.35699  1.0000
  C   C635      1.0  0.68730  0.11900  0.35645  1.0000
  H   H1016     1.0  0.88200  0.18403  0.35822  1.0000
  H   H1017     1.0  0.78452  0.20295  0.42500  1.0000
  H   H1018     1.0  0.94836  0.18534  0.35483  1.0000
  C   C636      1.0  0.75965  0.12068  0.52370  1.0000
  C   C637      1.0  0.74062  0.13179  0.52165  1.0000
  C   C638      1.0  0.73243  0.13574  0.50175  1.0000
  C   C639      1.0  0.74302  0.12839  0.48382  1.0000
  C   C640      1.0  0.76186  0.11703  0.48605  1.0000
  C   C641      1.0  0.77017  0.11334  0.50581  1.0000
  H   H1019     1.0  0.73237  0.13761  0.53529  1.0000
  H   H1020     1.0  0.71782  0.14456  0.50023  1.0000
  H   H1021     1.0  0.77017  0.11115  0.47255  1.0000
  H   H1022     1.0  0.78488  0.10470  0.50719  1.0000
  C   C642      1.0  0.78151  0.02923  0.61033  1.0000
  C   C643      1.0  0.76283  0.03142  0.62197  1.0000
  H   H1023     1.0  0.75144  0.05562  0.35064  1.0000
  H   H1024     1.0  0.79134  0.04239  0.60782  1.0000
  H   H1025     1.0  0.73898  0.08231  0.55159  1.0000
  C   C644      1.0  0.84476  0.20767  0.61780  1.0000
  C   C645      1.0  0.82338  0.20518  0.61521  1.0000
  C   C646      1.0  0.81461  0.18542  0.61790  1.0000
  C   C647      1.0  0.82708  0.16783  0.62346  1.0000
  C   C648      1.0  0.84846  0.17032  0.62602  1.0000
  C   C649      1.0  0.85728  0.19004  0.62309  1.0000
  H   H1026     1.0  0.81348  0.21866  0.61118  1.0000
  H   H1027     1.0  0.79814  0.18386  0.61595  1.0000
  H   H1028     1.0  0.85828  0.15689  0.63043  1.0000
  H   H1029     1.0  0.87370  0.19164  0.62530  1.0000
  C   C650      1.0  0.98880  0.24378  0.62305  1.0000
  H   H1030     1.0  0.73255  0.02375  0.35744  1.0000
  C   C651      1.0  0.76005  0.04923  0.53524  1.0000
  C   C652      1.0  0.84929  0.19912  0.38646  1.0000
  C   C653      1.0  0.83175  0.19281  0.37639  1.0000
  C   C654      1.0  0.82208  0.17411  0.38259  1.0000
  C   C655      1.0  0.83015  0.16123  0.39868  1.0000
  C   C656      1.0  0.84768  0.16757  0.40878  1.0000
  C   C657      1.0  0.85707  0.18648  0.40288  1.0000
  H   H1031     1.0  0.82565  0.20239  0.36358  1.0000
  H   H1032     1.0  0.80867  0.16945  0.37459  1.0000
  H   H1033     1.0  0.85405  0.15774  0.42126  1.0000
  H   H1034     1.0  0.87051  0.19107  0.41083  1.0000
  H   H1035     1.0  0.75506  0.17272  0.46589  1.0000
  H   H1036     1.0  0.75377  0.17040  0.43845  1.0000
  N   N62       1.0  0.91502  0.18791  0.35792  1.0000
  H   H1037     1.0  0.73394  0.02465  0.55786  1.0000
  H   H1038     1.0  0.77523  0.07441  0.56203  1.0000
  C   C658      1.0  0.98687  0.23851  0.40203  1.0000
  H   H1039     1.0  0.71270  0.10394  0.65836  1.0000
  H   H1040     1.0  0.80792  0.18684  0.42634  1.0000
  S   S278      1.0  0.73013  0.12292  0.35009  1.0000
  H   H1041     1.0  0.75451  0.19573  0.44891  1.0000
  N   N63       1.0  0.83156  0.13934  0.56340  1.0000
  C   C659      1.0  0.82552  0.12180  0.55120  1.0000
  C   C660      1.0  0.81265  0.15062  0.57140  1.0000
  C   C661      1.0  0.84403  0.15377  0.55005  1.0000
  C   C662      1.0  0.84402  0.13119  0.58102  1.0000
  H   H1042     1.0  0.81601  0.11073  0.56092  1.0000
  H   H1043     1.0  0.83936  0.11288  0.54490  1.0000
  H   H1044     1.0  0.81589  0.12733  0.53788  1.0000
  H   H1045     1.0  0.81656  0.16441  0.58007  1.0000
  H   H1046     1.0  0.80225  0.15605  0.55867  1.0000
  H   H1047     1.0  0.80345  0.14050  0.58236  1.0000
  H   H1048     1.0  0.84886  0.16711  0.55895  1.0000
  H   H1049     1.0  0.83501  0.16034  0.53670  1.0000
  H   H1050     1.0  0.85842  0.14580  0.54368  1.0000
  H   H1051     1.0  0.84869  0.14398  0.59070  1.0000
  H   H1052     1.0  0.85844  0.12259  0.57564  1.0000
  H   H1053     1.0  0.83501  0.12035  0.59154  1.0000
  H   H1054     1.0  0.78334  0.04821  0.56939  1.0000
  C   C663      1.0  0.75070  0.01391  0.62593  1.0000
  C   C664      1.0  0.98647  0.23078  0.57156  1.0000
  C   C665      1.0  0.99892  0.24479  0.53817  1.0000
  C   C666      1.0  0.74669  0.03116  0.56638  1.0000
  H   H1055     1.0  0.99560  0.25554  0.52453  1.0000
  C   C667      1.0  0.96243  0.23838  0.54414  1.0000
  H   H1056     1.0  0.74123  0.03244  0.58292  1.0000
  H   H1057     1.0  0.92849  0.20190  0.38368  1.0000
  H   H1058     1.0  0.76003  0.01950  0.56626  1.0000
  C   C668      1.0  0.67812  0.14358  0.66984  1.0000
  C   C669      1.0  0.69996  0.11239  0.66612  1.0000
  S   S279      1.0  0.91213  0.25546  0.37253  1.0000
  S   S280      1.0  0.90546  0.25580  0.64029  1.0000
  H   H1059     1.0  0.71270  0.06248  0.39441  1.0000
  H   H1060     1.0  0.89718  0.16052  0.36356  1.0000
  H   H1061     1.0  0.90065  0.20060  0.38535  1.0000
  N   N64       1.0  0.78378  0.17816  0.44865  1.0000
  C   C670      1.0  0.79241  0.19035  0.46495  1.0000
  C   C671      1.0  0.79126  0.15618  0.45119  1.0000
  C   C672      1.0  0.79065  0.18669  0.42793  1.0000
  C   C673      1.0  0.76081  0.17939  0.45057  1.0000
  H   H1062     1.0  0.78722  0.20707  0.46337  1.0000
  H   H1063     1.0  0.80973  0.18957  0.46403  1.0000
  H   H1064     1.0  0.78737  0.18437  0.48077  1.0000
  H   H1065     1.0  0.78473  0.14651  0.43937  1.0000
  H   H1066     1.0  0.80851  0.15450  0.44923  1.0000
  H   H1067     1.0  0.78659  0.14925  0.46672  1.0000
  C   C674      1.0  0.70645  0.06519  0.37857  1.0000
  C   C675      1.0  0.76970  0.05944  0.56897  1.0000
  H   H1068     1.0  0.72854  0.06826  0.57409  1.0000
  H   H1069     1.0  0.94888  0.23869  0.55543  1.0000
  H   H1070     1.0  0.69035  0.05954  0.37910  1.0000
  N   N65       1.0  0.98140  0.24509  0.55369  1.0000
  C   C676      1.0  0.72193  0.03215  0.36857  1.0000
  C   C677      1.0  0.69478  0.13290  0.65950  1.0000
  H   H1071     1.0  0.68960  0.12105  0.37277  1.0000
  H   H1072     1.0  0.96450  0.22229  0.53856  1.0000
  H   H1073     1.0  0.98927  0.21447  0.56677  1.0000
  C   C678      1.0  0.77564  0.02430  0.38251  1.0000
  H   H1074     1.0  0.72179  0.06144  0.54856  1.0000
  N   N66       1.0  0.75277  0.05157  0.55709  1.0000
  H   H1075     1.0  0.91661  0.17753  0.39009  1.0000
  H   H1076     1.0  0.69467  0.05129  0.34230  1.0000
  H   H1077     1.0  0.93605  0.16114  0.36080  1.0000
  C   C679      1.0  0.73470  0.06654  0.55784  1.0000
  H   H1078     1.0  0.95807  0.24891  0.53065  1.0000
  H   H1079     1.0  0.77381  0.03817  0.53414  1.0000
  N   N67       1.0  0.71984  0.05464  0.36279  1.0000
  Fe  Fe139     1.0  0.88725  0.24674  0.61294  1.0000
  H   H1080     1.0  0.73635  0.01541  0.63515  1.0000
  H   H1081     1.0  0.76443  0.06224  0.58532  1.0000
  C   C680      1.0  0.91524  0.19215  0.38024  1.0000
  Fe  Fe140     1.0  0.93236  0.24614  0.39949  1.0000
  H   H1082     1.0  0.70661  0.02476  0.36908  1.0000
  C   C681      1.0  0.71045  0.05770  0.34223  1.0000
  H   H1083     1.0  0.00209  0.22892  0.53229  1.0000
  H   H1084     1.0  0.76463  0.06445  0.52782  1.0000
  C   C682      1.0  0.89690  0.17544  0.35409  1.0000
  H   H1085     1.0  0.97357  0.23073  0.58362  1.0000
  C   C683      1.0  0.93446  0.17631  0.35184  1.0000
  H   H1086     1.0  0.92687  0.21772  0.34823  1.0000
  C   C684      1.0  0.91350  0.20785  0.34559  1.0000
  C   C685      1.0  0.98630  0.25351  0.41710  1.0000
  C   C686      1.0  0.70435  0.11924  0.34233  1.0000
  C   C687      1.0  0.78769  0.00983  0.60226  1.0000
  H   H1087     1.0  0.89899  0.21702  0.34985  1.0000
  H   H1088     1.0  0.74771  0.04321  0.52578  1.0000
  H   H1089     1.0  0.00069  0.23540  0.57920  1.0000
  H   H1090     1.0  0.80218  0.00823  0.59328  1.0000
  H   H1091     1.0  0.69662  0.11338  0.77167  1.0000
  H   H1092     1.0  0.71841  0.12913  0.74267  1.0000
  C   C688      1.0  0.69638  0.15517  0.76765  1.0000
  H   H1093     1.0  0.67655  0.10993  0.75375  1.0000
  C   C689      1.0  0.70386  0.13638  0.73630  1.0000
  H   H1094     1.0  0.70044  0.17024  0.75965  1.0000
  H   H1095     1.0  0.70799  0.15080  0.72712  1.0000
  C   C690      1.0  0.68280  0.12116  0.76436  1.0000
  H   H1096     1.0  0.71060  0.14832  0.77503  1.0000
  N   N68       1.0  0.68811  0.14082  0.75302  1.0000
  H   H1097     1.0  0.68468  0.15873  0.78039  1.0000
  H   H1098     1.0  0.69272  0.08669  0.68747  1.0000
  C   C691      1.0  0.68856  0.10263  0.68266  1.0000
  H   H1099     1.0  0.69803  0.12538  0.72519  1.0000
  H   H1100     1.0  0.67264  0.16531  0.73482  1.0000
  Fe  Fe141     1.0  0.77193  0.41167  0.07950  1.0000
  S   S281      1.0  0.73790  0.41830  0.08382  1.0000
  S   S282      1.0  0.78478  0.42317  0.04782  1.0000
  Fe  Fe142     1.0  0.77629  0.39982  0.12578  1.0000
  S   S283      1.0  0.74193  0.40605  0.13291  1.0000
  S   S284      1.0  0.79462  0.38801  0.15411  1.0000
  Fe  Fe143     1.0  0.73657  0.38893  0.10406  1.0000
  S   S285      1.0  0.70683  0.37222  0.09760  1.0000
  Fe  Fe144     1.0  0.74557  0.43474  0.11216  1.0000
  S   S286      1.0  0.72699  0.46527  0.11512  1.0000
  S   S287      1.0  0.77069  0.38079  0.09771  1.0000
  S   S288      1.0  0.78002  0.42997  0.10703  1.0000
  Fe  Fe145     1.0  0.89423  0.40876  0.22347  1.0000
  S   S289      1.0  0.87539  0.40668  0.25350  1.0000
  S   S290      1.0  0.88032  0.41378  0.19130  1.0000
  Fe  Fe146     1.0  0.93495  0.41555  0.24667  1.0000
  S   S291      1.0  0.91814  0.41483  0.27794  1.0000
  S   S292      1.0  0.96830  0.42581  0.24729  1.0000
  Fe  Fe147     1.0  0.90249  0.38717  0.26642  1.0000
  S   S293      1.0  0.90173  0.35489  0.28317  1.0000
  Fe  Fe148     1.0  0.89308  0.43440  0.26206  1.0000
  S   S294      1.0  0.87600  0.46459  0.27046  1.0000
  S   S295      1.0  0.92034  0.38726  0.23533  1.0000
  S   S296      1.0  0.91095  0.43707  0.23185  1.0000
  C   C692      1.0  0.90209  0.34544  0.30963  1.0000
  H   H1101     1.0  0.96820  0.35590  0.25621  1.0000
  H   H1102     1.0  0.79623  0.46459  0.06369  1.0000
  H   H1103     1.0  0.82162  0.47045  0.19820  1.0000
  H   H1104     1.0  0.78256  0.50280  0.14559  1.0000
  H   H1105     1.0  0.75795  0.50524  0.08279  1.0000
  H   H1106     1.0  0.97842  0.48128  0.20543  1.0000
  C   C693      1.0  0.89082  0.48719  0.26965  1.0000
  C   C694      1.0  0.91200  0.48574  0.27375  1.0000
  H   H1107     1.0  0.70923  0.26899  0.09193  1.0000
  H   H1108     1.0  0.91942  0.47068  0.27743  1.0000
  H   H1109     1.0  0.67341  0.38615  0.13109  1.0000
  H   H1110     1.0  0.70464  0.43061  0.14486  1.0000
  C   C695      1.0  0.99194  0.41092  0.24432  1.0000
  C   C696      1.0  0.99313  0.39166  0.23496  1.0000
  H   H1111     1.0  0.70198  0.41751  0.10964  1.0000
  H   H1112     1.0  0.97939  0.38566  0.22864  1.0000
  C   C697      1.0  0.69440  0.35023  0.10935  1.0000
  C   C698      1.0  0.67340  0.31509  0.12647  1.0000
  H   H1113     1.0  0.77851  0.48708  0.09029  1.0000
  C   C699      1.0  0.70289  0.33813  0.12577  1.0000
  C   C700      1.0  0.96120  0.50592  0.23454  1.0000
  C   C701      1.0  0.99806  0.49786  0.23668  1.0000
  H   H1114     1.0  0.71759  0.34208  0.13182  1.0000
  C   C702      1.0  0.81856  0.39544  0.16405  1.0000
  C   C703      1.0  0.83091  0.41042  0.15386  1.0000
  C   C704      1.0  0.84984  0.41559  0.16231  1.0000
  C   C705      1.0  0.85664  0.40603  0.18111  1.0000
  C   C706      1.0  0.84425  0.39113  0.19135  1.0000
  C   C707      1.0  0.82537  0.38589  0.18285  1.0000
  H   H1115     1.0  0.82599  0.41781  0.13935  1.0000
  H   H1116     1.0  0.85933  0.42704  0.15416  1.0000
  H   H1117     1.0  0.84929  0.38349  0.20571  1.0000
  H   H1118     1.0  0.81603  0.37419  0.19081  1.0000
  C   C708      1.0  0.67522  0.34484  0.10180  1.0000
  C   C709      1.0  0.73953  0.48768  0.12216  1.0000
  C   C710      1.0  0.75872  0.48612  0.13166  1.0000
  H   H1119     1.0  0.95943  0.37580  0.31850  1.0000
  H   H1120     1.0  0.76616  0.47096  0.13483  1.0000
  C   C711      1.0  0.77888  0.41231  0.02402  1.0000
  C   C712      1.0  0.70633  0.29171  0.05571  1.0000
  C   C713      1.0  0.77282  0.39176  0.02325  1.0000
  H   H1121     1.0  0.97262  0.33015  0.28663  1.0000
  H   H1122     1.0  0.77105  0.38233  0.03750  1.0000
  H   H1123     1.0  0.83635  0.41970  0.22403  1.0000
  N   N69       1.0  0.83283  0.45304  0.22503  1.0000
  C   C714      1.0  0.82634  0.43292  0.21778  1.0000
  C   C715      1.0  0.85493  0.45584  0.21889  1.0000
  C   C716      1.0  0.83017  0.45318  0.24791  1.0000
  C   C717      1.0  0.81992  0.47019  0.21549  1.0000
  C   C718      1.0  0.75488  0.46952  0.06323  1.0000
  H   H1124     1.0  0.82750  0.43256  0.20051  1.0000
  H   H1125     1.0  0.86058  0.47068  0.22440  1.0000
  H   H1126     1.0  0.86506  0.44308  0.22570  1.0000
  H   H1127     1.0  0.85764  0.45561  0.20172  1.0000
  C   C719      1.0  0.77284  0.49756  0.07727  1.0000
  H   H1128     1.0  0.81378  0.45077  0.25319  1.0000
  H   H1129     1.0  0.68267  0.43757  0.10409  1.0000
  H   H1130     1.0  0.82446  0.48558  0.22066  1.0000
  H   H1131     1.0  0.80314  0.46851  0.21974  1.0000
  H   H1132     1.0  0.75987  0.49178  0.02725  1.0000
  N   N70       1.0  0.77003  0.48584  0.05844  1.0000
  C   C720      1.0  0.96399  0.34149  0.29666  1.0000
  C   C721      1.0  0.68504  0.42137  0.11067  1.0000
  H   H1133     1.0  0.96967  0.33912  0.31272  1.0000
  H   H1134     1.0  0.75262  0.46005  0.04949  1.0000
  H   H1135     1.0  0.94728  0.33744  0.29724  1.0000
  H   H1136     1.0  0.83480  0.46821  0.25392  1.0000
  H   H1137     1.0  0.68502  0.45025  0.13931  1.0000
  H   H1138     1.0  0.67543  0.39527  0.15691  1.0000
  H   H1139     1.0  0.90121  0.37539  0.32328  1.0000
  H   H1140     1.0  0.78866  0.46722  0.03728  1.0000
  H   H1141     1.0  0.95872  0.38194  0.26139  1.0000
  C   C722      1.0  0.69241  0.32068  0.13428  1.0000
  H   H1142     1.0  0.97449  0.48923  0.27104  1.0000
  H   H1143     1.0  0.94238  0.36040  0.26687  1.0000
  H   H1144     1.0  0.76031  0.45852  0.07587  1.0000
  N   N71       1.0  0.68920  0.28246  0.06842  1.0000
  H   H1145     1.0  0.99826  0.35779  0.27759  1.0000
  H   H1146     1.0  0.68261  0.27329  0.10048  1.0000
  C   C723      1.0  0.95453  0.37760  0.30213  1.0000
  H   H1147     1.0  0.98534  0.46536  0.26097  1.0000
  H   H1148     1.0  0.69917  0.29488  0.09666  1.0000
  C   C724      1.0  0.95865  0.36543  0.26732  1.0000
  C   C725      1.0  0.97602  0.47383  0.22121  1.0000
  N   N72       1.0  0.96652  0.36314  0.28856  1.0000
  C   C726      1.0  0.90288  0.32376  0.31394  1.0000
  C   C727      1.0  0.68109  0.39755  0.14047  1.0000
  H   H1149     1.0  0.68188  0.43269  0.16174  1.0000
  H   H1150     1.0  0.95806  0.47135  0.25945  1.0000
  H   H1151     1.0  0.80996  0.42985  0.22266  1.0000
  N   N73       1.0  0.67699  0.41920  0.13241  1.0000
  C   C728      1.0  0.98875  0.36813  0.28802  1.0000
  H   H1152     1.0  0.67359  0.31240  0.07183  1.0000
  H   H1153     1.0  0.71016  0.30715  0.06141  1.0000
  H   H1154     1.0  0.00137  0.50595  0.22134  1.0000
  C   C729      1.0  0.97362  0.47833  0.25820  1.0000
  H   H1155     1.0  0.69802  0.39317  0.13976  1.0000
  C   C730      1.0  0.90194  0.35869  0.32628  1.0000
  H   H1156     1.0  0.90296  0.31334  0.30122  1.0000
  H   H1157     1.0  0.69922  0.31130  0.14686  1.0000
  H   H1158     1.0  0.84008  0.44069  0.25560  1.0000
  C   C731      1.0  0.68751  0.43380  0.14520  1.0000
  H   H1159     1.0  0.80217  0.48776  0.04822  1.0000
  H   H1160     1.0  0.93758  0.37479  0.30215  1.0000
  H   H1161     1.0  0.73946  0.47625  0.06851  1.0000
  N   N74       1.0  0.97722  0.48900  0.23765  1.0000
  H   H1162     1.0  0.70213  0.29408  0.03914  1.0000
  C   C732      1.0  0.79018  0.47602  0.05162  1.0000
  C   C733      1.0  0.76219  0.50020  0.04167  1.0000
  H   H1163     1.0  0.72075  0.28153  0.05624  1.0000
  C   C734      1.0  0.68468  0.26200  0.06046  1.0000
  C   C735      1.0  0.90331  0.31538  0.33457  1.0000
  H   H1164     1.0  0.67976  0.26349  0.04404  1.0000
  H   H1165     1.0  0.67757  0.41057  0.10047  1.0000
  H   H1166     1.0  0.99530  0.36650  0.30375  1.0000
  H   H1167     1.0  0.95656  0.39413  0.29677  1.0000
  C   C736      1.0  0.76800  0.50419  0.13773  1.0000
  H   H1168     1.0  0.96060  0.46654  0.22181  1.0000
  H   H1169     1.0  0.99103  0.38443  0.28200  1.0000
  H   H1170     1.0  0.98796  0.46086  0.22306  1.0000
  C   C737      1.0  0.92339  0.50389  0.27395  1.0000
  C   C738      1.0  0.69535  0.27976  0.09029  1.0000
  H   H1171     1.0  0.94527  0.49977  0.23506  1.0000
  C   C739      1.0  0.88124  0.50693  0.26545  1.0000
  H   H1172     1.0  0.93949  0.50273  0.27803  1.0000
  H   H1173     1.0  0.90370  0.29868  0.33757  1.0000
  Fe  Fe149     1.0  0.90458  0.28471  0.38952  1.0000
  S   S297      1.0  0.90307  0.31886  0.37762  1.0000
  H   H1174     1.0  0.99187  0.27224  0.56783  1.0000
  H   H1175     1.0  0.85441  0.26863  0.66236  1.0000
  S   S298      1.0  0.92642  0.27626  0.41552  1.0000
  C   C740      1.0  0.89739  0.35019  0.66831  1.0000
  Fe  Fe150     1.0  0.90482  0.28817  0.62531  1.0000
  S   S299      1.0  0.89667  0.31962  0.63974  1.0000
  N   N75       1.0  0.87517  0.32511  0.44458  1.0000
  H   H1176     1.0  0.89546  0.36090  0.65501  1.0000
  S   S300      1.0  0.88536  0.27963  0.59886  1.0000
  S   S301      1.0  0.93439  0.28287  0.60633  1.0000
  N   N76       1.0  0.83820  0.29421  0.64630  1.0000
  H   H1177     1.0  0.88381  0.34080  0.41543  1.0000
  C   C741      1.0  0.87153  0.33070  0.42245  1.0000
  H   H1178     1.0  0.82679  0.26486  0.63785  1.0000
  C   C742      1.0  0.88603  0.26326  0.50645  1.0000
  C   C743      1.0  0.84315  0.31457  0.63610  1.0000
  C   C744      1.0  0.91744  0.27303  0.48734  1.0000
  H   H1179     1.0  0.90201  0.36071  0.35967  1.0000
  C   C745      1.0  0.89570  0.31417  0.44639  1.0000
  C   C746      1.0  0.91527  0.27430  0.52530  1.0000
  H   H1180     1.0  0.86155  0.30611  0.46946  1.0000
  H   H1181     1.0  0.87176  0.31662  0.41299  1.0000
  H   H1182     1.0  0.90846  0.32369  0.43948  1.0000
  H   H1183     1.0  0.87741  0.34047  0.47329  1.0000
  S   S302      1.0  0.88445  0.26233  0.46408  1.0000
  S   S303      1.0  0.92699  0.28042  0.54853  1.0000
  H   H1184     1.0  0.88699  0.35488  0.45060  1.0000
  H   H1185     1.0  0.81570  0.28735  0.62395  1.0000
  H   H1186     1.0  0.89920  0.31001  0.46290  1.0000
  H   H1187     1.0  0.85859  0.29683  0.44409  1.0000
  H   H1188     1.0  0.88641  0.26480  0.53993  1.0000
  H   H1189     1.0  0.85945  0.35293  0.45546  1.0000
  C   C747      1.0  0.90235  0.35030  0.34694  1.0000
  C   C748      1.0  0.87472  0.34422  0.45652  1.0000
  H   H1190     1.0  0.84309  0.31907  0.45232  1.0000
  H   H1191     1.0  0.85623  0.33908  0.42040  1.0000
  C   C749      1.0  0.85882  0.31127  0.45299  1.0000
  H   H1192     1.0  0.89616  0.29936  0.43820  1.0000
  H   H1193     1.0  0.97649  0.27353  0.61164  1.0000
  H   H1194     1.0  0.85503  0.31270  0.62319  1.0000
  C   C750      1.0  0.89911  0.32862  0.66530  1.0000
  C   C751      1.0  0.90294  0.32860  0.35124  1.0000
  Fe  Fe151     1.0  0.89934  0.26027  0.43159  1.0000
  S   S304      1.0  0.87709  0.27081  0.40678  1.0000
  Fe  Fe152     1.0  0.91505  0.27132  0.58129  1.0000
  C   C752      1.0  0.92639  0.27725  0.50623  1.0000
  H   H1195     1.0  0.84177  0.27800  0.61782  1.0000
  C   C753      1.0  0.99033  0.26385  0.61402  1.0000
  C   C754      1.0  0.83019  0.28058  0.63084  1.0000
  C   C755      1.0  0.89712  0.26620  0.48739  1.0000
  H   H1196     1.0  0.84981  0.32504  0.64721  1.0000
  C   C756      1.0  0.89512  0.26707  0.52536  1.0000
  H   H1197     1.0  0.82916  0.32268  0.62946  1.0000
  C   C757      1.0  0.85724  0.28434  0.65509  1.0000
  H   H1198     1.0  0.86957  0.28235  0.64278  1.0000
  H   H1199     1.0  0.87028  0.25803  0.50660  1.0000
  H   H1200     1.0  0.97325  0.27761  0.54799  1.0000
  H   H1201     1.0  0.81838  0.28224  0.67122  1.0000
  H   H1202     1.0  0.92613  0.27538  0.47277  1.0000
  H   H1203     1.0  0.94197  0.28293  0.50606  1.0000
  H   H1204     1.0  0.80773  0.30477  0.65713  1.0000
  H   H1205     1.0  0.96491  0.26716  0.57299  1.0000
  C   C758      1.0  0.82235  0.29734  0.66319  1.0000
  H   H1206     1.0  0.00418  0.27090  0.43742  1.0000
  C   C759      1.0  0.97776  0.26646  0.56094  1.0000
  H   H1207     1.0  0.86371  0.29407  0.66696  1.0000
  H   H1208     1.0  0.97154  0.26038  0.42242  1.0000
  C   C760      1.0  0.00485  0.25942  0.42563  1.0000
  Fe  Fe153     1.0  0.72986  0.39219  0.90024  1.0000
  S   S305      1.0  0.75944  0.37347  0.90576  1.0000
  S   S306      1.0  0.69694  0.37968  0.90041  1.0000
  Fe  Fe154     1.0  0.75347  0.43385  0.89891  1.0000
  S   S307      1.0  0.78421  0.41727  0.90571  1.0000
  S   S308      1.0  0.75174  0.46739  0.88562  1.0000
  Fe  Fe155     1.0  0.77536  0.39490  0.88201  1.0000
  S   S309      1.0  0.79367  0.38579  0.85232  1.0000
  Fe  Fe156     1.0  0.76532  0.39762  0.92907  1.0000
  S   S310      1.0  0.77068  0.38258  0.96132  1.0000
  S   S311      1.0  0.74501  0.41182  0.87474  1.0000
  S   S312      1.0  0.73531  0.41600  0.92390  1.0000
  Fe  Fe157     1.0  0.90506  0.38575  0.74353  1.0000
  S   S313      1.0  0.92392  0.38324  0.77249  1.0000
  S   S314      1.0  0.89925  0.35341  0.73166  1.0000
  Fe  Fe158     1.0  0.89997  0.43369  0.74644  1.0000
  S   S315      1.0  0.91790  0.43342  0.77546  1.0000
  S   S316      1.0  0.88884  0.46466  0.73106  1.0000
  Fe  Fe159     1.0  0.94040  0.41127  0.75931  1.0000
  S   S317      1.0  0.97382  0.42105  0.75363  1.0000
  Fe  Fe160     1.0  0.89941  0.40563  0.78571  1.0000
  S   S318      1.0  0.88657  0.40256  0.81923  1.0000
  S   S319      1.0  0.92304  0.41249  0.72957  1.0000
  S   S320      1.0  0.87988  0.40709  0.75755  1.0000
  C   C761      1.0  0.90010  0.34446  0.70580  1.0000
  H   H1209     1.0  0.90283  0.29836  0.68070  1.0000
  C   C762      1.0  0.72046  0.34952  0.98107  1.0000
  H   H1210     1.0  0.78932  0.41761  0.81713  1.0000
  H   H1211     1.0  0.68049  0.35335  0.97031  1.0000
  H   H1212     1.0  0.76213  0.47409  0.84043  1.0000
  H   H1213     1.0  0.92731  0.48512  0.70722  1.0000
  H   H1214     1.0  0.82801  0.30756  0.67510  1.0000
  C   C763      1.0  0.89558  0.48893  0.74053  1.0000
  C   C764      1.0  0.90628  0.48993  0.75889  1.0000
  H   H1215     1.0  0.97268  0.48846  0.69028  1.0000
  H   H1216     1.0  0.90970  0.47594  0.76816  1.0000
  H   H1217     1.0  0.78105  0.43387  0.86039  1.0000
  H   H1218     1.0  0.79611  0.47436  0.82027  1.0000
  H   H1219     1.0  0.97178  0.44985  0.69055  1.0000
  C   C765      1.0  0.75946  0.45899  0.83339  1.0000
  H   H1220     1.0  0.95949  0.43599  0.71218  1.0000
  H   H1221     1.0  0.98615  0.38641  0.78288  1.0000
  C   C766      1.0  0.81933  0.39168  0.84340  1.0000
  C   C767      1.0  0.83431  0.39782  0.85676  1.0000
  C   C768      1.0  0.85473  0.40139  0.84906  1.0000
  C   C769      1.0  0.86026  0.39947  0.82786  1.0000
  C   C770      1.0  0.84507  0.39408  0.81437  1.0000
  C   C771      1.0  0.82486  0.38982  0.82218  1.0000
  H   H1222     1.0  0.83035  0.39923  0.87313  1.0000
  H   H1223     1.0  0.86637  0.40552  0.85964  1.0000
  H   H1224     1.0  0.84898  0.39291  0.79799  1.0000
  H   H1225     1.0  0.81341  0.38506  0.81170  1.0000
  C   C772      1.0  0.68805  0.35383  0.89937  1.0000
  C   C773      1.0  0.70167  0.33657  0.89646  1.0000
  C   C774      1.0  0.95257  0.46876  0.73618  1.0000
  C   C775      1.0  0.71094  0.37960  0.95921  1.0000
  H   H1226     1.0  0.71815  0.33877  0.89398  1.0000
  H   H1227     1.0  0.72633  0.38642  0.96102  1.0000
  H   H1228     1.0  0.72204  0.33223  0.98258  1.0000
  C   C776      1.0  0.77814  0.41570  0.98598  1.0000
  C   C777      1.0  0.77284  0.39490  0.98519  1.0000
  H   H1229     1.0  0.69252  0.33095  0.95812  1.0000
  H   H1230     1.0  0.78048  0.42494  0.97169  1.0000
  H   H1231     1.0  0.93920  0.47178  0.68557  1.0000
  C   C778      1.0  0.75091  0.49066  0.89939  1.0000
  H   H1232     1.0  0.75077  0.46234  0.81896  1.0000
  C   C779      1.0  0.75388  0.49061  0.92077  1.0000
  C   C780      1.0  0.89812  0.35809  0.68836  1.0000
  H   H1233     1.0  0.75641  0.47598  0.92947  1.0000
  N   N77       1.0  0.88178  0.33671  0.79394  1.0000
  C   C781      1.0  0.90012  0.32762  0.78255  1.0000
  C   C782      1.0  0.87011  0.35121  0.77977  1.0000
  C   C783      1.0  0.88866  0.34815  0.81168  1.0000
  C   C784      1.0  0.86817  0.31993  0.80174  1.0000
  H   H1234     1.0  0.90941  0.31662  0.79270  1.0000
  H   H1235     1.0  0.91061  0.33993  0.77633  1.0000
  H   H1236     1.0  0.89551  0.31913  0.76887  1.0000
  H   H1237     1.0  0.85580  0.35790  0.78758  1.0000
  H   H1238     1.0  0.87975  0.36438  0.77415  1.0000
  H   H1239     1.0  0.86544  0.34338  0.76570  1.0000
  H   H1240     1.0  0.87524  0.35564  0.82036  1.0000
  H   H1241     1.0  0.89911  0.36083  0.80641  1.0000
  H   H1242     1.0  0.89732  0.33773  0.82290  1.0000
  H   H1243     1.0  0.86254  0.31113  0.78872  1.0000
  H   H1244     1.0  0.85426  0.32634  0.81051  1.0000
  H   H1245     1.0  0.87652  0.30862  0.81241  1.0000
  H   H1246     1.0  0.79326  0.45816  0.85628  1.0000
  C   C785      1.0  0.79029  0.44334  0.84886  1.0000
  H   H1247     1.0  0.94231  0.45583  0.74121  1.0000
  C   C786      1.0  0.90174  0.32287  0.70280  1.0000
  H   H1248     1.0  0.70509  0.38549  0.94390  1.0000
  C   C787      1.0  0.79246  0.45906  0.81419  1.0000
  H   H1249     1.0  0.76519  0.41730  0.83174  1.0000
  C   C788      1.0  0.77477  0.42695  0.82057  1.0000
  C   C789      1.0  0.99813  0.41059  0.76215  1.0000
  N   N78       1.0  0.95673  0.46934  0.71345  1.0000
  H   H1250     1.0  0.80545  0.43468  0.84631  1.0000
  H   H1251     1.0  0.74318  0.35415  0.94610  1.0000
  H   H1252     1.0  0.96065  0.50238  0.71146  1.0000
  C   C790      1.0  0.69391  0.31636  0.89642  1.0000
  H   H1253     1.0  0.78469  0.46212  0.79915  1.0000
  N   N79       1.0  0.77924  0.44709  0.82925  1.0000
  H   H1254     1.0  0.70459  0.30317  0.89395  1.0000
  H   H1255     1.0  0.92714  0.45735  0.70691  1.0000
  N   N80       1.0  0.71258  0.35659  0.96058  1.0000
  C   C791      1.0  0.96913  0.48757  0.70733  1.0000
  C   C792      1.0  0.69184  0.34828  0.95791  1.0000
  H   H1256     1.0  0.98419  0.48683  0.71535  1.0000
  H   H1257     1.0  0.94476  0.48350  0.74127  1.0000
  H   H1258     1.0  0.89669  0.37471  0.69035  1.0000
  C   C793      1.0  0.93678  0.47100  0.70276  1.0000
  H   H1259     1.0  0.96717  0.46626  0.74485  1.0000
  H   H1260     1.0  0.76617  0.42913  0.80594  1.0000
  H   H1261     1.0  0.74909  0.45022  0.84459  1.0000
  H   H1262     1.0  0.72237  0.35507  0.92847  1.0000
  H   H1263     1.0  0.90327  0.31214  0.71614  1.0000
  C   C794      1.0  0.99997  0.39371  0.77657  1.0000
  C   C795      1.0  0.72715  0.34901  0.94405  1.0000
  H   H1264     1.0  0.70013  0.38590  0.97148  1.0000
  H   H1265     1.0  0.80753  0.45044  0.81083  1.0000
  H   H1266     1.0  0.72794  0.33171  0.94380  1.0000
  C   C796      1.0  0.96839  0.45004  0.70759  1.0000
  H   H1267     1.0  0.73611  0.35569  0.98333  1.0000
  C   C797      1.0  0.90149  0.31498  0.68269  1.0000
  H   H1268     1.0  0.98343  0.44813  0.71560  1.0000
  H   H1269     1.0  0.70997  0.35506  0.99398  1.0000
  H   H1270     1.0  0.68544  0.35385  0.94273  1.0000
  C   C798      1.0  0.77012  0.38303  0.00392  1.0000
  H   H1271     1.0  0.76636  0.36685  0.00349  1.0000
  C   C799      1.0  0.67248  0.31304  0.89927  1.0000
  H   H1272     1.0  0.88251  0.50701  0.71481  1.0000
  C   C800      1.0  0.78143  0.42426  0.00531  1.0000
  H   H1273     1.0  0.78628  0.44011  0.00571  1.0000
  Fe  Fe161     1.0  0.76302  0.57904  0.13006  1.0000
  S   S321      1.0  0.78856  0.59026  0.10844  1.0000
  S   S322      1.0  0.77013  0.54610  0.14292  1.0000
  Fe  Fe162     1.0  0.73997  0.62243  0.12775  1.0000
  S   S323      1.0  0.76481  0.63622  0.10636  1.0000
  S   S324      1.0  0.70871  0.63824  0.13758  1.0000
  Fe  Fe163     1.0  0.76362  0.60629  0.08944  1.0000
  S   S325      1.0  0.75831  0.59786  0.05609  1.0000
  Fe  Fe164     1.0  0.78747  0.61857  0.12780  1.0000
  S   S326      1.0  0.81922  0.62818  0.13812  1.0000
  S   S327      1.0  0.73799  0.59319  0.11010  1.0000
  S   S328      1.0  0.76270  0.60680  0.15019  1.0000
  Fe  Fe165     1.0  0.90978  0.62201  0.28236  1.0000
  S   S329      1.0  0.90915  0.63909  0.25123  1.0000
  S   S330      1.0  0.90224  0.63622  0.31400  1.0000
  Fe  Fe166     1.0  0.91918  0.57941  0.26202  1.0000
  S   S331      1.0  0.91896  0.59395  0.22952  1.0000
  S   S332      1.0  0.92985  0.54551  0.26833  1.0000
  Fe  Fe167     1.0  0.93750  0.61876  0.24303  1.0000
  S   S333      1.0  0.96662  0.63379  0.22964  1.0000
  Fe  Fe168     1.0  0.89052  0.61280  0.24069  1.0000
  S   S334      1.0  0.85733  0.61754  0.22878  1.0000
  S   S335      1.0  0.93923  0.60335  0.27481  1.0000
  S   S336      1.0  0.88984  0.59646  0.27252  1.0000
  C   C801      1.0  0.90512  0.66191  0.32250  1.0000
  C   C802      1.0  0.91060  0.67847  0.30880  1.0000
  H   H1274     1.0  0.00408  0.73936  0.33710  1.0000
  H   H1275     1.0  0.81534  0.53324  0.14537  1.0000
  H   H1276     1.0  0.91372  0.67573  0.29251  1.0000
  H   H1277     1.0  0.68591  0.60459  0.06720  1.0000
  C   C803      1.0  0.67528  0.66639  0.13503  1.0000
  C   C804      1.0  0.99054  0.61928  0.22796  1.0000
  H   H1278     1.0  0.86247  0.67747  0.26931  1.0000
  H   H1279     1.0  0.96146  0.51757  0.24681  1.0000
  H   H1280     1.0  0.69801  0.60896  0.09120  1.0000
  H   H1281     1.0  0.96351  0.51448  0.21928  1.0000
  C   C805      1.0  0.69493  0.69421  0.10716  1.0000
  C   C806      1.0  0.91406  0.52357  0.26918  1.0000
  C   C807      1.0  0.89288  0.52507  0.26492  1.0000
  H   H1282     1.0  0.86297  0.62578  0.29769  1.0000
  H   H1283     1.0  0.88548  0.54018  0.26140  1.0000
  C   C808      1.0  0.82946  0.62554  0.16352  1.0000
  C   C809      1.0  0.85104  0.62682  0.16578  1.0000
  C   C810      1.0  0.85994  0.62403  0.18549  1.0000
  C   C811      1.0  0.84726  0.62039  0.20332  1.0000
  C   C812      1.0  0.82565  0.61941  0.20108  1.0000
  C   C813      1.0  0.81681  0.62188  0.18135  1.0000
  H   H1284     1.0  0.86100  0.62987  0.15216  1.0000
  H   H1285     1.0  0.87654  0.62505  0.18692  1.0000
  H   H1286     1.0  0.81565  0.61674  0.21473  1.0000
  H   H1287     1.0  0.80018  0.62106  0.17995  1.0000
  C   C814      1.0  0.76783  0.63207  0.02981  1.0000
  C   C815      1.0  0.76160  0.61148  0.03172  1.0000
  H   H1288     1.0  0.82423  0.67480  0.27112  1.0000
  H   H1289     1.0  0.77127  0.64014  0.04356  1.0000
  H   H1290     1.0  0.97723  0.58921  0.23236  1.0000
  C   C816      1.0  0.75842  0.52399  0.13393  1.0000
  C   C817      1.0  0.73952  0.52559  0.12388  1.0000
  H   H1291     1.0  0.84942  0.62179  0.27442  1.0000
  H   H1292     1.0  0.73194  0.54075  0.12101  1.0000
  H   H1293     1.0  0.86481  0.50821  0.26249  1.0000
  H   H1294     1.0  0.83527  0.62376  0.29889  1.0000
  C   C818      1.0  0.70590  0.67611  0.11467  1.0000
  C   C819      1.0  0.69606  0.66193  0.12849  1.0000
  H   H1295     1.0  0.70162  0.73479  0.16620  1.0000
  H   H1296     1.0  0.83710  0.53767  0.12753  1.0000
  H   H1297     1.0  0.72201  0.67323  0.10988  1.0000
  H   H1298     1.0  0.84356  0.68040  0.30332  1.0000
  H   H1299     1.0  0.68770  0.75211  0.18346  1.0000
  H   H1300     1.0  0.83181  0.65792  0.31574  1.0000
  H   H1301     1.0  0.85959  0.65952  0.31426  1.0000
  H   H1302     1.0  0.70588  0.65195  0.03923  1.0000
  C   C820      1.0  0.75728  0.60121  0.01368  1.0000
  H   H1303     1.0  0.91591  0.71141  0.30539  1.0000
  C   C821      1.0  0.67409  0.69855  0.11355  1.0000
  H   H1304     1.0  0.81275  0.65220  0.28355  1.0000
  H   H1305     1.0  0.84977  0.58824  0.14852  1.0000
  H   H1306     1.0  0.99870  0.61877  0.27148  1.0000
  C   C822      1.0  0.82422  0.54549  0.13660  1.0000
  H   H1307     1.0  0.87869  0.65700  0.28061  1.0000
  H   H1308     1.0  0.81977  0.58103  0.17407  1.0000
  H   H1309     1.0  0.80441  0.55890  0.17057  1.0000
  C   C823      1.0  0.91187  0.69872  0.31618  1.0000
  C   C824      1.0  0.84849  0.63005  0.28929  1.0000
  H   H1310     1.0  0.97606  0.72554  0.31649  1.0000
  C   C825      1.0  0.99145  0.59751  0.23004  1.0000
  H   H1311     1.0  0.70268  0.70498  0.09638  1.0000
  C   C826      1.0  0.69974  0.61109  0.07395  1.0000
  H   H1312     1.0  0.97523  0.70257  0.33357  1.0000
  H   H1313     1.0  0.86506  0.65272  0.25739  1.0000
  C   C827      1.0  0.86382  0.66035  0.27261  1.0000
  H   H1314     1.0  0.85970  0.54194  0.15739  1.0000
  C   C828      1.0  0.81435  0.57061  0.16230  1.0000
  H   H1315     1.0  0.81338  0.55326  0.12533  1.0000
  C   C829      1.0  0.72065  0.64100  0.07653  1.0000
  H   H1316     1.0  0.73500  0.63267  0.07060  1.0000
  C   C830      1.0  0.84512  0.66315  0.30558  1.0000
  H   H1317     1.0  0.83319  0.58556  0.12727  1.0000
  N   N81       1.0  0.83206  0.56062  0.15070  1.0000
  H   H1318     1.0  0.80415  0.58024  0.15175  1.0000
  H   H1319     1.0  0.82701  0.65009  0.25912  1.0000
  C   C831      1.0  0.77000  0.64212  0.00994  1.0000
  H   H1320     1.0  0.71367  0.60145  0.06886  1.0000
  H   H1321     1.0  0.85680  0.56975  0.12917  1.0000
  H   H1322     1.0  0.85243  0.56085  0.17633  1.0000
  C   C832      1.0  0.70390  0.63544  0.04458  1.0000
  H   H1323     1.0  0.83796  0.53768  0.17528  1.0000
  C   C833      1.0  0.84617  0.54974  0.16557  1.0000
  C   C834      1.0  0.84348  0.57668  0.13836  1.0000
  H   H1324     1.0  0.68138  0.64388  0.09234  1.0000
  N   N82       1.0  0.70188  0.63328  0.06751  1.0000
  C   C835      1.0  0.82659  0.65773  0.27437  1.0000
  N   N83       1.0  0.84597  0.65284  0.28549  1.0000
  H   H1325     1.0  0.95203  0.71834  0.32929  1.0000
  H   H1326     1.0  0.71774  0.62618  0.03856  1.0000
  C   C836      1.0  0.68337  0.64553  0.07507  1.0000
  H   H1327     1.0  0.69656  0.73868  0.12804  1.0000
  H   H1328     1.0  0.77514  0.65793  0.00853  1.0000
  H   H1329     1.0  0.72007  0.63867  0.09374  1.0000
  H   H1330     1.0  0.75239  0.58530  0.01498  1.0000
  H   H1331     1.0  0.72238  0.65791  0.07278  1.0000
  C   C837      1.0  0.96911  0.71893  0.33131  1.0000
  H   H1332     1.0  0.71511  0.50880  0.11095  1.0000
  H   H1333     1.0  0.99619  0.60040  0.29316  1.0000
  H   H1334     1.0  0.78425  0.50996  0.07435  1.0000
  C   C838      1.0  0.69525  0.75107  0.16767  1.0000
  C   C839      1.0  0.90787  0.70269  0.33733  1.0000
  H   H1335     1.0  0.69000  0.62981  0.03718  1.0000
  H   H1336     1.0  0.68465  0.66247  0.07103  1.0000
  C   C840      1.0  0.69084  0.75501  0.13061  1.0000
  H   H1337     1.0  0.77324  0.51273  0.03764  1.0000
  N   N84       1.0  0.68033  0.75682  0.15131  1.0000
  C   C841      1.0  0.72998  0.50747  0.11827  1.0000
  H   H1338     1.0  0.99943  0.50944  0.24884  1.0000
  H   H1339     1.0  0.74699  0.50787  0.04633  1.0000
  H   H1340     1.0  0.00017  0.74151  0.36462  1.0000
  S   S337      1.0  0.91944  0.72869  0.59317  1.0000
  Fe  Fe169     1.0  0.89393  0.74278  0.42458  1.0000
  C   C842      1.0  0.90250  0.70502  0.66420  1.0000
  Fe  Fe170     1.0  0.90337  0.74440  0.62004  1.0000
  S   S338      1.0  0.90381  0.73112  0.65378  1.0000
  H   H1341     1.0  0.91655  0.70028  0.53143  1.0000
  H   H1342     1.0  0.97758  0.72365  0.52300  1.0000
  Fe  Fe171     1.0  0.90727  0.74210  0.37813  1.0000
  N   N85       1.0  0.97360  0.73155  0.34910  1.0000
  S   S339      1.0  0.92045  0.72674  0.40703  1.0000
  H   H1343     1.0  0.86122  0.69947  0.48275  1.0000
  H   H1344     1.0  0.89941  0.68886  0.36733  1.0000
  H   H1345     1.0  0.93843  0.68258  0.52710  1.0000
  C   C843      1.0  0.87795  0.72759  0.47776  1.0000
  H   H1346     1.0  0.94695  0.72118  0.36716  1.0000
  S   S340      1.0  0.90972  0.72862  0.34563  1.0000
  H   H1347     1.0  0.96762  0.71183  0.62877  1.0000
  S   S341      1.0  0.87444  0.72758  0.45058  1.0000
  H   H1348     1.0  0.00353  0.71628  0.35396  1.0000
  C   C844      1.0  0.90258  0.68611  0.35104  1.0000
  S   S342      1.0  0.87625  0.75669  0.60099  1.0000
  Fe  Fe172     1.0  0.89431  0.74353  0.57341  1.0000
  C   C845      1.0  0.87010  0.71108  0.51173  1.0000
  H   H1349     1.0  0.89678  0.65326  0.35437  1.0000
  C   C846      1.0  0.93344  0.69750  0.53422  1.0000
  C   C847      1.0  0.99635  0.73217  0.35125  1.0000
  H   H1350     1.0  0.89486  0.69129  0.63579  1.0000
  C   C848      1.0  0.96222  0.72222  0.66889  1.0000
  C   C849      1.0  0.96481  0.75297  0.34554  1.0000
  H   H1351     1.0  0.96406  0.73783  0.61779  1.0000
  C   C850      1.0  0.88780  0.74341  0.48755  1.0000
  C   C851      1.0  0.93871  0.73425  0.53577  1.0000
  N   N86       1.0  0.96806  0.73599  0.65079  1.0000
  H   H1352     1.0  0.99867  0.72153  0.64713  1.0000
  C   C852      1.0  0.86904  0.71163  0.49005  1.0000
  C   C853      1.0  0.89780  0.68843  0.65212  1.0000
  N   N87       1.0  0.94570  0.71499  0.52551  1.0000
  H   H1353     1.0  0.97048  0.70608  0.37176  1.0000
  H   H1354     1.0  0.94803  0.70354  0.49459  1.0000
  C   C854      1.0  0.87959  0.72681  0.52172  1.0000
  H   H1355     1.0  0.89254  0.65549  0.65183  1.0000
  H   H1356     1.0  0.97078  0.70891  0.54630  1.0000
  H   H1357     1.0  0.96873  0.70606  0.66716  1.0000
  H   H1358     1.0  0.97391  0.69612  0.52199  1.0000
  H   H1359     1.0  0.99723  0.74400  0.66289  1.0000
  C   C855      1.0  0.88819  0.74328  0.50957  1.0000
  H   H1360     1.0  0.94090  0.73268  0.55276  1.0000
  H   H1361     1.0  0.86328  0.69839  0.52085  1.0000
  S   S343      1.0  0.88057  0.72406  0.54925  1.0000
  H   H1362     1.0  0.95113  0.73112  0.49589  1.0000
  C   C856      1.0  0.96799  0.71065  0.52932  1.0000
  C   C857      1.0  0.94260  0.71767  0.50290  1.0000
  H   H1363     1.0  0.93493  0.69543  0.55137  1.0000
  H   H1364     1.0  0.94331  0.72600  0.63270  1.0000
  C   C858      1.0  0.89650  0.66812  0.66128  1.0000
  H   H1365     1.0  0.92585  0.72059  0.49958  1.0000
  H   H1366     1.0  0.92193  0.73786  0.53375  1.0000
  C   C859      1.0  0.96046  0.72752  0.63168  1.0000
  C   C860      1.0  0.90109  0.66590  0.34362  1.0000
  C   C861      1.0  0.99094  0.73718  0.64899  1.0000
  C   C862      1.0  0.96406  0.72215  0.36835  1.0000
  H   H1367     1.0  0.96672  0.73150  0.38203  1.0000
  H   H1368     1.0  0.94745  0.74794  0.52970  1.0000
  H   H1369     1.0  0.99584  0.74710  0.63520  1.0000
  H   H1370     1.0  0.94500  0.72126  0.67073  1.0000
  H   H1371     1.0  0.94768  0.75303  0.34359  1.0000
  S   S344      1.0  0.97009  0.75051  0.42096  1.0000
  S   S345      1.0  0.96949  0.75260  0.57556  1.0000
  H   H1372     1.0  0.94121  0.75667  0.65498  1.0000
  H   H1373     1.0  0.89504  0.75590  0.51705  1.0000
  Fe  Fe173     1.0  0.93697  0.75650  0.41015  1.0000
  H   H1374     1.0  0.89457  0.75597  0.47822  1.0000
  S   S346      1.0  0.87879  0.75542  0.39528  1.0000
  C   C863      1.0  0.95851  0.75706  0.65355  1.0000
  Fe  Fe174     1.0  0.73230  0.62736  0.90366  1.0000
  S   S347      1.0  0.76172  0.64463  0.90667  1.0000
  S   S348      1.0  0.69930  0.64126  0.89874  1.0000
  Fe  Fe175     1.0  0.75254  0.58564  0.92014  1.0000
  S   S349      1.0  0.78255  0.60084  0.92496  1.0000
  S   S350      1.0  0.75128  0.55213  0.93329  1.0000
  Fe  Fe176     1.0  0.76340  0.62735  0.93789  1.0000
  S   S351      1.0  0.76899  0.64462  0.96713  1.0000
  Fe  Fe177     1.0  0.77851  0.61629  0.89310  1.0000
  S   S352      1.0  0.80940  0.61157  0.87420  1.0000
  S   S353      1.0  0.73366  0.61129  0.93538  1.0000
  S   S354      1.0  0.74880  0.59991  0.88787  1.0000
  Fe  Fe178     1.0  0.91046  0.58522  0.75426  1.0000
  S   S355      1.0  0.91173  0.60378  0.78305  1.0000
  S   S356      1.0  0.91869  0.55094  0.76198  1.0000
  Fe  Fe179     1.0  0.90391  0.62542  0.72645  1.0000
  S   S357      1.0  0.90533  0.64586  0.75356  1.0000
  S   S358      1.0  0.89732  0.63824  0.69343  1.0000
  Fe  Fe180     1.0  0.93236  0.62459  0.76314  1.0000
  S   S359      1.0  0.96231  0.63644  0.77513  1.0000
  Fe  Fe181     1.0  0.88445  0.62287  0.77070  1.0000
  S   S360      1.0  0.85339  0.63491  0.78545  1.0000
  S   S361      1.0  0.93228  0.60543  0.73498  1.0000
  S   S362      1.0  0.88194  0.60306  0.74301  1.0000
  C   C864      1.0  0.98710  0.62582  0.76738  1.0000
  C   C865      1.0  0.69097  0.70360  0.88393  1.0000
  H   H1375     1.0  0.83913  0.54137  0.87763  1.0000
  C   C866      1.0  0.97329  0.58472  0.80264  1.0000
  H   H1376     1.0  0.74738  0.67361  0.93957  1.0000
  H   H1377     1.0  0.68634  0.69395  0.96039  1.0000
  H   H1378     1.0  0.82009  0.51857  0.90349  1.0000
  H   H1379     1.0  0.69972  0.71578  0.87601  1.0000
  N   N88       1.0  0.96950  0.56369  0.79565  1.0000
  H   H1380     1.0  0.89376  0.54108  0.72646  1.0000
  H   H1381     1.0  0.87494  0.66356  0.72476  1.0000
  H   H1382     1.0  0.72712  0.67680  0.92125  1.0000
  C   C867      1.0  0.90019  0.66401  0.68252  1.0000
  H   H1383     1.0  0.79072  0.57402  0.87727  1.0000
  H   H1384     1.0  0.82192  0.68625  0.73584  1.0000
  H   H1385     1.0  0.74509  0.50997  0.87181  1.0000
  H   H1386     1.0  0.98775  0.54812  0.81940  1.0000
  C   C868      1.0  0.90846  0.52768  0.75368  1.0000
  C   C869      1.0  0.82097  0.61809  0.84920  1.0000
  C   C870      1.0  0.81093  0.63109  0.83436  1.0000
  C   C871      1.0  0.82104  0.63597  0.81497  1.0000
  C   C872      1.0  0.84122  0.62782  0.81004  1.0000
  C   C873      1.0  0.85114  0.61461  0.82480  1.0000
  C   C874      1.0  0.84111  0.60988  0.84423  1.0000
  H   H1387     1.0  0.79549  0.63758  0.83789  1.0000
  H   H1388     1.0  0.81319  0.64623  0.80375  1.0000
  H   H1389     1.0  0.86666  0.60828  0.82135  1.0000
  H   H1390     1.0  0.84913  0.59993  0.85559  1.0000
  C   C875      1.0  0.76601  0.63166  0.99188  1.0000
  H   H1391     1.0  0.80872  0.66343  0.72939  1.0000
  C   C876      1.0  0.75950  0.61120  0.99387  1.0000
  H   H1392     1.0  0.70469  0.65366  0.94179  1.0000
  H   H1393     1.0  0.75639  0.60294  0.98013  1.0000
  C   C877      1.0  0.74720  0.52875  0.89850  1.0000
  C   C878      1.0  0.75040  0.52873  0.91985  1.0000
  C   C879      1.0  0.73291  0.68287  0.93577  1.0000
  H   H1394     1.0  0.74417  0.54333  0.88989  1.0000
  H   H1395     1.0  0.79878  0.51736  0.88635  1.0000
  H   H1396     1.0  0.98424  0.53306  0.79704  1.0000
  C   C880      1.0  0.70040  0.68350  0.88695  1.0000
  C   C881      1.0  0.68903  0.66734  0.89635  1.0000
  C   C882      1.0  0.90619  0.70092  0.68544  1.0000
  H   H1397     1.0  0.86166  0.66365  0.74979  1.0000
  H   H1398     1.0  0.71621  0.68033  0.88127  1.0000
  H   H1399     1.0  0.82361  0.66305  0.75246  1.0000
  C   C883      1.0  0.69868  0.69481  0.94783  1.0000
  C   C884      1.0  0.96857  0.56438  0.77274  1.0000
  H   H1400     1.0  0.71454  0.68746  0.98559  1.0000
  N   N89       1.0  0.84188  0.66158  0.72392  1.0000
  C   C885      1.0  0.84099  0.66953  0.70205  1.0000
  C   C886      1.0  0.84296  0.63856  0.72460  1.0000
  C   C887      1.0  0.82316  0.66894  0.73589  1.0000
  C   C888      1.0  0.86056  0.66919  0.73321  1.0000
  H   H1401     1.0  0.94598  0.54091  0.79974  1.0000
  H   H1402     1.0  0.82708  0.66415  0.69448  1.0000
  H   H1403     1.0  0.85497  0.66402  0.69273  1.0000
  H   H1404     1.0  0.82906  0.63219  0.71785  1.0000
  H   H1405     1.0  0.85690  0.63246  0.71565  1.0000
  H   H1406     1.0  0.84392  0.63203  0.74089  1.0000
  H   H1407     1.0  0.69177  0.69007  0.93331  1.0000
  C   C889      1.0  0.81660  0.56006  0.90802  1.0000
  H   H1408     1.0  0.70268  0.71142  0.94533  1.0000
  H   H1409     1.0  0.90830  0.67772  0.71081  1.0000
  H   H1410     1.0  0.73734  0.69923  0.93232  1.0000
  H   H1411     1.0  0.78144  0.54892  0.87255  1.0000
  H   H1412     1.0  0.86054  0.68650  0.73268  1.0000
  H   H1413     1.0  0.00189  0.55403  0.79542  1.0000
  H   H1414     1.0  0.77743  0.55974  0.89768  1.0000
  N   N90       1.0  0.71715  0.68139  0.95301  1.0000
  C   C890      1.0  0.72601  0.68829  0.97225  1.0000
  H   H1415     1.0  0.84050  0.68687  0.70086  1.0000
  C   C891      1.0  0.71106  0.65954  0.95616  1.0000
  H   H1416     1.0  0.80556  0.55996  0.92179  1.0000
  H   H1417     1.0  0.69899  0.65777  0.96885  1.0000
  H   H1418     1.0  0.73109  0.70461  0.97032  1.0000
  H   H1419     1.0  0.73991  0.67834  0.97664  1.0000
  C   C892      1.0  0.89723  0.52689  0.73557  1.0000
  H   H1420     1.0  0.98366  0.56873  0.76516  1.0000
  H   H1421     1.0  0.97573  0.60589  0.74487  1.0000
  H   H1422     1.0  0.72463  0.64906  0.96033  1.0000
  C   C893      1.0  0.80534  0.52661  0.89854  1.0000
  C   C894      1.0  0.78869  0.55813  0.88431  1.0000
  C   C895      1.0  0.98925  0.61068  0.75249  1.0000
  H   H1423     1.0  0.98827  0.59054  0.79594  1.0000
  H   H1424     1.0  0.90978  0.71360  0.69498  1.0000
  H   H1425     1.0  0.93633  0.56731  0.80026  1.0000
  H   H1426     1.0  0.95640  0.57595  0.76721  1.0000
  C   C896      1.0  0.82385  0.54863  0.87322  1.0000
  C   C897      1.0  0.94953  0.55660  0.80496  1.0000
  N   N91       1.0  0.80864  0.54833  0.89101  1.0000
  C   C898      1.0  0.90524  0.68056  0.69451  1.0000
  H   H1427     1.0  0.96465  0.54903  0.76695  1.0000
  H   H1428     1.0  0.81887  0.57666  0.90303  1.0000
  H   H1429     1.0  0.97392  0.58491  0.81986  1.0000
  H   H1430     1.0  0.94960  0.55583  0.82224  1.0000
  H   H1431     1.0  0.75604  0.50940  0.94746  1.0000
  C   C899      1.0  0.98660  0.54905  0.80218  1.0000
  H   H1432     1.0  0.79414  0.52607  0.91217  1.0000
  H   H1433     1.0  0.82659  0.56494  0.86738  1.0000
  C   C900      1.0  0.74763  0.50981  0.88831  1.0000
  H   H1434     1.0  0.83180  0.55332  0.91328  1.0000
  H   H1435     1.0  0.81823  0.54012  0.86002  1.0000
  H   H1436     1.0  0.96076  0.59621  0.79777  1.0000
  H   H1437     1.0  0.96778  0.72804  0.68360  1.0000
  C   C901      1.0  0.75364  0.50958  0.93092  1.0000
  C   C902      1.0  0.91289  0.50911  0.76527  1.0000
  H   H1438     1.0  0.92146  0.50952  0.77934  1.0000
  H   H1439     1.0  0.00347  0.64374  0.78850  1.0000
  C   C903      1.0  0.00498  0.63206  0.77690  1.0000
  C   C904      1.0  0.89090  0.50756  0.72900  1.0000
  H   H1440     1.0  0.70734  0.95051  0.30955  1.0000
  H   H1441     1.0  0.72910  0.94444  0.29216  1.0000
  H   H1442     1.0  0.76776  0.93847  0.33395  1.0000
  H   H1443     1.0  0.72723  0.97984  0.32231  1.0000
  H   H1444     1.0  0.70145  0.88555  0.30647  1.0000
  C   C905      1.0  0.75654  0.93463  0.32208  1.0000
  C   C906      1.0  0.69165  0.89262  0.31846  1.0000
  H   H1445     1.0  0.71911  0.92479  0.30998  1.0000
  H   H1446     1.0  0.75365  0.91771  0.32429  1.0000
  H   H1447     1.0  0.75259  0.97449  0.33257  1.0000
  C   C907      1.0  0.74161  0.96972  0.32085  1.0000
  H   H1448     1.0  0.74898  0.97302  0.30521  1.0000
  C   C908      1.0  0.72252  0.94161  0.30821  1.0000
  H   H1449     1.0  0.76440  0.93710  0.30654  1.0000
  N   N92       1.0  0.73700  0.94746  0.32402  1.0000
  H   H1450     1.0  0.68491  0.78975  0.15218  1.0000
  H   H1451     1.0  0.67999  0.75943  0.11791  1.0000
  H   H1452     1.0  0.97179  0.76066  0.33126  1.0000
  H   H1453     1.0  0.70862  0.76152  0.16678  1.0000
  H   H1454     1.0  0.70433  0.76523  0.12863  1.0000
  C   C909      1.0  0.69960  0.89476  0.33835  1.0000
  H   H1455     1.0  0.79465  0.88814  0.66219  1.0000
  S   S363      1.0  0.88238  0.81871  0.58961  1.0000
  N   N93       1.0  0.79222  0.85758  0.54867  1.0000
  C   C910      1.0  0.76553  0.98631  0.40277  1.0000
  S   S364      1.0  0.91158  0.77224  0.56524  1.0000
  H   H1456     1.0  0.77507  0.83097  0.54175  1.0000
  S   S365      1.0  0.91118  0.77123  0.42984  1.0000
  C   C911      1.0  0.84070  0.81367  0.44620  1.0000
  H   H1457     1.0  0.80714  0.79040  0.44698  1.0000
  H   H1458     1.0  0.84613  0.76292  0.43352  1.0000
  Fe  Fe182     1.0  0.89733  0.78354  0.39982  1.0000
  S   S366      1.0  0.88433  0.81726  0.40027  1.0000
  Fe  Fe183     1.0  0.77864  0.89126  0.61277  1.0000
  S   S367      1.0  0.74517  0.88361  0.61065  1.0000
  S   S368      1.0  0.79766  0.86237  0.62418  1.0000
  Fe  Fe184     1.0  0.76786  0.93783  0.60223  1.0000
  S   S369      1.0  0.73365  0.93280  0.59953  1.0000
  S   S370      1.0  0.78364  0.96847  0.59514  1.0000
  Fe  Fe185     1.0  0.73697  0.91203  0.62875  1.0000
  S   S371      1.0  0.72077  0.90919  0.66112  1.0000
  Fe  Fe186     1.0  0.74507  0.90462  0.58177  1.0000
  S   S372      1.0  0.73362  0.88992  0.55300  1.0000
  S   S373      1.0  0.77072  0.91888  0.63222  1.0000
  S   S374      1.0  0.77898  0.91076  0.58293  1.0000
  Fe  Fe187     1.0  0.76827  0.93266  0.38646  1.0000
  S   S375      1.0  0.73828  0.93426  0.40477  1.0000
  S   S376      1.0  0.77720  0.96279  0.36902  1.0000
  Fe  Fe188     1.0  0.77430  0.88559  0.39627  1.0000
  S   S377      1.0  0.74401  0.88465  0.41537  1.0000
  S   S378      1.0  0.79084  0.85386  0.39082  1.0000
  Fe  Fe189     1.0  0.73033  0.90518  0.38948  1.0000
  S   S379      1.0  0.69645  0.90696  0.37949  1.0000
  Fe  Fe190     1.0  0.75449  0.91393  0.42890  1.0000
  S   S380      1.0  0.75114  0.92721  0.46111  1.0000
  S   S381      1.0  0.75973  0.90441  0.36959  1.0000
  S   S382      1.0  0.78545  0.91392  0.41132  1.0000
  Fe  Fe191     1.0  0.93583  0.75856  0.58671  1.0000
  C   C912      1.0  0.77360  0.98632  0.38232  1.0000
  H   H1459     1.0  0.68020  0.91728  0.64181  1.0000
  H   H1460     1.0  0.69596  0.88791  0.45164  1.0000
  C   C913      1.0  0.79475  0.87921  0.54045  1.0000
  S   S383      1.0  0.92119  0.77387  0.61462  1.0000
  H   H1461     1.0  0.75617  0.00483  0.42882  1.0000
  C   C914      1.0  0.99187  0.76124  0.58716  1.0000
  C   C915      1.0  0.73960  0.89992  0.52751  1.0000
  C   C916      1.0  0.73635  0.88775  0.51041  1.0000
  C   C917      1.0  0.74074  0.89541  0.48991  1.0000
  C   C918      1.0  0.74800  0.91551  0.48639  1.0000
  C   C919      1.0  0.75133  0.92756  0.50351  1.0000
  C   C920      1.0  0.74742  0.91974  0.52398  1.0000
  H   H1462     1.0  0.73028  0.87239  0.51303  1.0000
  H   H1463     1.0  0.73807  0.88598  0.47688  1.0000
  H   H1464     1.0  0.75685  0.94317  0.50093  1.0000
  H   H1465     1.0  0.75000  0.92925  0.53699  1.0000
  C   C921      1.0  0.77545  0.99237  0.60604  1.0000
  H   H1466     1.0  0.76183  0.85566  0.53648  1.0000
  C   C922      1.0  0.75693  0.99448  0.61797  1.0000
  H   H1467     1.0  0.83679  0.82235  0.46046  1.0000
  H   H1468     1.0  0.74741  0.98115  0.62103  1.0000
  C   C923      1.0  0.85850  0.82748  0.39652  1.0000
  C   C924      1.0  0.85322  0.84809  0.40186  1.0000
  C   C925      1.0  0.83269  0.85653  0.40010  1.0000
  C   C926      1.0  0.81716  0.84444  0.39287  1.0000
  C   C927      1.0  0.82249  0.82387  0.38740  1.0000
  C   C928      1.0  0.84301  0.81547  0.38911  1.0000
  H   H1469     1.0  0.86507  0.85759  0.40751  1.0000
  H   H1470     1.0  0.82891  0.87237  0.40432  1.0000
  H   H1471     1.0  0.81067  0.81443  0.38162  1.0000
  H   H1472     1.0  0.84687  0.79975  0.38455  1.0000
  H   H1473     1.0  0.83322  0.78394  0.41905  1.0000
  C   C929      1.0  0.99448  0.77483  0.39383  1.0000
  C   C930      1.0  0.85572  0.78422  0.46580  1.0000
  H   H1474     1.0  0.98057  0.78440  0.39087  1.0000
  H   H1475     1.0  0.87179  0.78749  0.45987  1.0000
  C   C931      1.0  0.85832  0.83021  0.59878  1.0000
  C   C932      1.0  0.85298  0.85093  0.59242  1.0000
  C   C933      1.0  0.83432  0.86092  0.59970  1.0000
  C   C934      1.0  0.82085  0.85030  0.61360  1.0000
  C   C935      1.0  0.82612  0.82955  0.61987  1.0000
  C   C936      1.0  0.84466  0.81949  0.61241  1.0000
  H   H1476     1.0  0.86354  0.85941  0.58204  1.0000
  H   H1477     1.0  0.83069  0.87698  0.59499  1.0000
  H   H1478     1.0  0.81587  0.82118  0.63067  1.0000
  H   H1479     1.0  0.84858  0.80358  0.61747  1.0000
  H   H1480     1.0  0.74277  0.86568  0.67093  1.0000
  H   H1481     1.0  0.81138  0.82976  0.55432  1.0000
  C   C937      1.0  0.68709  0.90367  0.35413  1.0000
  H   H1482     1.0  0.69410  0.93922  0.42290  1.0000
  C   C938      1.0  0.84515  0.78018  0.43084  1.0000
  H   H1483     1.0  0.81831  0.76819  0.46117  1.0000
  C   C939      1.0  0.67758  0.91426  0.65834  1.0000
  H   H1484     1.0  0.86038  0.78495  0.42385  1.0000
  H   H1485     1.0  0.76837  0.86566  0.57154  1.0000
  H   H1486     1.0  0.68544  0.95395  0.44496  1.0000
  H   H1487     1.0  0.80037  0.87974  0.52389  1.0000
  H   H1488     1.0  0.80607  0.88739  0.54949  1.0000
  Fe  Fe192     1.0  0.89504  0.78502  0.59382  1.0000
  H   H1489     1.0  0.85643  0.81833  0.44034  1.0000
  H   H1490     1.0  0.96760  0.76285  0.35883  1.0000
  H   H1491     1.0  0.78284  0.84180  0.57755  1.0000
  C   C940      1.0  0.99070  0.77646  0.60204  1.0000
  S   S384      1.0  0.92503  0.77147  0.38054  1.0000
  C   C941      1.0  0.81260  0.84606  0.54791  1.0000
  H   H1492     1.0  0.67949  0.93552  0.47958  1.0000
  H   H1493     1.0  0.81922  0.84548  0.53173  1.0000
  H   H1494     1.0  0.81508  0.79287  0.47319  1.0000
  C   C942      1.0  0.69495  0.94004  0.44010  1.0000
  N   N94       1.0  0.84017  0.79089  0.45031  1.0000
  H   H1495     1.0  0.70576  0.92524  0.47767  1.0000
  H   H1496     1.0  0.77975  0.88847  0.54129  1.0000
  C   C943      1.0  0.81922  0.78536  0.45830  1.0000
  H   H1497     1.0  0.97579  0.78369  0.60641  1.0000
  H   H1498     1.0  0.76552  0.85250  0.65952  1.0000
  H   H1499     1.0  0.78280  0.84708  0.51937  1.0000
  C   C944      1.0  0.77737  0.84731  0.53597  1.0000
  C   C945      1.0  0.70087  0.90280  0.44390  1.0000
  H   H1500     1.0  0.82411  0.85355  0.55733  1.0000
  C   C946      1.0  0.78409  0.85781  0.57042  1.0000
  H   H1501     1.0  0.79443  0.86627  0.58020  1.0000
  C   C947      1.0  0.69453  0.90974  0.67096  1.0000
  H   H1502     1.0  0.68493  0.90784  0.48231  1.0000
  N   N95       1.0  0.68778  0.92075  0.45093  1.0000
  H   H1503     1.0  0.73753  0.94874  0.35731  1.0000
  H   H1504     1.0  0.76196  0.97177  0.41092  1.0000
  H   H1505     1.0  0.82948  0.81917  0.43418  1.0000
  H   H1506     1.0  0.80069  0.86149  0.66950  1.0000
  H   H1507     1.0  0.71143  0.94278  0.44355  1.0000
  H   H1508     1.0  0.72448  0.92712  0.34826  1.0000
  H   H1509     1.0  0.85290  0.79228  0.48062  1.0000
  H   H1510     1.0  0.96243  0.76784  0.64009  1.0000
  H   H1511     1.0  0.71211  0.95253  0.34684  1.0000
  C   C948      1.0  0.68949  0.92240  0.47362  1.0000
  H   H1512     1.0  0.75948  0.87924  0.65278  1.0000
  H   H1513     1.0  0.70013  0.90122  0.42677  1.0000
  H   H1514     1.0  0.85532  0.76716  0.46949  1.0000
  C   C949      1.0  0.75937  0.86745  0.66589  1.0000
  H   H1515     1.0  0.71743  0.90457  0.44748  1.0000
  C   C950      1.0  0.72735  0.94387  0.34500  1.0000
  H   H1516     1.0  0.96388  0.76401  0.66779  1.0000
  H   H1517     1.0  0.71532  0.88924  0.34153  1.0000
  C   C951      1.0  0.77862  0.00541  0.37220  1.0000
  C   C952      1.0  0.76238  0.00512  0.41295  1.0000
  H   H1518     1.0  0.78518  0.00555  0.35648  1.0000
  C   C953      1.0  0.99341  0.75727  0.40739  1.0000
  H   H1519     1.0  0.75507  0.85568  0.70620  1.0000
  C   C954      1.0  0.67795  0.78626  0.88500  1.0000
  C   C955      1.0  0.76332  0.89399  0.69057  1.0000
  C   C956      1.0  0.68140  0.80950  0.85462  1.0000
  N   N96       1.0  0.77193  0.87392  0.68301  1.0000
  H   H1520     1.0  0.69432  0.81747  0.86150  1.0000
  C   C957      1.0  0.69074  0.90580  0.69243  1.0000
  H   H1521     1.0  0.69462  0.97669  0.71754  1.0000
  H   H1522     1.0  0.80364  0.88140  0.68778  1.0000
  H   H1523     1.0  0.70369  0.90218  0.70236  1.0000
  H   H1524     1.0  0.77231  0.89940  0.70354  1.0000
  H   H1525     1.0  0.74678  0.89283  0.69611  1.0000
  H   H1526     1.0  0.78065  0.86220  0.71335  1.0000
  C   C958      1.0  0.77131  0.85787  0.70015  1.0000
  H   H1527     1.0  0.76353  0.90643  0.67795  1.0000
  H   H1528     1.0  0.68838  0.79679  0.84508  1.0000
  H   H1529     1.0  0.77766  0.84253  0.69486  1.0000
  H   H1530     1.0  0.68502  0.77285  0.87647  1.0000
  H   H1531     1.0  0.67339  0.82103  0.84386  1.0000
  H   H1532     1.0  0.67929  0.94173  0.72424  1.0000
  C   C959      1.0  0.79368  0.87635  0.67538  1.0000
  H   H1533     1.0  0.69056  0.79371  0.89291  1.0000
  H   H1534     1.0  0.68048  0.95661  0.68893  1.0000
  C   C960      1.0  0.67876  0.98396  0.72006  1.0000
  H   H1535     1.0  0.67696  0.98780  0.73676  1.0000
  H   H1536     1.0  0.67798  0.99891  0.71064  1.0000
