data_image0
_chemical_formula_structural       HCHCHC2HCH2CH2CHCNH2CH4C2H2FeS2FeS2FeHFeS3C2SHFeH2FeSH2SH4CFeHC4H6C6HCH2C6H4CH4C2H2SCHNSHC2HNCHCH2C2HCHFeH5SCH2CH2SFeHNCH3SHCFeSHSH6CHCHC2HFeNHSFeS2FeS2FeSFeS3HSCH3C2HC2H2C6H4C6HCH9FeCHCH4CNHCSCHC2HCH4NCSH4CH6C3H3CH3C4HCH2CHCHFeSHFeSC2H2FeS2FeSFeS4CHFeSC2H2C2SHSCHFeHC6H4C2HC3H7NH3C3H2NCHCH2CSH8SHCS3H2CHC3HC2H4CHSHSNH3NH5CH4CHC2H3FeH2NS2H4CHSH2CSFeSHFeHCFeSNSHSH3CSH2SCH2CHC7H5C3HC2HCS3Fe2H3CH2FeH4FeHC2H2CFeCSH2FeS2HC2FeSFeS2CSHC2HC2HSCH3C6HCH3C2S2H2CH2FeSH2NHFeSH2CH5CHNC2HC2H2SH3NCHNHC2H2CSFeH2CHSC2FeH5CHC2HCH4C2H3CH2C2H2CHCH6SH2FeSCHFeS2HCFeSHSH2C3SH3SHCSHC6FeH3SCNH2CHC3H5NH7FeC4HC2SCHC2SCH2SC3HCH2CHSCH5CH3CSNFeH2C3SHCHC2H3SCNSH3FeSHFeS2FeSFeHS2CH3CH6C2FeHFeHSH2C6H4C6H4C2SHCHC2H3SH2SCHCH5Fe2SCHCNC4HCNH2CHFeHFeH4CNHSHSH5CHCHSHSH2CSH3CHSHCH2C2HCFeH3CH3S2CH3FeS2FeS2FeSFeS3H2CH2CHC6H3SNHC7H4CH3CH3C2H5CH4FeCHCH2C2HNH4CHNFeHNH2Fe2H2SH2S2FeS2FeS3HFeS3HS2CH2CH3SHCHCH3C6H4C6H4NCH2C2HCH2Fe2HCHNFeH3FeH2C3HCSHCNFeH5NHSHSHCH3C2S2FeCHSHFeSCH3FeHSFeS2FeS2FeHFeS4H2CNHCH2C4H4C3H2C6H5NCHCHCHC2SH3CHCH7C2H3C4H2CH2CH4NSCH2SHSCHCHFeHC2H6NCH2CH6SH2CHCNHC3HCH2C5H2SHCHCSCH2C2H2CHC6FeS2CH2SFeH4FeHCHCSH5NH2NSC2H2C2H2CH4FeS2FeSCFeCFeS2H3CSHC2H3C3H5C3H2S2H2CH5CFe2H2CNHCH3CSC2HSHC2H2CNHSHCH2CHC2HSHCH6CH7C2SCH3C3SCHCH2SNFeCH3C2H2C2H2SHCHCH4SH2NC2H3FeSFeSFeSHSHS2H4C2NCHCHC3HCHCH2CH6NCHCHC3NSC2H4CHSHCH2SC2HFeCHCH2CH2FeH2C2H2FeH3SHC2H7CSN2C2HC2HSCH2CH3SFeS2FeSFeSFeS4CSHC7H3CH4C3NH4SH4CH2CH3CHC2NCHCH4CH7FeCH8CH2CH5CH2CH2C2H2NCSH2CHCH3FeCHNH2CSH2CH2C2H5CHCFeSHFeSFeSFeSC3H7FeNSH2SH2CH2SCHFeC3NSHCFeCHCSC2SCH2C2HS2CH3C3H2C3H6CH2SCH3SC8H3SHSCSFeNHFeH3C2H3SFeS2FeS2FeSFeSHSFeHSHC3HCSHSHCH2C3H4FeSH2C3SCH2C2H2C3H2C2HFeCH6CNCHC3H3CHCHCH7CNCHCH2NH3NSFeH2C3HFeCH7C3H2SHSH3C2HC2H3CH6CH2NH2SH2CH3CHC3HNH2SFeS2FeS2FeSFeHS2FeCSHNCH2C6H4CNH3C2H2C6H3SCH2FeCH6CSH3SH6C3HCH3CH2C2S2FeH4CHC3HCH4NH2FeC2H2SC2SHCH3C2
_chemical_formula_sum              "H1024 C640 N64 Fe128 S256"
_cell_length_a       45.8721
_cell_length_b       51.802
_cell_length_c       36.8556
_cell_angle_alpha    89.2624
_cell_angle_beta     88.6168
_cell_angle_gamma    89.0831

_space_group_name_H-M_alt    "P 1"
_space_group_IT_number       1

loop_
  _space_group_symop_operation_xyz
  'x, y, z'

loop_
  _atom_site_type_symbol
  _atom_site_label
  _atom_site_symmetry_multiplicity
  _atom_site_fract_x
  _atom_site_fract_y
  _atom_site_fract_z
  _atom_site_occupancy
  H   H1        1.0  0.40411  0.20861  0.20018  1.0000
  C   C1        1.0  0.45432  0.14617  0.13807  1.0000
  H   H2        1.0  0.40726  0.17855  0.17684  1.0000
  C   C2        1.0  0.43718  0.17523  0.23849  1.0000
  H   H3        1.0  0.61605  0.11678  0.42518  1.0000
  C   C3        1.0  0.48365  0.13843  0.13813  1.0000
  C   C4        1.0  0.38892  0.28408  0.14456  1.0000
  H   H4        1.0  0.65343  0.22058  0.43329  1.0000
  C   C5        1.0  0.39507  0.14804  0.23529  1.0000
  H   H5        1.0  0.37108  0.14712  0.23177  1.0000
  H   H6        1.0  0.39756  0.17993  0.29256  1.0000
  C   C6        1.0  0.65621  0.24074  0.44267  1.0000
  H   H7        1.0  0.37302  0.18835  0.19713  1.0000
  H   H8        1.0  0.40560  0.13678  0.21295  1.0000
  C   C7        1.0  0.39702  0.18812  0.20090  1.0000
  H   H9        1.0  0.51390  0.10687  0.14701  1.0000
  C   C8        1.0  0.37855  0.30965  0.14248  1.0000
  N   N1        1.0  0.40513  0.17503  0.23517  1.0000
  H   H10       1.0  0.41001  0.27998  0.15591  1.0000
  H   H11       1.0  0.39809  0.20929  0.26662  1.0000
  C   C9        1.0  0.39128  0.18879  0.26612  1.0000
  H   H12       1.0  0.40031  0.13786  0.26117  1.0000
  H   H13       1.0  0.49100  0.09981  0.43219  1.0000
  H   H14       1.0  0.44834  0.16483  0.21568  1.0000
  H   H15       1.0  0.40981  0.13423  0.14607  1.0000
  C   C10       1.0  0.18368  0.30924  0.16499  1.0000
  C   C11       1.0  0.46938  0.09510  0.15608  1.0000
  H   H16       1.0  0.18033  0.29247  0.18368  1.0000
  H   H17       1.0  0.44546  0.19531  0.23827  1.0000
  Fe  Fe1       1.0  0.47423  0.18597  0.34808  1.0000
  S   S1        1.0  0.45946  0.16163  0.39559  1.0000
  S   S2        1.0  0.44483  0.21534  0.32184  1.0000
  Fe  Fe2       1.0  0.53442  0.16203  0.34504  1.0000
  S   S3        1.0  0.52578  0.13575  0.39252  1.0000
  S   S4        1.0  0.57773  0.15962  0.31571  1.0000
  Fe  Fe3       1.0  0.48284  0.12935  0.36672  1.0000
  H   H18       1.0  0.63414  0.24900  0.44860  1.0000
  Fe  Fe4       1.0  0.50337  0.17004  0.41778  1.0000
  S   S5        1.0  0.50646  0.17937  0.47700  1.0000
  S   S6        1.0  0.49343  0.15276  0.31665  1.0000
  S   S7        1.0  0.51616  0.19736  0.37263  1.0000
  C   C12       1.0  0.43253  0.12839  0.14700  1.0000
  C   C13       1.0  0.44004  0.10290  0.15610  1.0000
  S   S8        1.0  0.59089  0.27184  0.49758  1.0000
  H   H19       1.0  0.59513  0.18517  0.25098  1.0000
  Fe  Fe5       1.0  0.56478  0.29920  0.53251  1.0000
  H   H20       1.0  0.36708  0.18874  0.26477  1.0000
  H   H21       1.0  0.52774  0.19061  0.24586  1.0000
  Fe  Fe6       1.0  0.49204  0.25317  0.14792  1.0000
  S   S9        1.0  0.51175  0.27300  0.19471  1.0000
  H   H22       1.0  0.65242  0.09600  0.36143  1.0000
  H   H23       1.0  0.56610  0.20392  0.58534  1.0000
  S   S10       1.0  0.46625  0.21825  0.16336  1.0000
  H   H24       1.0  0.48532  0.25051  0.38080  1.0000
  H   H25       1.0  0.44716  0.29182  0.44953  1.0000
  H   H26       1.0  0.54058  0.22467  0.20059  1.0000
  H   H27       1.0  0.17335  0.32361  0.23399  1.0000
  C   C14       1.0  0.63345  0.15715  0.34149  1.0000
  Fe  Fe7       1.0  0.43511  0.23257  0.12167  1.0000
  H   H28       1.0  0.47634  0.31174  0.43270  1.0000
  C   C15       1.0  0.49122  0.11290  0.14719  1.0000
  C   C16       1.0  0.60395  0.16254  0.34903  1.0000
  C   C17       1.0  0.59494  0.16956  0.38399  1.0000
  C   C18       1.0  0.47129  0.29367  0.44817  1.0000
  H   H29       1.0  0.57225  0.17346  0.38978  1.0000
  H   H30       1.0  0.52428  0.16788  0.20980  1.0000
  H   H31       1.0  0.60778  0.17625  0.43879  1.0000
  H   H32       1.0  0.50645  0.22340  0.30760  1.0000
  H   H33       1.0  0.48901  0.22985  0.44145  1.0000
  H   H34       1.0  0.64054  0.15175  0.31439  1.0000
  C   C19       1.0  0.53273  0.20265  0.48468  1.0000
  C   C20       1.0  0.53262  0.21567  0.51770  1.0000
  C   C21       1.0  0.55157  0.23626  0.52236  1.0000
  C   C22       1.0  0.57063  0.24374  0.49407  1.0000
  C   C23       1.0  0.57167  0.22991  0.46178  1.0000
  C   C24       1.0  0.55261  0.20949  0.45712  1.0000
  H   H35       1.0  0.51716  0.21043  0.53908  1.0000
  C   C25       1.0  0.64440  0.16508  0.40450  1.0000
  H   H36       1.0  0.58610  0.23566  0.43962  1.0000
  H   H37       1.0  0.55295  0.19931  0.43196  1.0000
  C   C26       1.0  0.46366  0.23407  0.28920  1.0000
  C   C27       1.0  0.44803  0.24809  0.26319  1.0000
  C   C28       1.0  0.46285  0.26085  0.23469  1.0000
  C   C29       1.0  0.49335  0.26068  0.23315  1.0000
  C   C30       1.0  0.50900  0.24792  0.26030  1.0000
  C   C31       1.0  0.49417  0.23413  0.28781  1.0000
  H   H38       1.0  0.42446  0.24849  0.26431  1.0000
  H   H39       1.0  0.45070  0.27064  0.21364  1.0000
  H   H40       1.0  0.53257  0.24786  0.25922  1.0000
  H   H41       1.0  0.20751  0.31289  0.16280  1.0000
  C   C32       1.0  0.57994  0.16963  0.18566  1.0000
  H   H42       1.0  0.59827  0.17845  0.16981  1.0000
  H   H43       1.0  0.58911  0.15370  0.20267  1.0000
  H   H44       1.0  0.56517  0.16084  0.16583  1.0000
  H   H45       1.0  0.57316  0.21405  0.25257  1.0000
  C   C33       1.0  0.37196  0.26394  0.13229  1.0000
  C   C34       1.0  0.65371  0.15827  0.36939  1.0000
  H   H46       1.0  0.52906  0.25752  0.41747  1.0000
  H   H47       1.0  0.55107  0.24665  0.54759  1.0000
  S   S11       1.0  0.51087  0.16069  0.12732  1.0000
  C   C35       1.0  0.47488  0.26753  0.39430  1.0000
  H   H48       1.0  0.61370  0.10146  0.36173  1.0000
  N   N2        1.0  0.48563  0.27080  0.43148  1.0000
  S   S12       1.0  0.38643  0.23235  0.13032  1.0000
  H   H49       1.0  0.52641  0.27679  0.45756  1.0000
  C   C36       1.0  0.61510  0.17116  0.41162  1.0000
  C   C37       1.0  0.35112  0.31517  0.12823  1.0000
  H   H50       1.0  0.56972  0.21939  0.16820  1.0000
  N   N3        1.0  0.56426  0.18901  0.20819  1.0000
  C   C38       1.0  0.55232  0.20962  0.18454  1.0000
  H   H51       1.0  0.53654  0.20176  0.16533  1.0000
  C   C39       1.0  0.51754  0.27441  0.42993  1.0000
  H   H52       1.0  0.54823  0.16083  0.24674  1.0000
  H   H53       1.0  0.60232  0.21104  0.21935  1.0000
  C   C40       1.0  0.58462  0.20033  0.23386  1.0000
  C   C41       1.0  0.54004  0.17651  0.22855  1.0000
  H   H54       1.0  0.52353  0.29189  0.41370  1.0000
  C   C42       1.0  0.33363  0.29497  0.11713  1.0000
  H   H55       1.0  0.17669  0.30328  0.13768  1.0000
  Fe  Fe8       1.0  0.52559  0.30193  0.59873  1.0000
  H   H56       1.0  0.48715  0.24906  0.48160  1.0000
  H   H57       1.0  0.63882  0.23246  0.51150  1.0000
  H   H58       1.0  0.45496  0.24428  0.45580  1.0000
  H   H59       1.0  0.47862  0.29659  0.47638  1.0000
  H   H60       1.0  0.45091  0.26444  0.39442  1.0000
  S   S13       1.0  0.51678  0.29307  0.54086  1.0000
  C   C43       1.0  0.47886  0.24753  0.45355  1.0000
  H   H61       1.0  0.47948  0.28476  0.37685  1.0000
  H   H62       1.0  0.65471  0.11077  0.42478  1.0000
  C   C44       1.0  0.63317  0.10176  0.43015  1.0000
  H   H63       1.0  0.39201  0.32517  0.15149  1.0000
  H   H64       1.0  0.44404  0.16600  0.26441  1.0000
  S   S14       1.0  0.57407  0.30434  0.59131  1.0000
  Fe  Fe9       1.0  0.49056  0.19971  0.11715  1.0000
  H   H65       1.0  0.65483  0.27664  0.49486  1.0000
  N   N4        1.0  0.16716  0.33234  0.17750  1.0000
  C   C45       1.0  0.34405  0.26935  0.11923  1.0000
  H   H66       1.0  0.63197  0.09651  0.45950  1.0000
  H   H67       1.0  0.44836  0.16574  0.13055  1.0000
  H   H68       1.0  0.65974  0.20491  0.49609  1.0000
  S   S15       1.0  0.46623  0.08904  0.36262  1.0000
  H   H69       1.0  0.47402  0.08822  0.24783  1.0000
  C   C46       1.0  0.63109  0.08701  0.36840  1.0000
  Fe  Fe10      1.0  0.51274  0.33580  0.53350  1.0000
  S   S16       1.0  0.45894  0.26923  0.10984  1.0000
  H   H70       1.0  0.33080  0.25381  0.10979  1.0000
  S   S17       1.0  0.22261  0.29061  0.05274  1.0000
  H   H71       1.0  0.57130  0.32714  0.71863  1.0000
  H   H72       1.0  0.49452  0.15761  0.93507  1.0000
  H   H73       1.0  0.63053  0.32515  0.72865  1.0000
  H   H74       1.0  0.39060  0.25341  0.01952  1.0000
  H   H75       1.0  0.35853  0.29145  0.00941  1.0000
  H   H76       1.0  0.65005  0.30490  0.69676  1.0000
  C   C47       1.0  0.18495  0.29297  0.06207  1.0000
  H   H77       1.0  0.55643  0.12559  0.85894  1.0000
  C   C48       1.0  0.37380  0.30308  0.02529  1.0000
  H   H78       1.0  0.18218  0.33419  0.05496  1.0000
  C   C49       1.0  0.57078  0.23753  0.63955  1.0000
  C   C50       1.0  0.58169  0.09350  0.78007  1.0000
  H   H79       1.0  0.59497  0.23652  0.64069  1.0000
  Fe  Fe11      1.0  0.24553  0.32815  0.05907  1.0000
  N   N5        1.0  0.40407  0.29299  0.02201  1.0000
  H   H80       1.0  0.55445  0.18020  0.68050  1.0000
  S   S18       1.0  0.50580  0.27819  0.64350  1.0000
  Fe  Fe12      1.0  0.57321  0.20040  0.78848  1.0000
  S   S19       1.0  0.60823  0.18522  0.82465  1.0000
  S   S20       1.0  0.54323  0.17364  0.76102  1.0000
  Fe  Fe13      1.0  0.58651  0.25591  0.80326  1.0000
  S   S21       1.0  0.62235  0.24605  0.84146  1.0000
  S   S22       1.0  0.57759  0.29623  0.78369  1.0000
  Fe  Fe14      1.0  0.63542  0.21660  0.79988  1.0000
  S   S23       1.0  0.45669  0.21026  0.07636  1.0000
  Fe  Fe15      1.0  0.59188  0.21572  0.86299  1.0000
  S   S24       1.0  0.58663  0.20273  0.92108  1.0000
  S   S25       1.0  0.60200  0.22885  0.75972  1.0000
  S   S26       1.0  0.55445  0.22842  0.82871  1.0000
  H   H81       1.0  0.43695  0.28672  0.98036  1.0000
  S   S27       1.0  0.48853  0.26260  0.01123  1.0000
  C   C51       1.0  0.53479  0.12350  0.87295  1.0000
  H   H82       1.0  0.41647  0.30812  0.07335  1.0000
  H   H83       1.0  0.54321  0.31994  0.66311  1.0000
  H   H84       1.0  0.41364  0.31433  0.97283  1.0000
  C   C52       1.0  0.59979  0.11362  0.76862  1.0000
  C   C53       1.0  0.17058  0.31699  0.06232  1.0000
  H   H85       1.0  0.51409  0.17085  0.85652  1.0000
  C   C54       1.0  0.55783  0.14257  0.76618  1.0000
  C   C55       1.0  0.58791  0.13830  0.76225  1.0000
  H   H86       1.0  0.56096  0.17568  0.61331  1.0000
  H   H87       1.0  0.60204  0.15404  0.75435  1.0000
  C   C56       1.0  0.55958  0.21977  0.94589  1.0000
  C   C57       1.0  0.55174  0.21125  0.98095  1.0000
  C   C58       1.0  0.52972  0.22419  0.00093  1.0000
  C   C59       1.0  0.51568  0.24590  0.98608  1.0000
  C   C60       1.0  0.52340  0.25435  0.95094  1.0000
  C   C61       1.0  0.54532  0.24129  0.93084  1.0000
  H   H88       1.0  0.56278  0.19468  0.99279  1.0000
  H   H89       1.0  0.52372  0.21740  0.02787  1.0000
  H   H90       1.0  0.51268  0.27118  0.93939  1.0000
  H   H91       1.0  0.55148  0.24817  0.90398  1.0000
  C   C62       1.0  0.52262  0.28553  0.68413  1.0000
  C   C63       1.0  0.54103  0.30675  0.68595  1.0000
  C   C64       1.0  0.55692  0.31085  0.71736  1.0000
  C   C65       1.0  0.55494  0.29333  0.74649  1.0000
  C   C66       1.0  0.53632  0.27229  0.74472  1.0000
  C   C67       1.0  0.51980  0.26863  0.71383  1.0000
  H   H92       1.0  0.31232  0.29910  0.10629  1.0000
  C   C68       1.0  0.57042  0.19534  0.61258  1.0000
  H   H93       1.0  0.53450  0.25886  0.76726  1.0000
  H   H94       1.0  0.50542  0.25234  0.71271  1.0000
  H   H95       1.0  0.55069  0.12550  0.94250  1.0000
  H   H96       1.0  0.55211  0.17277  0.86609  1.0000
  H   H97       1.0  0.62307  0.11034  0.76558  1.0000
  H   H98       1.0  0.54716  0.15994  0.94683  1.0000
  H   H99       1.0  0.48229  0.14207  0.89492  1.0000
  H   H100      1.0  0.55457  0.21160  0.70015  1.0000
  H   H101      1.0  0.51546  0.22508  0.66015  1.0000
  Fe  Fe16      1.0  0.48302  0.24597  0.06750  1.0000
  C   C69       1.0  0.42327  0.30878  0.04413  1.0000
  H   H102      1.0  0.53470  0.10440  0.88715  1.0000
  C   C70       1.0  0.56402  0.19975  0.67755  1.0000
  H   H103      1.0  0.40024  0.28230  0.96617  1.0000
  H   H104      1.0  0.44636  0.30179  0.04206  1.0000
  H   H105      1.0  0.57336  0.14668  0.91527  1.0000
  H   H106      1.0  0.49791  0.12318  0.93090  1.0000
  C   C71       1.0  0.52586  0.21385  0.63766  1.0000
  N   N6        1.0  0.55778  0.21161  0.64182  1.0000
  H   H107      1.0  0.58786  0.19783  0.68199  1.0000
  C   C72       1.0  0.55099  0.14411  0.92704  1.0000
  S   S28       1.0  0.29104  0.33494  0.03746  1.0000
  C   C73       1.0  0.53014  0.16974  0.87869  1.0000
  H   H108      1.0  0.52570  0.18630  0.89714  1.0000
  C   C74       1.0  0.55162  0.09781  0.78392  1.0000
  C   C75       1.0  0.53959  0.12223  0.77624  1.0000
  H   H109      1.0  0.51634  0.12563  0.77944  1.0000
  C   C76       1.0  0.49958  0.14180  0.91558  1.0000
  H   H110      1.0  0.18027  0.25202  0.07057  1.0000
  H   H111      1.0  0.56293  0.24984  0.66236  1.0000
  H   H112      1.0  0.39832  0.26431  0.06413  1.0000
  H   H113      1.0  0.51802  0.12300  0.85169  1.0000
  N   N7        1.0  0.52886  0.14479  0.89854  1.0000
  C   C77       1.0  0.40518  0.26589  0.03508  1.0000
  S   S29       1.0  0.51893  0.23364  0.10449  1.0000
  H   H114      1.0  0.52018  0.22402  0.61189  1.0000
  H   H115      1.0  0.63854  0.29057  0.79551  1.0000
  H   H116      1.0  0.42765  0.25757  0.03259  1.0000
  H   H117      1.0  0.56487  0.24782  0.61400  1.0000
  C   C78       1.0  0.41410  0.29417  0.98361  1.0000
  H   H118      1.0  0.51544  0.19461  0.63784  1.0000
  H   H119      1.0  0.36581  0.30264  0.05401  1.0000
  H   H120      1.0  0.62535  0.29103  0.73004  1.0000
  H   H121      1.0  0.42285  0.32938  0.03522  1.0000
  H   H122      1.0  0.59447  0.19312  0.61493  1.0000
  H   H123      1.0  0.37205  0.32348  0.01562  1.0000
  C   C79       1.0  0.16931  0.27068  0.07087  1.0000
  C   C80       1.0  0.64204  0.30619  0.72544  1.0000
  C   C81       1.0  0.65460  0.30584  0.78873  1.0000
  H   H124      1.0  0.64309  0.32471  0.79274  1.0000
  H   H125      1.0  0.34352  0.43889  0.22097  1.0000
  H   H126      1.0  0.29285  0.47426  0.52902  1.0000
  C   C82       1.0  0.25488  0.39729  0.21940  1.0000
  H   H127      1.0  0.34483  0.38258  0.19225  1.0000
  H   H128      1.0  0.37657  0.53118  0.36806  1.0000
  H   H129      1.0  0.49707  0.40402  0.56167  1.0000
  C   C83       1.0  0.24146  0.39282  0.18642  1.0000
  C   C84       1.0  0.30897  0.43673  0.16331  1.0000
  C   C85       1.0  0.32752  0.57276  0.24168  1.0000
  C   C86       1.0  0.22680  0.41294  0.16853  1.0000
  H   H130      1.0  0.24269  0.37384  0.17483  1.0000
  C   C87       1.0  0.25460  0.42211  0.23386  1.0000
  H   H131      1.0  0.26649  0.38173  0.23295  1.0000
  H   H132      1.0  0.52206  0.42848  0.54665  1.0000
  C   C88       1.0  0.29571  0.45414  0.51918  1.0000
  H   H133      1.0  0.29771  0.44257  0.18903  1.0000
  C   C89       1.0  0.43708  0.37312  0.59577  1.0000
  H   H134      1.0  0.29284  0.42635  0.14693  1.0000
  Fe  Fe17      1.0  0.33456  0.47805  0.60669  1.0000
  S   S30       1.0  0.56004  0.34148  0.51955  1.0000
  H   H135      1.0  0.30534  0.44270  0.54183  1.0000
  Fe  Fe18      1.0  0.56507  0.34623  0.57945  1.0000
  S   S31       1.0  0.51737  0.34425  0.59252  1.0000
  C   C90       1.0  0.32596  0.39605  0.18842  1.0000
  C   C91       1.0  0.36714  0.54424  0.34711  1.0000
  H   H136      1.0  0.62701  0.33652  0.59080  1.0000
  H   H137      1.0  0.22529  0.43619  0.53261  1.0000
  Fe  Fe19      1.0  0.30766  0.52041  0.28080  1.0000
  S   S32       1.0  0.27631  0.54077  0.31865  1.0000
  S   S33       1.0  0.34392  0.54383  0.25653  1.0000
  Fe  Fe20      1.0  0.27850  0.50452  0.35206  1.0000
  S   S34       1.0  0.27471  0.50770  0.41260  1.0000
  Fe  Fe21      1.0  0.24222  0.52061  0.28799  1.0000
  S   S35       1.0  0.19969  0.54076  0.27696  1.0000
  S   S36       1.0  0.31354  0.48585  0.31741  1.0000
  S   S37       1.0  0.27326  0.50313  0.24692  1.0000
  S   S38       1.0  0.41770  0.49183  0.59778  1.0000
  C   C92       1.0  0.48871  0.44749  0.60088  1.0000
  H   H138      1.0  0.28123  0.40420  0.51968  1.0000
  Fe  Fe22      1.0  0.38302  0.49633  0.55603  1.0000
  S   S39       1.0  0.39154  0.50997  0.49881  1.0000
  C   C93       1.0  0.29754  0.57370  0.23571  1.0000
  C   C94       1.0  0.35461  0.43432  0.19449  1.0000
  H   H139      1.0  0.30991  0.38567  0.17195  1.0000
  H   H140      1.0  0.28819  0.41496  0.47380  1.0000
  C   C95       1.0  0.34132  0.57053  0.39153  1.0000
  C   C96       1.0  0.62533  0.37692  0.60408  1.0000
  S   S40       1.0  0.21202  0.40802  0.12596  1.0000
  H   H141      1.0  0.28512  0.55621  0.23616  1.0000
  S   S41       1.0  0.36340  0.45754  0.56633  1.0000
  C   C97       1.0  0.42750  0.39847  0.58939  1.0000
  H   H142      1.0  0.18901  0.52149  0.40595  1.0000
  Fe  Fe23      1.0  0.27629  0.47002  0.28656  1.0000
  H   H143      1.0  0.21653  0.53507  0.35095  1.0000
  C   C98       1.0  0.30754  0.50830  0.43563  1.0000
  C   C99       1.0  0.30662  0.51223  0.47307  1.0000
  C   C100      1.0  0.33239  0.51195  0.49254  1.0000
  C   C101      1.0  0.35931  0.50891  0.47447  1.0000
  C   C102      1.0  0.36034  0.50529  0.43689  1.0000
  C   C103      1.0  0.33437  0.50461  0.41749  1.0000
  H   H144      1.0  0.28591  0.51531  0.48713  1.0000
  H   H145      1.0  0.33136  0.51432  0.52151  1.0000
  H   H146      1.0  0.38117  0.50238  0.42303  1.0000
  H   H147      1.0  0.33510  0.50107  0.38870  1.0000
  C   C104      1.0  0.44264  0.39467  0.52602  1.0000
  C   C105      1.0  0.17764  0.52491  0.38087  1.0000
  H   H148      1.0  0.34942  0.55866  0.41467  1.0000
  C   C106      1.0  0.16071  0.45631  0.32443  1.0000
  C   C107      1.0  0.17900  0.53603  0.31686  1.0000
  C   C108      1.0  0.24676  0.44425  0.53955  1.0000
  H   H149      1.0  0.36174  0.45293  0.18197  1.0000
  H   H150      1.0  0.31575  0.39962  0.21562  1.0000
  H   H151      1.0  0.17502  0.46658  0.23450  1.0000
  H   H152      1.0  0.18167  0.44639  0.33105  1.0000
  H   H153      1.0  0.31194  0.45448  0.49621  1.0000
  H   H154      1.0  0.37449  0.42256  0.20046  1.0000
  H   H155      1.0  0.32505  0.55997  0.53976  1.0000
  N   N8        1.0  0.26765  0.44332  0.50838  1.0000
  H   H156      1.0  0.25165  0.40744  0.48871  1.0000
  H   H157      1.0  0.49420  0.46263  0.58027  1.0000
  H   H158      1.0  0.23908  0.46129  0.22731  1.0000
  C   C109      1.0  0.17250  0.35403  0.15193  1.0000
  C   C110      1.0  0.45004  0.35879  0.56763  1.0000
  C   C111      1.0  0.25590  0.45862  0.47774  1.0000
  H   H159      1.0  0.34626  0.53586  0.33848  1.0000
  H   H160      1.0  0.46820  0.43851  0.59244  1.0000
  N   N9        1.0  0.33501  0.42043  0.17049  1.0000
  C   C112      1.0  0.19325  0.53252  0.34965  1.0000
  H   H161      1.0  0.19986  0.45952  0.27048  1.0000
  C   C113      1.0  0.23929  0.44208  0.21647  1.0000
  H   H162      1.0  0.16119  0.37212  0.16097  1.0000
  H   H163      1.0  0.17510  0.41747  0.27869  1.0000
  C   C114      1.0  0.27236  0.41626  0.49713  1.0000
  S   S42       1.0  0.24178  0.48563  0.32433  1.0000
  H   H164      1.0  0.32013  0.56236  0.38350  1.0000
  H   H165      1.0  0.27127  0.45856  0.45386  1.0000
  H   H166      1.0  0.36419  0.55758  0.53552  1.0000
  H   H167      1.0  0.34406  0.57598  0.50294  1.0000
  H   H168      1.0  0.24292  0.46444  0.54883  1.0000
  H   H169      1.0  0.25516  0.43317  0.56333  1.0000
  H   H170      1.0  0.23477  0.45100  0.46870  1.0000
  H   H171      1.0  0.21373  0.45301  0.17018  1.0000
  S   S43       1.0  0.35129  0.51725  0.59262  1.0000
  H   H172      1.0  0.53513  0.40031  0.57037  1.0000
  C   C115      1.0  0.51688  0.41469  0.56916  1.0000
  S   S44       1.0  0.47695  0.35436  0.50131  1.0000
  S   S45       1.0  0.25455  0.34154  0.11522  1.0000
  S   S46       1.0  0.27584  0.42824  0.27151  1.0000
  H   H173      1.0  0.25206  0.47917  0.48522  1.0000
  H   H174      1.0  0.44564  0.40331  0.49933  1.0000
  C   C116      1.0  0.22500  0.43740  0.18408  1.0000
  H   H175      1.0  0.42199  0.42863  0.54912  1.0000
  C   C117      1.0  0.42935  0.40901  0.55421  1.0000
  C   C118      1.0  0.45394  0.36988  0.53314  1.0000
  C   C119      1.0  0.35047  0.41459  0.13583  1.0000
  H   H176      1.0  0.17884  0.48892  0.27084  1.0000
  C   C120      1.0  0.17812  0.46804  0.26428  1.0000
  C   C121      1.0  0.34505  0.57089  0.53232  1.0000
  H   H177      1.0  0.38219  0.54393  0.32292  1.0000
  H   H178      1.0  0.45783  0.33933  0.57296  1.0000
  H   H179      1.0  0.31479  0.45474  0.14825  1.0000
  H   H180      1.0  0.54656  0.45510  0.59244  1.0000
  C   C122      1.0  0.63952  0.35327  0.59724  1.0000
  H   H181      1.0  0.23336  0.58615  0.30231  1.0000
  S   S47       1.0  0.33987  0.34747  0.12272  1.0000
  H   H182      1.0  0.33063  0.58014  0.32086  1.0000
  S   S48       1.0  0.58730  0.38009  0.60288  1.0000
  N   N10       1.0  0.36265  0.57073  0.36081  1.0000
  H   H183      1.0  0.36986  0.40179  0.14011  1.0000
  H   H184      1.0  0.16492  0.34979  0.12430  1.0000
  H   H185      1.0  0.19610  0.35821  0.14920  1.0000
  N   N11       1.0  0.51245  0.42802  0.60415  1.0000
  H   H186      1.0  0.39980  0.56849  0.39531  1.0000
  H   H187      1.0  0.40726  0.58122  0.35045  1.0000
  H   H188      1.0  0.16241  0.47668  0.33326  1.0000
  H   H189      1.0  0.36705  0.57300  0.59866  1.0000
  H   H190      1.0  0.32823  0.57657  0.60272  1.0000
  C   C123      1.0  0.17679  0.33957  0.21392  1.0000
  H   H191      1.0  0.20037  0.34441  0.21346  1.0000
  H   H192      1.0  0.33614  0.40426  0.11712  1.0000
  H   H193      1.0  0.35791  0.43246  0.12161  1.0000
  H   H194      1.0  0.16440  0.35683  0.22406  1.0000
  C   C124      1.0  0.39074  0.58070  0.37306  1.0000
  H   H195      1.0  0.50070  0.41823  0.65949  1.0000
  C   C125      1.0  0.42254  0.56703  0.62504  1.0000
  C   C126      1.0  0.23713  0.40736  0.85213  1.0000
  H   H196      1.0  0.28490  0.39388  0.81352  1.0000
  H   H197      1.0  0.23482  0.41569  0.00773  1.0000
  H   H198      1.0  0.27737  0.35998  0.81092  1.0000
  Fe  Fe24      1.0  0.27363  0.37438  0.02285  1.0000
  H   H199      1.0  0.25345  0.38356  0.79039  1.0000
  H   H200      1.0  0.30036  0.56464  0.72946  1.0000
  N   N12       1.0  0.24976  0.38106  0.84864  1.0000
  S   S49       1.0  0.22748  0.36615  0.03954  1.0000
  S   S50       1.0  0.41686  0.41748  0.62658  1.0000
  H   H201      1.0  0.21250  0.36294  0.87383  1.0000
  H   H202      1.0  0.24118  0.56005  0.86644  1.0000
  H   H203      1.0  0.27847  0.35558  0.87826  1.0000
  H   H204      1.0  0.23471  0.34207  0.84568  1.0000
  C   C127      1.0  0.22598  0.36215  0.84830  1.0000
  H   H205      1.0  0.26365  0.52986  0.73258  1.0000
  S   S51       1.0  0.28579  0.39372  0.96999  1.0000
  H   H206      1.0  0.52224  0.39406  0.63605  1.0000
  H   H207      1.0  0.43542  0.36481  0.62283  1.0000
  C   C128      1.0  0.26243  0.41988  0.95995  1.0000
  S   S52       1.0  0.36446  0.47241  0.65327  1.0000
  Fe  Fe25      1.0  0.22303  0.52865  0.80537  1.0000
  S   S53       1.0  0.20704  0.50335  0.76161  1.0000
  H   H208      1.0  0.22226  0.41209  0.82948  1.0000
  Fe  Fe26      1.0  0.20434  0.49177  0.86578  1.0000
  H   H209      1.0  0.33867  0.55637  0.72592  1.0000
  C   C129      1.0  0.26737  0.43412  0.92802  1.0000
  Fe  Fe27      1.0  0.22738  0.47119  0.79398  1.0000
  S   S54       1.0  0.25499  0.43917  0.77020  1.0000
  N   N13       1.0  0.30991  0.52394  0.72574  1.0000
  S   S55       1.0  0.24675  0.49710  0.83497  1.0000
  H   H210      1.0  0.19995  0.45026  0.98954  1.0000
  S   S56       1.0  0.19729  0.48234  0.92500  1.0000
  H   H211      1.0  0.30320  0.50409  0.67591  1.0000
  H   H212      1.0  0.32764  0.48531  0.72899  1.0000
  H   H213      1.0  0.22454  0.40967  0.87813  1.0000
  C   C130      1.0  0.21861  0.44567  0.97217  1.0000
  S   S57       1.0  0.18224  0.52592  0.83977  1.0000
  H   H214      1.0  0.28698  0.38916  0.88086  1.0000
  H   H215      1.0  0.16628  0.55775  0.90804  1.0000
  S   S58       1.0  0.28481  0.39212  0.07558  1.0000
  C   C131      1.0  0.26715  0.37943  0.81441  1.0000
  H   H216      1.0  0.27555  0.49669  0.73442  1.0000
  H   H217      1.0  0.55787  0.42682  0.61714  1.0000
  C   C132      1.0  0.22300  0.45916  0.93940  1.0000
  H   H218      1.0  0.33414  0.50488  0.76780  1.0000
  C   C133      1.0  0.33252  0.50527  0.73772  1.0000
  C   C134      1.0  0.27580  0.45960  0.65215  1.0000
  C   C135      1.0  0.29571  0.44503  0.67237  1.0000
  C   C136      1.0  0.28869  0.43762  0.70820  1.0000
  C   C137      1.0  0.26170  0.44474  0.72378  1.0000
  C   C138      1.0  0.24110  0.45790  0.70279  1.0000
  C   C139      1.0  0.24817  0.46540  0.66700  1.0000
  H   H219      1.0  0.28150  0.51752  0.77199  1.0000
  H   H220      1.0  0.21977  0.46246  0.71417  1.0000
  H   H221      1.0  0.23254  0.47639  0.65130  1.0000
  H   H222      1.0  0.31658  0.43948  0.66049  1.0000
  H   H223      1.0  0.28649  0.43012  0.91118  1.0000
  C   C140      1.0  0.30832  0.52366  0.68576  1.0000
  C   C141      1.0  0.31724  0.55016  0.73767  1.0000
  C   C142      1.0  0.24758  0.45352  0.91765  1.0000
  H   H224      1.0  0.25152  0.46415  0.89286  1.0000
  C   C143      1.0  0.26870  0.37534  0.87970  1.0000
  C   C144      1.0  0.28141  0.51663  0.74186  1.0000
  H   H225      1.0  0.35441  0.51024  0.72615  1.0000
  C   C145      1.0  0.40454  0.56874  0.65615  1.0000
  S   S59       1.0  0.18715  0.46305  0.82734  1.0000
  S   S60       1.0  0.38985  0.54087  0.67627  1.0000
  S   S61       1.0  0.24364  0.56597  0.78855  1.0000
  Fe  Fe28      1.0  0.38414  0.50977  0.63542  1.0000
  Fe  Fe29      1.0  0.24015  0.38029  0.09402  1.0000
  H   H226      1.0  0.29111  0.53719  0.67585  1.0000
  H   H227      1.0  0.32938  0.52936  0.67271  1.0000
  H   H228      1.0  0.21121  0.36596  0.82522  1.0000
  C   C146      1.0  0.23831  0.42600  0.98242  1.0000
  H   H229      1.0  0.53686  0.45148  0.63987  1.0000
  H   H230      1.0  0.31849  0.55105  0.76776  1.0000
  Fe  Fe30      1.0  0.16829  0.49758  0.79856  1.0000
  H   H231      1.0  0.25443  0.42222  0.85126  1.0000
  H   H232      1.0  0.30454  0.42709  0.72414  1.0000
  H   H233      1.0  0.25633  0.37667  0.90602  1.0000
  H   H234      1.0  0.42898  0.54835  0.61455  1.0000
  Fe  Fe31      1.0  0.29838  0.35200  0.09198  1.0000
  H   H235      1.0  0.63072  0.41689  0.61733  1.0000
  C   C147      1.0  0.50462  0.40892  0.63275  1.0000
  C   C148      1.0  0.64163  0.39860  0.61210  1.0000
  H   H236      1.0  0.48381  0.45715  0.62719  1.0000
  H   H237      1.0  0.48433  0.39862  0.62620  1.0000
  C   C149      1.0  0.23811  0.58028  0.85964  1.0000
  Fe  Fe32      1.0  0.39491  0.45481  0.61167  1.0000
  C   C150      1.0  0.53961  0.44099  0.61383  1.0000
  S   S62       1.0  0.28614  0.47260  0.60971  1.0000
  H   H238      1.0  0.38822  0.60071  0.38344  1.0000
  H   H239      1.0  0.23972  0.60946  0.33687  1.0000
  Fe  Fe33      1.0  0.29784  0.67261  0.27976  1.0000
  S   S63       1.0  0.28487  0.66424  0.33763  1.0000
  S   S64       1.0  0.27954  0.64987  0.23449  1.0000
  H   H240      1.0  0.39193  0.74569  0.50212  1.0000
  C   C151      1.0  0.33355  0.74111  0.49599  1.0000
  C   C152      1.0  0.19082  0.70739  0.35848  1.0000
  Fe  Fe34      1.0  0.33186  0.67084  0.34894  1.0000
  S   S65       1.0  0.35489  0.64691  0.39053  1.0000
  Fe  Fe35      1.0  0.28088  0.70715  0.34296  1.0000
  S   S66       1.0  0.34558  0.67505  0.29045  1.0000
  S   S67       1.0  0.28876  0.71498  0.28374  1.0000
  C   C153      1.0  0.35147  0.58744  0.33134  1.0000
  S   S68       1.0  0.30344  0.68451  0.54089  1.0000
  H   H241      1.0  0.19831  0.64610  0.41945  1.0000
  C   C154      1.0  0.21623  0.70300  0.37787  1.0000
  C   C155      1.0  0.43937  0.80561  0.59051  1.0000
  H   H242      1.0  0.17977  0.59111  0.31709  1.0000
  C   C156      1.0  0.41959  0.78706  0.60308  1.0000
  C   C157      1.0  0.34350  0.59553  0.23984  1.0000
  H   H243      1.0  0.44395  0.80782  0.56170  1.0000
  S   S69       1.0  0.30322  0.82691  0.12604  1.0000
  C   C158      1.0  0.17070  0.66776  0.38315  1.0000
  H   H244      1.0  0.39773  0.76292  0.46014  1.0000
  H   H245      1.0  0.23909  0.67713  0.41401  1.0000
  H   H246      1.0  0.32285  0.75356  0.42678  1.0000
  C   C159      1.0  0.33972  0.65537  0.43274  1.0000
  C   C160      1.0  0.35641  0.65288  0.46380  1.0000
  C   C161      1.0  0.34520  0.66175  0.49714  1.0000
  C   C162      1.0  0.31712  0.67256  0.49962  1.0000
  C   C163      1.0  0.30010  0.67435  0.46875  1.0000
  C   C164      1.0  0.31151  0.66601  0.43525  1.0000
  H   H247      1.0  0.26469  0.70703  0.15909  1.0000
  C   C165      1.0  0.28449  0.70542  0.17589  1.0000
  H   H248      1.0  0.27835  0.68274  0.47053  1.0000
  H   H249      1.0  0.29850  0.66811  0.41142  1.0000
  H   H250      1.0  0.32948  0.73892  0.11853  1.0000
  C   C166      1.0  0.29868  0.62035  0.23201  1.0000
  C   C167      1.0  0.32896  0.61939  0.23583  1.0000
  S   S70       1.0  0.27585  0.83625  0.22808  1.0000
  S   S71       1.0  0.40376  0.76668  0.57191  1.0000
  H   H251      1.0  0.34119  0.63701  0.23591  1.0000
  H   H252      1.0  0.19006  0.71478  0.45337  1.0000
  C   C168      1.0  0.21926  0.68062  0.39925  1.0000
  H   H253      1.0  0.32575  0.70441  0.12210  1.0000
  H   H254      1.0  0.18875  0.72443  0.34133  1.0000
  Fe  Fe36      1.0  0.33955  0.69202  0.57914  1.0000
  S   S72       1.0  0.38509  0.69804  0.55827  1.0000
  H   H255      1.0  0.30147  0.60223  0.55814  1.0000
  H   H256      1.0  0.34236  0.70336  0.18528  1.0000
  N   N14       1.0  0.35544  0.74572  0.46660  1.0000
  H   H257      1.0  0.37757  0.62521  0.56083  1.0000
  Fe  Fe37      1.0  0.39851  0.67320  0.60511  1.0000
  S   S73       1.0  0.23333  0.81755  0.14313  1.0000
  H   H258      1.0  0.35818  0.65993  0.52099  1.0000
  H   H259      1.0  0.17027  0.81945  0.20655  1.0000
  C   C169      1.0  0.16827  0.68958  0.36069  1.0000
  H   H260      1.0  0.31999  0.61670  0.51991  1.0000
  H   H261      1.0  0.19979  0.59545  0.25389  1.0000
  H   H262      1.0  0.37497  0.77665  0.49562  1.0000
  H   H263      1.0  0.27725  0.70667  0.20484  1.0000
  H   H264      1.0  0.49909  0.74469  0.59434  1.0000
  C   C170      1.0  0.38110  0.75834  0.48163  1.0000
  H   H265      1.0  0.27218  0.75423  0.15587  1.0000
  N   N15       1.0  0.30571  0.72569  0.16609  1.0000
  C   C171      1.0  0.20168  0.61648  0.25920  1.0000
  C   C172      1.0  0.32219  0.61144  0.54907  1.0000
  H   H266      1.0  0.25417  0.61448  0.29185  1.0000
  C   C173      1.0  0.33166  0.72262  0.18884  1.0000
  C   C174      1.0  0.36462  0.72084  0.45046  1.0000
  H   H267      1.0  0.18773  0.61498  0.35021  1.0000
  H   H268      1.0  0.32613  0.75946  0.50888  1.0000
  S   S74       1.0  0.24419  0.72536  0.37475  1.0000
  H   H269      1.0  0.33692  0.59042  0.40167  1.0000
  H   H270      1.0  0.34257  0.72860  0.51786  1.0000
  H   H271      1.0  0.36732  0.58833  0.30809  1.0000
  N   N16       1.0  0.34761  0.59410  0.55484  1.0000
  C   C175      1.0  0.19633  0.66304  0.40215  1.0000
  H   H272      1.0  0.19154  0.66039  0.29694  1.0000
  N   N17       1.0  0.20799  0.62124  0.29767  1.0000
  H   H273      1.0  0.33564  0.78160  0.44947  1.0000
  C   C176      1.0  0.34247  0.76251  0.43833  1.0000
  C   C177      1.0  0.31451  0.72323  0.12742  1.0000
  H   H274      1.0  0.49790  0.77758  0.60920  1.0000
  H   H275      1.0  0.37835  0.64495  0.46183  1.0000
  C   C178      1.0  0.18349  0.61207  0.32095  1.0000
  S   S75       1.0  0.32701  0.71333  0.35844  1.0000
  Fe  Fe38      1.0  0.33574  0.71704  0.29865  1.0000
  H   H276      1.0  0.18461  0.70741  0.50078  1.0000
  H   H277      1.0  0.21785  0.65340  0.33115  1.0000
  C   C179      1.0  0.29215  0.75142  0.17217  1.0000
  H   H278      1.0  0.31399  0.73128  0.48581  1.0000
  S   S76       1.0  0.36337  0.74688  0.27110  1.0000
  C   C180      1.0  0.23499  0.60719  0.30763  1.0000
  C   C181      1.0  0.28326  0.59740  0.22998  1.0000
  Fe  Fe39      1.0  0.38548  0.73068  0.59714  1.0000
  H   H279      1.0  0.22953  0.65690  0.28477  1.0000
  H   H280      1.0  0.32400  0.62972  0.56442  1.0000
  H   H281      1.0  0.46954  0.83488  0.60530  1.0000
  H   H282      1.0  0.32862  0.81680  0.19293  1.0000
  H   H283      1.0  0.35822  0.76604  0.41539  1.0000
  C   C182      1.0  0.21183  0.64921  0.30286  1.0000
  H   H284      1.0  0.28591  0.75424  0.20128  1.0000
  C   C183      1.0  0.34849  0.58647  0.59356  1.0000
  C   C184      1.0  0.34499  0.78688  0.22814  1.0000
  H   H285      1.0  0.37520  0.61331  0.51535  1.0000
  C   C185      1.0  0.31582  0.77827  0.28244  1.0000
  H   H286      1.0  0.30731  0.76717  0.16414  1.0000
  H   H287      1.0  0.38112  0.72351  0.42814  1.0000
  H   H288      1.0  0.34816  0.73761  0.18232  1.0000
  H   H289      1.0  0.36387  0.78260  0.21096  1.0000
  C   C186      1.0  0.30049  0.81163  0.23998  1.0000
  C   C187      1.0  0.29625  0.79802  0.27262  1.0000
  H   H290      1.0  0.34581  0.71080  0.43888  1.0000
  H   H291      1.0  0.27751  0.80241  0.29001  1.0000
  H   H292      1.0  0.29408  0.68572  0.17196  1.0000
  C   C188      1.0  0.37479  0.60753  0.54447  1.0000
  H   H293      1.0  0.37440  0.70763  0.47106  1.0000
  H   H294      1.0  0.36684  0.59486  0.24335  1.0000
  C   C189      1.0  0.32489  0.80607  0.21777  1.0000
  C   C190      1.0  0.34017  0.77271  0.26019  1.0000
  H   H295      1.0  0.18090  0.62606  0.25118  1.0000
  H   H296      1.0  0.31213  0.76744  0.30738  1.0000
  C   C191      1.0  0.43208  0.58959  0.60729  1.0000
  H   H297      1.0  0.16280  0.62260  0.31483  1.0000
  C   C192      1.0  0.17958  0.72184  0.47908  1.0000
  H   H298      1.0  0.44582  0.58824  0.58309  1.0000
  H   H299      1.0  0.19039  0.74017  0.48596  1.0000
  H   H300      1.0  0.32579  0.72444  0.21813  1.0000
  H   H301      1.0  0.34739  0.60756  0.34046  1.0000
  H   H302      1.0  0.21928  0.62405  0.24084  1.0000
  H   H303      1.0  0.26003  0.59785  0.22597  1.0000
  S   S77       1.0  0.43156  0.64168  0.59468  1.0000
  H   H304      1.0  0.39434  0.59499  0.54891  1.0000
  H   H305      1.0  0.29528  0.72443  0.10959  1.0000
  Fe  Fe40      1.0  0.35629  0.69945  0.65685  1.0000
  S   S78       1.0  0.34182  0.69612  0.71528  1.0000
  C   C193      1.0  0.40535  0.61552  0.65141  1.0000
  H   H306      1.0  0.31417  0.70412  0.82605  1.0000
  Fe  Fe41      1.0  0.21098  0.68581  0.88932  1.0000
  S   S79       1.0  0.53424  0.82361  0.61920  1.0000
  S   S80       1.0  0.21857  0.64629  0.91280  1.0000
  H   H307      1.0  0.30469  0.67381  0.77029  1.0000
  C   C194      1.0  0.23927  0.58850  0.82333  1.0000
  Fe  Fe42      1.0  0.20815  0.71718  0.82001  1.0000
  S   S81       1.0  0.21078  0.71872  0.75916  1.0000
  H   H308      1.0  0.23218  0.59193  0.91533  1.0000
  S   S82       1.0  0.24507  0.70711  0.85677  1.0000
  H   H309      1.0  0.25215  0.72989  0.95969  1.0000
  H   H310      1.0  0.25315  0.68266  0.78790  1.0000
  C   C195      1.0  0.23560  0.61471  0.81467  1.0000
  C   C196      1.0  0.22971  0.63261  0.84221  1.0000
  C   C197      1.0  0.22821  0.62440  0.87850  1.0000
  S   S83       1.0  0.46831  0.83537  0.68339  1.0000
  H   H311      1.0  0.23653  0.62110  0.78659  1.0000
  H   H312      1.0  0.22611  0.65271  0.83525  1.0000
  H   H313      1.0  0.18040  0.80596  0.92177  1.0000
  S   S84       1.0  0.19858  0.71926  0.92492  1.0000
  H   H314      1.0  0.31169  0.77280  0.85471  1.0000
  C   C198      1.0  0.30052  0.74867  0.79316  1.0000
  S   S85       1.0  0.19559  0.75354  0.84905  1.0000
  H   H315      1.0  0.33729  0.74943  0.87218  1.0000
  C   C199      1.0  0.30399  0.69867  0.72299  1.0000
  C   C200      1.0  0.29162  0.68677  0.75387  1.0000
  C   C201      1.0  0.26251  0.69194  0.76405  1.0000
  C   C202      1.0  0.24567  0.70911  0.74345  1.0000
  C   C203      1.0  0.25750  0.71990  0.71141  1.0000
  C   C204      1.0  0.28669  0.71470  0.70117  1.0000
  Fe  Fe43      1.0  0.22956  0.74134  0.88866  1.0000
  H   H316      1.0  0.29611  0.72404  0.67738  1.0000
  H   H317      1.0  0.39864  0.63421  0.66171  1.0000
  H   H318      1.0  0.24447  0.73309  0.69530  1.0000
  S   S86       1.0  0.33862  0.72680  0.61468  1.0000
  C   C205      1.0  0.53891  0.74998  0.64569  1.0000
  N   N18       1.0  0.17759  0.79765  0.97917  1.0000
  H   H319      1.0  0.25515  0.72898  0.02675  1.0000
  H   H320      1.0  0.17885  0.58661  0.85664  1.0000
  C   C206      1.0  0.31851  0.75207  0.85389  1.0000
  H   H321      1.0  0.28121  0.73746  0.80252  1.0000
  C   C207      1.0  0.33319  0.71587  0.81697  1.0000
  C   C208      1.0  0.25914  0.74681  0.97369  1.0000
  C   C209      1.0  0.26121  0.74619  0.01161  1.0000
  H   H322      1.0  0.30015  0.74073  0.86584  1.0000
  H   H323      1.0  0.29388  0.76942  0.79296  1.0000
  H   H324      1.0  0.42338  0.79775  0.69382  1.0000
  H   H325      1.0  0.35143  0.71132  0.83547  1.0000
  H   H326      1.0  0.30553  0.74314  0.76458  1.0000
  N   N19       1.0  0.32582  0.74375  0.81653  1.0000
  H   H327      1.0  0.39837  0.76994  0.65010  1.0000
  H   H328      1.0  0.34008  0.70912  0.78951  1.0000
  H   H329      1.0  0.47418  0.76765  0.68564  1.0000
  H   H330      1.0  0.18513  0.81597  0.09224  1.0000
  H   H331      1.0  0.18501  0.78580  0.03441  1.0000
  H   H332      1.0  0.37064  0.75503  0.81890  1.0000
  H   H333      1.0  0.21656  0.79762  0.01050  1.0000
  Fe  Fe44      1.0  0.26586  0.80895  0.09839  1.0000
  C   C210      1.0  0.19370  0.79752  0.94395  1.0000
  C   C211      1.0  0.23297  0.59830  0.88725  1.0000
  C   C212      1.0  0.35107  0.75836  0.80209  1.0000
  C   C213      1.0  0.19635  0.78631  0.00747  1.0000
  H   H334      1.0  0.38260  0.59438  0.69385  1.0000
  C   C214      1.0  0.27632  0.79074  0.97233  1.0000
  C   C215      1.0  0.39645  0.59299  0.66974  1.0000
  S   S87       1.0  0.26841  0.76845  0.07752  1.0000
  C   C216      1.0  0.27839  0.79011  0.01021  1.0000
  H   H335      1.0  0.28212  0.80804  0.95724  1.0000
  C   C217      1.0  0.42781  0.79994  0.66499  1.0000
  C   C218      1.0  0.16255  0.82199  0.09046  1.0000
  S   S88       1.0  0.60347  0.80698  0.67227  1.0000
  C   C219      1.0  0.41374  0.78421  0.64034  1.0000
  H   H336      1.0  0.35699  0.75242  0.77382  1.0000
  H   H337      1.0  0.20004  0.77754  0.93592  1.0000
  S   S89       1.0  0.25993  0.77164  0.90745  1.0000
  C   C220      1.0  0.26599  0.76932  0.95415  1.0000
  C   C221      1.0  0.44829  0.81794  0.65242  1.0000
  C   C222      1.0  0.27003  0.76811  0.02997  1.0000
  H   H338      1.0  0.50429  0.78776  0.67341  1.0000
  C   C223      1.0  0.65971  0.80462  0.69384  1.0000
  H   H339      1.0  0.50817  0.71644  0.68712  1.0000
  H   H340      1.0  0.47370  0.72216  0.66600  1.0000
  C   C224      1.0  0.49818  0.76756  0.68049  1.0000
  H   H341      1.0  0.34628  0.77950  0.80144  1.0000
  S   S90       1.0  0.40356  0.70646  0.64257  1.0000
  C   C225      1.0  0.64030  0.81536  0.66896  1.0000
  H   H342      1.0  0.65203  0.79092  0.71417  1.0000
  H   H343      1.0  0.55046  0.74416  0.67080  1.0000
  H   H344      1.0  0.28639  0.80671  0.02408  1.0000
  H   H345      1.0  0.50885  0.76246  0.70645  1.0000
  H   H346      1.0  0.21422  0.80867  0.94510  1.0000
  C   C226      1.0  0.65036  0.83302  0.64262  1.0000
  H   H347      1.0  0.54632  0.73674  0.62366  1.0000
  H   H348      1.0  0.50385  0.70900  0.64003  1.0000
  H   H349      1.0  0.54654  0.76967  0.63813  1.0000
  C   C227      1.0  0.45395  0.82085  0.61517  1.0000
  S   S91       1.0  0.17529  0.69290  0.84981  1.0000
  N   N20       1.0  0.50687  0.74953  0.65126  1.0000
  Fe  Fe45      1.0  0.16600  0.72841  0.88237  1.0000
  H   H350      1.0  0.20312  0.76615  0.00090  1.0000
  H   H351      1.0  0.17798  0.60239  0.92157  1.0000
  C   C228      1.0  0.49780  0.72311  0.66159  1.0000
  C   C229      1.0  0.16956  0.82452  0.98874  1.0000
  C   C230      1.0  0.42291  0.61383  0.61996  1.0000
  S   S92       1.0  0.35272  0.66417  0.62271  1.0000
  H   H352      1.0  0.35125  0.60351  0.61122  1.0000
  C   C231      1.0  0.49249  0.75741  0.61730  1.0000
  H   H353      1.0  0.46833  0.75656  0.62036  1.0000
  C   C232      1.0  0.33521  0.93497  0.15728  1.0000
  C   C233      1.0  0.32259  0.91925  0.13147  1.0000
  H   H354      1.0  0.53228  0.03998  0.22501  1.0000
  H   H355      1.0  0.51164  0.01549  0.27911  1.0000
  H   H356      1.0  0.64627  0.86978  0.40231  1.0000
  S   S93       1.0  0.38118  0.95721  0.19002  1.0000
  C   C234      1.0  0.36543  0.93840  0.15684  1.0000
  N   N21       1.0  0.49762  0.05320  0.26085  1.0000
  S   S94       1.0  0.41262  0.08110  0.16815  1.0000
  H   H357      1.0  0.32152  0.94472  0.17730  1.0000
  H   H358      1.0  0.39499  0.89557  0.26411  1.0000
  H   H359      1.0  0.45444  0.05917  0.24030  1.0000
  Fe  Fe46      1.0  0.62070  0.99382  0.35851  1.0000
  S   S95       1.0  0.62190  0.99007  0.41897  1.0000
  H   H360      1.0  0.36281  0.85368  0.19412  1.0000
  Fe  Fe47      1.0  0.56522  0.96391  0.35383  1.0000
  S   S96       1.0  0.56159  0.95724  0.41401  1.0000
  S   S97       1.0  0.52989  0.94798  0.32025  1.0000
  Fe  Fe48      1.0  0.57406  0.99849  0.41742  1.0000
  S   S98       1.0  0.55269  0.02444  0.45847  1.0000
  Fe  Fe49      1.0  0.60965  0.94917  0.40991  1.0000
  H   H361      1.0  0.62683  0.89073  0.37195  1.0000
  S   S99       1.0  0.57376  0.00632  0.35736  1.0000
  S   S100      1.0  0.61232  0.95183  0.34940  1.0000
  C   C235      1.0  0.49214  0.04387  0.38503  1.0000
  H   H362      1.0  0.56578  0.96815  0.49858  1.0000
  H   H363      1.0  0.50439  0.94531  0.49489  1.0000
  H   H364      1.0  0.53228  0.98403  0.51145  1.0000
  C   C236      1.0  0.51752  0.06590  0.28580  1.0000
  H   H365      1.0  0.51743  0.00992  0.39877  1.0000
  H   H366      1.0  0.40633  0.92867  0.13011  1.0000
  H   H367      1.0  0.35394  0.88600  0.18047  1.0000
  H   H368      1.0  0.47886  0.02742  0.30090  1.0000
  H   H369      1.0  0.57341  0.93750  0.57055  1.0000
  H   H370      1.0  0.49724  0.04204  0.20491  1.0000
  C   C237      1.0  0.51708  0.95047  0.56508  1.0000
  C   C238      1.0  0.47012  0.06838  0.25859  1.0000
  Fe  Fe50      1.0  0.41289  0.98431  0.16302  1.0000
  H   H371      1.0  0.53810  0.93005  0.48112  1.0000
  Fe  Fe51      1.0  0.47493  0.00190  0.15035  1.0000
  H   H372      1.0  0.35939  0.86560  0.29278  1.0000
  S   S101      1.0  0.63345  0.91873  0.44164  1.0000
  H   H373      1.0  0.56889  0.99615  0.21481  1.0000
  H   H374      1.0  0.52603  0.07463  0.46932  1.0000
  C   C239      1.0  0.56424  0.87021  0.49842  1.0000
  C   C240      1.0  0.55903  0.88092  0.46413  1.0000
  C   C241      1.0  0.58090  0.89477  0.44568  1.0000
  C   C242      1.0  0.60808  0.89762  0.46133  1.0000
  C   C243      1.0  0.61416  0.88500  0.49411  1.0000
  C   C244      1.0  0.59216  0.87134  0.51272  1.0000
  H   H375      1.0  0.53764  0.87955  0.45257  1.0000
  H   H376      1.0  0.57649  0.90354  0.41959  1.0000
  H   H377      1.0  0.63545  0.88658  0.50585  1.0000
  H   H378      1.0  0.59676  0.86191  0.53823  1.0000
  C   C245      1.0  0.52889  0.96086  0.27610  1.0000
  C   C246      1.0  0.55239  0.97472  0.26134  1.0000
  C   C247      1.0  0.55073  0.98543  0.22621  1.0000
  C   C248      1.0  0.52539  0.98269  0.20621  1.0000
  C   C249      1.0  0.50202  0.96875  0.22097  1.0000
  C   C250      1.0  0.50386  0.95769  0.25575  1.0000
  H   H379      1.0  0.57183  0.97710  0.27693  1.0000
  H   H380      1.0  0.52220  0.08605  0.27689  1.0000
  H   H381      1.0  0.48251  0.96635  0.20554  1.0000
  H   H382      1.0  0.48571  0.94694  0.26711  1.0000
  C   C251      1.0  0.51188  0.02959  0.40602  1.0000
  C   C252      1.0  0.52467  0.04087  0.43589  1.0000
  S   S102      1.0  0.44860  0.97142  0.12450  1.0000
  H   H383      1.0  0.47804  0.01600  0.25540  1.0000
  C   C253      1.0  0.56214  0.92907  0.54714  1.0000
  H   H384      1.0  0.59839  0.06160  0.44420  1.0000
  C   C254      1.0  0.48567  0.06961  0.39338  1.0000
  C   C255      1.0  0.38296  0.92628  0.13036  1.0000
  H   H385      1.0  0.49911  0.96387  0.55699  1.0000
  H   H386      1.0  0.64728  0.97134  0.28708  1.0000
  H   H387      1.0  0.36571  0.84184  0.25820  1.0000
  S   S103      1.0  0.52223  0.99796  0.16373  1.0000
  H   H388      1.0  0.51445  0.91410  0.51328  1.0000
  H   H389      1.0  0.55405  0.90979  0.55604  1.0000
  S   S104      1.0  0.53487  0.85807  0.52428  1.0000
  C   C256      1.0  0.33883  0.90294  0.24775  1.0000
  H   H390      1.0  0.52797  0.95885  0.58883  1.0000
  C   C257      1.0  0.64256  0.87414  0.37308  1.0000
  H   H391      1.0  0.57870  0.92580  0.52506  1.0000
  H   H392      1.0  0.48270  0.03521  0.36171  1.0000
  H   H393      1.0  0.34266  0.91944  0.22875  1.0000
  H   H394      1.0  0.47519  0.07540  0.16297  1.0000
  H   H395      1.0  0.39261  0.90368  0.21688  1.0000
  Fe  Fe52      1.0  0.54141  0.85868  0.58439  1.0000
  Fe  Fe53      1.0  0.22535  0.85428  0.11209  1.0000
  S   S105      1.0  0.44072  0.01192  0.19260  1.0000
  C   C258      1.0  0.65258  0.05970  0.41450  1.0000
  H   H396      1.0  0.31525  0.89817  0.24691  1.0000
  C   C259      1.0  0.51163  0.05157  0.22441  1.0000
  N   N22       1.0  0.53802  0.94595  0.53463  1.0000
  C   C260      1.0  0.51650  0.06594  0.44595  1.0000
  C   C261      1.0  0.52302  0.93333  0.50472  1.0000
  C   C262      1.0  0.49128  0.02691  0.27467  1.0000
  C   C263      1.0  0.34978  0.87114  0.20184  1.0000
  H   H397      1.0  0.63178  0.85716  0.36143  1.0000
  C   C264      1.0  0.54984  0.97087  0.52155  1.0000
  N   N23       1.0  0.35751  0.88043  0.23807  1.0000
  H   H398      1.0  0.65345  0.86954  0.30176  1.0000
  H   H399      1.0  0.34337  0.90990  0.27545  1.0000
  C   C265      1.0  0.38845  0.88806  0.23739  1.0000
  H   H400      1.0  0.29920  0.91727  0.13136  1.0000
  Fe  Fe54      1.0  0.42579  0.04102  0.15149  1.0000
  H   H401      1.0  0.32628  0.86616  0.20086  1.0000
  Fe  Fe55      1.0  0.26975  0.83883  0.16800  1.0000
  H   H402      1.0  0.56121  0.98106  0.54337  1.0000
  H   H403      1.0  0.51682  0.07102  0.21311  1.0000
  H   H404      1.0  0.45919  0.07029  0.28581  1.0000
  H   H405      1.0  0.40320  0.87150  0.23040  1.0000
  C   C266      1.0  0.35290  0.85959  0.26529  1.0000
  N   N24       1.0  0.62935  0.07904  0.40705  1.0000
  H   H406      1.0  0.32951  0.85414  0.26727  1.0000
  S   S106      1.0  0.65812  0.01459  0.33209  1.0000
  H   H407      1.0  0.59691  0.05041  0.39851  1.0000
  S   S107      1.0  0.39454  0.01447  0.12562  1.0000
  H   H408      1.0  0.53866  0.05516  0.28766  1.0000
  H   H409      1.0  0.50696  0.93211  0.57450  1.0000
  H   H410      1.0  0.65217  0.05336  0.44345  1.0000
  H   H411      1.0  0.58241  0.08173  0.40982  1.0000
  H   H412      1.0  0.64953  0.90323  0.31222  1.0000
  C   C267      1.0  0.60053  0.06772  0.41522  1.0000
  H   H413      1.0  0.62879  0.07016  0.35022  1.0000
  C   C268      1.0  0.49700  0.08031  0.42464  1.0000
  H   H414      1.0  0.65033  0.04223  0.39768  1.0000
  S   S108      1.0  0.25880  0.87661  0.14125  1.0000
  H   H415      1.0  0.50791  0.06685  0.31375  1.0000
  S   S109      1.0  0.46215  0.03318  0.11117  1.0000
  H   H416      1.0  0.55997  0.99909  0.97986  1.0000
  H   H417      1.0  0.36046  0.92925  0.03501  1.0000
  C   C269      1.0  0.34955  0.97593  0.06535  1.0000
  S   S110      1.0  0.32445  0.88800  0.07203  1.0000
  H   H418      1.0  0.58863  0.89721  0.73117  1.0000
  H   H419      1.0  0.38585  0.95268  0.01793  1.0000
  H   H420      1.0  0.60634  0.90234  0.77342  1.0000
  C   C270      1.0  0.36272  0.94654  0.01706  1.0000
  H   H421      1.0  0.47486  0.06601  0.72423  1.0000
  S   S111      1.0  0.25480  0.84412  0.06498  1.0000
  H   H422      1.0  0.52196  0.02704  0.66190  1.0000
  C   C271      1.0  0.63478  0.86471  0.73649  1.0000
  H   H423      1.0  0.33551  0.99245  0.07437  1.0000
  H   H424      1.0  0.38400  0.90095  0.08436  1.0000
  C   C272      1.0  0.37033  0.91050  0.10461  1.0000
  C   C273      1.0  0.31218  0.95804  0.02868  1.0000
  H   H425      1.0  0.48854  0.04542  0.66612  1.0000
  C   C274      1.0  0.34014  0.90690  0.10520  1.0000
  Fe  Fe56      1.0  0.57299  0.83665  0.64916  1.0000
  H   H426      1.0  0.65829  0.07315  0.82727  1.0000
  H   H427      1.0  0.60816  0.92634  0.73785  1.0000
  H   H428      1.0  0.47325  0.07612  0.99781  1.0000
  C   C275      1.0  0.60847  0.90518  0.74348  1.0000
  H   H429      1.0  0.33043  0.00590  0.01076  1.0000
  H   H430      1.0  0.63712  0.91798  0.68180  1.0000
  H   H431      1.0  0.18927  0.83646  0.99226  1.0000
  S   S112      1.0  0.54732  0.86070  0.68886  1.0000
  S   S113      1.0  0.56751  0.93234  0.66187  1.0000
  C   C276      1.0  0.54265  0.03856  0.72705  1.0000
  H   H432      1.0  0.50727  0.98798  0.98290  1.0000
  H   H433      1.0  0.35855  0.94026  0.98894  1.0000
  H   H434      1.0  0.50570  0.99966  0.71334  1.0000
  Fe  Fe57      1.0  0.52909  0.99607  0.83913  1.0000
  S   S114      1.0  0.52893  0.99713  0.90012  1.0000
  S   S115      1.0  0.50363  0.96832  0.80669  1.0000
  Fe  Fe58      1.0  0.57011  0.04055  0.83006  1.0000
  S   S116      1.0  0.57425  0.04588  0.88979  1.0000
  S   S117      1.0  0.59690  0.06307  0.78951  1.0000
  Fe  Fe59      1.0  0.57697  0.00273  0.89300  1.0000
  S   S118      1.0  0.61008  0.98388  0.92876  1.0000
  Fe  Fe60      1.0  0.52598  0.04014  0.89203  1.0000
  S   S119      1.0  0.49956  0.06705  0.92729  1.0000
  S   S120      1.0  0.57758  0.99793  0.83281  1.0000
  S   S121      1.0  0.52138  0.03856  0.83180  1.0000
  H   H435      1.0  0.54283  0.96628  0.06826  1.0000
  H   H436      1.0  0.49711  0.01361  0.75664  1.0000
  C   C277      1.0  0.62719  0.95583  0.86924  1.0000
  H   H437      1.0  0.63299  0.86063  0.76616  1.0000
  H   H438      1.0  0.54412  0.03569  0.75689  1.0000
  C   C278      1.0  0.56152  0.99233  0.00859  1.0000
  H   H439      1.0  0.60428  0.95373  0.86405  1.0000
  C   C279      1.0  0.47513  0.04892  0.95399  1.0000
  C   C280      1.0  0.46649  0.05744  0.98855  1.0000
  C   C281      1.0  0.45023  0.04125  0.01188  1.0000
  C   C282      1.0  0.44241  0.01674  0.00041  1.0000
  C   C283      1.0  0.44953  0.00892  0.96509  1.0000
  C   C284      1.0  0.46602  0.02495  0.94196  1.0000
  H   H440      1.0  0.55421  0.02192  0.71403  1.0000
  H   H441      1.0  0.44320  0.99008  0.95598  1.0000
  H   H442      1.0  0.47180  0.01867  0.91485  1.0000
  S   S122      1.0  0.42570  0.99479  0.03044  1.0000
  N   N25       1.0  0.51200  0.04072  0.71566  1.0000
  H   H443      1.0  0.55511  0.05628  0.71995  1.0000
  C   C285      1.0  0.51059  0.98129  0.01136  1.0000
  C   C286      1.0  0.54962  0.94231  0.70191  1.0000
  C   C287      1.0  0.55998  0.96349  0.72058  1.0000
  C   C288      1.0  0.54623  0.97123  0.75312  1.0000
  C   C289      1.0  0.52187  0.95806  0.76686  1.0000
  C   C290      1.0  0.51131  0.93709  0.74784  1.0000
  C   C291      1.0  0.52529  0.92909  0.71553  1.0000
  H   H444      1.0  0.57882  0.97372  0.71009  1.0000
  H   H445      1.0  0.55405  0.98777  0.76702  1.0000
  H   H446      1.0  0.49236  0.92692  0.75821  1.0000
  H   H447      1.0  0.51700  0.91282  0.70108  1.0000
  C   C292      1.0  0.64818  0.94705  0.84378  1.0000
  H   H448      1.0  0.30609  0.95132  0.00137  1.0000
  H   H449      1.0  0.49714  0.06127  0.76306  1.0000
  H   H450      1.0  0.44403  0.04768  0.03878  1.0000
  C   C293      1.0  0.63710  0.89703  0.68890  1.0000
  H   H451      1.0  0.30942  0.94137  0.04785  1.0000
  H   H452      1.0  0.48927  0.98341  0.02621  1.0000
  H   H453      1.0  0.64135  0.93887  0.81859  1.0000
  C   C294      1.0  0.51133  0.04383  0.67576  1.0000
  C   C295      1.0  0.53656  0.98710  0.06677  1.0000
  H   H454      1.0  0.34662  0.96012  0.08560  1.0000
  H   H455      1.0  0.36791  0.99714  0.00225  1.0000
  H   H456      1.0  0.51617  0.96032  0.01061  1.0000
  H   H457      1.0  0.61600  0.85539  0.72346  1.0000
  H   H458      1.0  0.56830  0.97161  0.00789  1.0000
  C   C296      1.0  0.34527  0.98961  0.00289  1.0000
  H   H459      1.0  0.54213  0.03567  0.04150  1.0000
  H   H460      1.0  0.37261  0.98204  0.06663  1.0000
  H   H461      1.0  0.52297  0.03135  0.00010  1.0000
  H   H462      1.0  0.50431  0.02737  0.04315  1.0000
  Fe  Fe61      1.0  0.43229  0.00374  0.08905  1.0000
  C   C297      1.0  0.64743  0.02251  0.83065  1.0000
  H   H463      1.0  0.61811  0.88853  0.67537  1.0000
  C   C298      1.0  0.52542  0.02385  0.02836  1.0000
  H   H464      1.0  0.57945  0.00316  0.02096  1.0000
  H   H465      1.0  0.55341  0.99807  0.08110  1.0000
  C   C299      1.0  0.49623  0.01711  0.72676  1.0000
  C   C300      1.0  0.49779  0.06339  0.73297  1.0000
  H   H466      1.0  0.50961  0.08151  0.72610  1.0000
  N   N26       1.0  0.53355  0.99613  0.02879  1.0000
  H   H467      1.0  0.34015  0.98402  0.97474  1.0000
  H   H468      1.0  0.65499  0.85486  0.72605  1.0000
  H   H469      1.0  0.51574  0.98958  0.08266  1.0000
  H   H470      1.0  0.47280  0.01835  0.71969  1.0000
  C   C301      1.0  0.63585  0.96773  0.90102  1.0000
  H   H471      1.0  0.63259  0.03416  0.84852  1.0000
  N   N27       1.0  0.63537  0.89275  0.72862  1.0000
  Fe  Fe62      1.0  0.55326  0.89259  0.64788  1.0000
  H   H472      1.0  0.53763  0.08243  0.79284  1.0000
  N   N28       1.0  0.34242  0.96753  0.02848  1.0000
  H   H473      1.0  0.29625  0.97334  0.03725  1.0000
  H   H474      1.0  0.63667  0.02042  0.80414  1.0000
  Fe  Fe63      1.0  0.28940  0.86316  0.09688  1.0000
  Fe  Fe64      1.0  0.50895  0.85019  0.65595  1.0000
  H   H475      1.0  0.64935  0.00293  0.84302  1.0000
  H   H476      1.0  0.63563  0.84089  0.62280  1.0000
  S   S123      1.0  0.51234  0.88446  0.61840  1.0000
  H   H477      1.0  0.65721  0.88800  0.67675  1.0000
  H   H478      1.0  0.52299  0.06151  0.66648  1.0000
  S   S124      1.0  0.58278  0.86959  0.61106  1.0000
  S   S125      1.0  0.18070  0.87106  0.10403  1.0000
  Fe  Fe65      1.0  0.70917  0.14204  0.42617  1.0000
  S   S126      1.0  0.73163  0.12003  0.47024  1.0000
  S   S127      1.0  0.90826  0.17781  0.17813  1.0000
  Fe  Fe66      1.0  0.75690  0.13049  0.37020  1.0000
  S   S128      1.0  0.78431  0.10855  0.40988  1.0000
  S   S129      1.0  0.76811  0.13698  0.31131  1.0000
  S   S130      1.0  0.84903  0.22005  0.13686  1.0000
  H   H479      1.0  0.83102  0.20971  0.43860  1.0000
  Fe  Fe67      1.0  0.77148  0.14028  0.44864  1.0000
  S   S131      1.0  0.80119  0.16427  0.48185  1.0000
  S   S132      1.0  0.71521  0.11075  0.38522  1.0000
  S   S133      1.0  0.74810  0.16387  0.40695  1.0000
  H   H480      1.0  0.87996  0.19635  0.35837  1.0000
  S   S134      1.0  0.76427  0.30863  0.56859  1.0000
  S   S135      1.0  0.90216  0.14977  0.27682  1.0000
  C   C302      1.0  0.96469  0.12857  0.20708  1.0000
  H   H481      1.0  0.86386  0.22728  0.36852  1.0000
  H   H482      1.0  0.81752  0.21447  0.33965  1.0000
  C   C303      1.0  0.99617  0.26770  0.15416  1.0000
  H   H483      1.0  0.79497  0.08666  0.27273  1.0000
  H   H484      1.0  0.85599  0.15663  0.37902  1.0000
  H   H485      1.0  0.90863  0.29456  0.20050  1.0000
  S   S136      1.0  0.88123  0.21951  0.23747  1.0000
  H   H486      1.0  0.90683  0.09430  0.17955  1.0000
  C   C304      1.0  0.98639  0.16569  0.11442  1.0000
  H   H487      1.0  0.82086  0.15799  0.40164  1.0000
  C   C305      1.0  0.93679  0.32386  0.17771  1.0000
  H   H488      1.0  0.69032  0.26944  0.51216  1.0000
  H   H489      1.0  0.80084  0.18449  0.35289  1.0000
  H   H490      1.0  0.99359  0.24719  0.16293  1.0000
  C   C306      1.0  0.74623  0.21895  0.55325  1.0000
  C   C307      1.0  0.73412  0.19666  0.53944  1.0000
  C   C308      1.0  0.75103  0.18007  0.51761  1.0000
  C   C309      1.0  0.78045  0.18504  0.51029  1.0000
  C   C310      1.0  0.79293  0.20697  0.52510  1.0000
  C   C311      1.0  0.77575  0.22408  0.54633  1.0000
  H   H491      1.0  0.71142  0.19241  0.54491  1.0000
  H   H492      1.0  0.74116  0.16334  0.50670  1.0000
  H   H493      1.0  0.81571  0.21098  0.51967  1.0000
  H   H494      1.0  0.78527  0.24135  0.55686  1.0000
  C   C312      1.0  0.80539  0.13867  0.30047  1.0000
  C   C313      1.0  0.81452  0.15259  0.26958  1.0000
  C   C314      1.0  0.84433  0.15561  0.26174  1.0000
  C   C315      1.0  0.86501  0.14418  0.28436  1.0000
  C   C316      1.0  0.85590  0.12913  0.31421  1.0000
  C   C317      1.0  0.82608  0.12665  0.32255  1.0000
  H   H495      1.0  0.79856  0.16173  0.25223  1.0000
  H   H496      1.0  0.85124  0.16697  0.23833  1.0000
  H   H497      1.0  0.87194  0.12009  0.33152  1.0000
  H   H498      1.0  0.81919  0.11547  0.34599  1.0000
  N   N29       1.0  0.83762  0.19485  0.38470  1.0000
  C   C318      1.0  0.84200  0.16808  0.39809  1.0000
  H   H499      1.0  0.67433  0.22595  0.52936  1.0000
  H   H500      1.0  0.83521  0.18448  0.32862  1.0000
  C   C319      1.0  0.82207  0.19458  0.35003  1.0000
  C   C320      1.0  0.86629  0.20707  0.37880  1.0000
  H   H501      1.0  0.81664  0.22997  0.40300  1.0000
  C   C321      1.0  0.82018  0.20958  0.41186  1.0000
  H   H502      1.0  0.66583  0.25210  0.41968  1.0000
  H   H503      1.0  0.79840  0.20083  0.41680  1.0000
  Fe  Fe68      1.0  0.74179  0.09068  0.42762  1.0000
  Fe  Fe69      1.0  0.88506  0.21602  0.17666  1.0000
  H   H504      1.0  0.87868  0.20756  0.40438  1.0000
  C   C322      1.0  0.98194  0.33012  0.20885  1.0000
  H   H505      1.0  0.68667  0.28104  0.46623  1.0000
  N   N30       1.0  0.99991  0.27003  0.11431  1.0000
  Fe  Fe70      1.0  0.90857  0.18317  0.23812  1.0000
  H   H506      1.0  0.85254  0.16758  0.42502  1.0000
  H   H507      1.0  0.67647  0.15393  0.36366  1.0000
  H   H508      1.0  0.71896  0.23300  0.48872  1.0000
  Fe  Fe71      1.0  0.92434  0.23929  0.23171  1.0000
  H   H509      1.0  0.95277  0.14110  0.22700  1.0000
  H   H510      1.0  0.97652  0.27857  0.16402  1.0000
  C   C323      1.0  0.70403  0.23121  0.46563  1.0000
  C   C324      1.0  0.94415  0.09021  0.23460  1.0000
  C   C325      1.0  0.91969  0.11171  0.18524  1.0000
  H   H511      1.0  0.90639  0.12358  0.20466  1.0000
  C   C326      1.0  0.94749  0.29833  0.23154  1.0000
  S   S137      1.0  0.98901  0.19250  0.14271  1.0000
  H   H512      1.0  0.04578  0.26099  0.11597  1.0000
  C   C327      1.0  0.96506  0.08863  0.17388  1.0000
  N   N31       1.0  0.94842  0.10478  0.20018  1.0000
  Fe  Fe72      1.0  0.94879  0.20125  0.17659  1.0000
  H   H513      1.0  0.93147  0.10183  0.25493  1.0000
  H   H514      1.0  0.68105  0.33314  0.59322  1.0000
  H   H515      1.0  0.98813  0.30643  0.25673  1.0000
  H   H516      1.0  0.12766  0.32142  0.15201  1.0000
  H   H517      1.0  0.92229  0.32878  0.15584  1.0000
  N   N32       1.0  0.67458  0.24144  0.47502  1.0000
  H   H518      1.0  0.93966  0.16372  0.11811  1.0000
  S   S138      1.0  0.93835  0.27374  0.26256  1.0000
  H   H519      1.0  0.98657  0.12413  0.21813  1.0000
  S   S139      1.0  0.95144  0.20319  0.23699  1.0000
  H   H520      1.0  0.96807  0.14023  0.18182  1.0000
  C   C328      1.0  0.97380  0.31132  0.23470  1.0000
  H   H521      1.0  0.71400  0.24187  0.44221  1.0000
  H   H522      1.0  0.70343  0.21040  0.45838  1.0000
  H   H523      1.0  0.92201  0.12279  0.15933  1.0000
  C   C329      1.0  0.67673  0.26834  0.48755  1.0000
  C   C330      1.0  0.92905  0.30451  0.20293  1.0000
  S   S140      1.0  0.92567  0.23935  0.17102  1.0000
  S   S141      1.0  0.72334  0.24057  0.57724  1.0000
  Fe  Fe73      1.0  0.80153  0.30454  0.60671  1.0000
  C   C331      1.0  0.13569  0.32665  0.17914  1.0000
  H   H524      1.0  0.13083  0.31024  0.19795  1.0000
  S   S142      1.0  0.84816  0.31202  0.59134  1.0000
  H   H525      1.0  0.01525  0.27541  0.16837  1.0000
  Fe  Fe74      1.0  0.74637  0.27452  0.59964  1.0000
  S   S143      1.0  0.66842  0.16419  0.44055  1.0000
  C   C332      1.0  0.66129  0.22546  0.50432  1.0000
  H   H526      1.0  0.02372  0.30528  0.11704  1.0000
  H   H527      1.0  0.96884  0.09907  0.14767  1.0000
  H   H528      1.0  0.98501  0.30963  0.11277  1.0000
  Fe  Fe75      1.0  0.76212  0.29485  0.67259  1.0000
  H   H529      1.0  0.87027  0.11358  0.01849  1.0000
  S   S144      1.0  0.75597  0.28810  0.73230  1.0000
  Fe  Fe76      1.0  0.84977  0.16581  0.89466  1.0000
  S   S145      1.0  0.83304  0.18483  0.94538  1.0000
  S   S146      1.0  0.85706  0.12282  0.89847  1.0000
  Fe  Fe77      1.0  0.85441  0.21701  0.85404  1.0000
  S   S147      1.0  0.83844  0.24040  0.90159  1.0000
  S   S148      1.0  0.86704  0.23592  0.80095  1.0000
  Fe  Fe78      1.0  0.86751  0.21402  0.93380  1.0000
  H   H530      1.0  0.72662  0.14446  0.86767  1.0000
  Fe  Fe79      1.0  0.80551  0.20896  0.90834  1.0000
  S   S149      1.0  0.75800  0.21458  0.92259  1.0000
  S   S150      1.0  0.68227  0.21191  0.78208  1.0000
  S   S151      1.0  0.81925  0.18737  0.85829  1.0000
  S   S152      1.0  0.72151  0.29842  0.64061  1.0000
  H   H531      1.0  0.71998  0.13989  0.96765  1.0000
  H   H532      1.0  0.92018  0.16731  0.03506  1.0000
  C   C333      1.0  0.73016  0.22869  0.70169  1.0000
  N   N33       1.0  0.74955  0.20596  0.69615  1.0000
  H   H533      1.0  0.71540  0.17911  0.70896  1.0000
  C   C334      1.0  0.77909  0.21182  0.70866  1.0000
  H   H534      1.0  0.84692  0.30571  0.78609  1.0000
  H   H535      1.0  0.82367  0.13501  0.83455  1.0000
  C   C335      1.0  0.90408  0.22168  0.04923  1.0000
  C   C336      1.0  0.74204  0.10707  0.91725  1.0000
  C   C337      1.0  0.84386  0.22310  0.06289  1.0000
  C   C338      1.0  0.85488  0.22437  0.02701  1.0000
  H   H536      1.0  0.79436  0.19508  0.70513  1.0000
  H   H537      1.0  0.88151  0.16995  0.02929  1.0000
  H   H538      1.0  0.82055  0.22398  0.06816  1.0000
  H   H539      1.0  0.84005  0.22622  0.00472  1.0000
  C   C339      1.0  0.74975  0.21905  0.84945  1.0000
  C   C340      1.0  0.73661  0.21605  0.88378  1.0000
  C   C341      1.0  0.68989  0.21052  0.85559  1.0000
  H   H540      1.0  0.77277  0.22247  0.84702  1.0000
  H   H541      1.0  0.87588  0.32562  0.76876  1.0000
  C   C342      1.0  0.78738  0.27470  0.75142  1.0000
  C   C343      1.0  0.78659  0.26666  0.78777  1.0000
  C   C344      1.0  0.81116  0.25478  0.80294  1.0000
  C   C345      1.0  0.83644  0.25074  0.78179  1.0000
  C   C346      1.0  0.83746  0.25922  0.74558  1.0000
  C   C347      1.0  0.81296  0.27135  0.73045  1.0000
  H   H542      1.0  0.76693  0.26944  0.80419  1.0000
  H   H543      1.0  0.81062  0.24889  0.83112  1.0000
  H   H544      1.0  0.85717  0.25641  0.72927  1.0000
  H   H545      1.0  0.81394  0.27805  0.70257  1.0000
  H   H546      1.0  0.77398  0.13165  0.96510  1.0000
  N   N34       1.0  0.74624  0.13526  0.91892  1.0000
  C   C348      1.0  0.83205  0.10504  0.87409  1.0000
  H   H547      1.0  0.73659  0.18794  0.74676  1.0000
  C   C349      1.0  0.79724  0.10174  0.82585  1.0000
  H   H548      1.0  0.94824  0.13176  0.00607  1.0000
  C   C350      1.0  0.73309  0.21786  0.81819  1.0000
  H   H549      1.0  0.78856  0.22844  0.69335  1.0000
  C   C351      1.0  0.68809  0.32329  0.74359  1.0000
  C   C352      1.0  0.90714  0.32571  0.82896  1.0000
  S   S153      1.0  0.78198  0.33044  0.64907  1.0000
  H   H550      1.0  0.88330  0.29266  0.78204  1.0000
  H   H551      1.0  0.72901  0.19550  0.64657  1.0000
  H   H552      1.0  0.89622  0.14396  0.05589  1.0000
  C   C353      1.0  0.74769  0.14618  0.88169  1.0000
  H   H553      1.0  0.66682  0.20684  0.85822  1.0000
  C   C354      1.0  0.81814  0.11587  0.84405  1.0000
  H   H554      1.0  0.74347  0.22067  0.79189  1.0000
  H   H555      1.0  0.77679  0.16157  0.94044  1.0000
  H   H556      1.0  0.69626  0.20958  0.91339  1.0000
  H   H557      1.0  0.75981  0.21588  0.64040  1.0000
  H   H558      1.0  0.70746  0.22474  0.69363  1.0000
  H   H559      1.0  0.72430  0.16877  0.94089  1.0000
  H   H560      1.0  0.02994  0.12367  0.06672  1.0000
  C   C355      1.0  0.70658  0.21197  0.88687  1.0000
  C   C356      1.0  0.14091  0.31884  0.07206  1.0000
  H   H561      1.0  0.88354  0.28004  0.84664  1.0000
  H   H562      1.0  0.68966  0.27497  0.71926  1.0000
  H   H563      1.0  0.77877  0.21701  0.73792  1.0000
  C   C357      1.0  0.90011  0.15595  0.03107  1.0000
  C   C358      1.0  0.75099  0.19960  0.65710  1.0000
  C   C359      1.0  0.01177  0.15468  0.09906  1.0000
  C   C360      1.0  0.72162  0.14745  0.93929  1.0000
  H   H564      1.0  0.72923  0.23449  0.73070  1.0000
  H   H565      1.0  0.74054  0.09821  0.94490  1.0000
  C   C361      1.0  0.95798  0.13176  0.08839  1.0000
  H   H566      1.0  0.00722  0.30000  0.07429  1.0000
  H   H567      1.0  0.75184  0.16618  0.71355  1.0000
  C   C362      1.0  0.73788  0.18377  0.71720  1.0000
  H   H568      1.0  0.93064  0.10987  0.97659  1.0000
  H   H569      1.0  0.69775  0.27418  0.76664  1.0000
  H   H570      1.0  0.96988  0.23970  0.10377  1.0000
  H   H571      1.0  0.76530  0.18245  0.65179  1.0000
  N   N35       1.0  0.66616  0.30320  0.75116  1.0000
  S   S154      1.0  0.88647  0.19326  0.88556  1.0000
  C   C363      1.0  0.88503  0.22399  0.02024  1.0000
  H   H572      1.0  0.73790  0.24562  0.68553  1.0000
  H   H573      1.0  0.72184  0.10244  0.90273  1.0000
  S   S155      1.0  0.78554  0.26824  0.63392  1.0000
  H   H574      1.0  0.78641  0.11020  0.80269  1.0000
  S   S156      1.0  0.89944  0.22517  0.97576  1.0000
  C   C364      1.0  0.70314  0.21350  0.82120  1.0000
  H   H575      1.0  0.91218  0.33257  0.85662  1.0000
  C   C365      1.0  0.67993  0.27739  0.74696  1.0000
  H   H576      1.0  0.84653  0.29124  0.85057  1.0000
  Fe  Fe80      1.0  0.74335  0.33196  0.61329  1.0000
  H   H577      1.0  0.76483  0.13645  0.86488  1.0000
  C   C366      1.0  0.13969  0.27255  0.08109  1.0000
  C   C367      1.0  0.02575  0.25467  0.10236  1.0000
  H   H578      1.0  0.75325  0.16692  0.88183  1.0000
  H   H579      1.0  0.92187  0.30898  0.82276  1.0000
  H   H580      1.0  0.87701  0.11228  0.97049  1.0000
  H   H581      1.0  0.92394  0.10793  0.02453  1.0000
  H   H582      1.0  0.87331  0.30309  0.88085  1.0000
  H   H583      1.0  0.66385  0.26179  0.75182  1.0000
  N   N36       1.0  0.90272  0.13996  0.99817  1.0000
  C   C368      1.0  0.12561  0.29670  0.08221  1.0000
  H   H584      1.0  0.92862  0.16756  0.96810  1.0000
  H   H585      1.0  0.85656  0.13881  0.98949  1.0000
  C   C369      1.0  0.86959  0.29741  0.85233  1.0000
  H   H586      1.0  0.69746  0.32173  0.71553  1.0000
  H   H587      1.0  0.70668  0.32143  0.76242  1.0000
  H   H588      1.0  0.93719  0.12310  0.08442  1.0000
  H   H589      1.0  0.12786  0.25533  0.08871  1.0000
  H   H590      1.0  0.79301  0.13269  0.92194  1.0000
  H   H591      1.0  0.76064  0.09741  0.90261  1.0000
  S   S157      1.0  0.08951  0.29914  0.09859  1.0000
  H   H592      1.0  0.70046  0.14418  0.92609  1.0000
  H   H593      1.0  0.92739  0.22100  0.04405  1.0000
  C   C370      1.0  0.92746  0.12158  0.00147  1.0000
  H   H594      1.0  0.90875  0.14560  0.94051  1.0000
  C   C371      1.0  0.89303  0.21970  0.08493  1.0000
  N   N37       1.0  0.87614  0.31872  0.82646  1.0000
  H   H595      1.0  0.97576  0.26184  0.06656  1.0000
  C   C372      1.0  0.77373  0.14045  0.93741  1.0000
  C   C373      1.0  0.90790  0.15679  0.96611  1.0000
  C   C374      1.0  0.87548  0.12555  0.99396  1.0000
  H   H596      1.0  0.89033  0.17154  0.96361  1.0000
  C   C375      1.0  0.87034  0.31035  0.78917  1.0000
  H   H597      1.0  0.02988  0.25663  0.07258  1.0000
  H   H598      1.0  0.95374  0.27149  0.10519  1.0000
  C   C376      1.0  0.00411  0.29744  0.10415  1.0000
  C   C377      1.0  0.97368  0.26037  0.09666  1.0000
  C   C378      1.0  0.98338  0.12045  0.07362  1.0000
  C   C379      1.0  0.01023  0.13222  0.07838  1.0000
  C   C380      1.0  0.86292  0.22096  0.09196  1.0000
  H   H599      1.0  0.67225  0.30412  0.80888  1.0000
  H   H600      1.0  0.03269  0.16329  0.10354  1.0000
  S   S158      1.0  0.98198  0.09182  0.04888  1.0000
  H   H601      1.0  0.90788  0.21721  0.10693  1.0000
  C   C381      1.0  0.95942  0.15462  0.10810  1.0000
  H   H602      1.0  0.02301  0.23377  0.10880  1.0000
  C   C382      1.0  0.99693  0.57258  0.38030  1.0000
  S   S159      1.0  0.97251  0.36061  0.14846  1.0000
  C   C383      1.0  0.83183  0.38149  0.54412  1.0000
  H   H603      1.0  0.91878  0.42072  0.53483  1.0000
  H   H604      1.0  0.13402  0.56407  0.41970  1.0000
  C   C384      1.0  0.67007  0.35134  0.59870  1.0000
  C   C385      1.0  0.85525  0.39623  0.55506  1.0000
  H   H605      1.0  0.81502  0.39019  0.52762  1.0000
  H   H606      1.0  0.94713  0.43884  0.51277  1.0000
  C   C386      1.0  0.87537  0.35856  0.58603  1.0000
  H   H607      1.0  0.08555  0.54523  0.43587  1.0000
  C   C387      1.0  0.12643  0.46766  0.27793  1.0000
  C   C388      1.0  0.87715  0.38467  0.57581  1.0000
  C   C389      1.0  0.14874  0.53341  0.31573  1.0000
  C   C390      1.0  0.93908  0.41895  0.51794  1.0000
  C   C391      1.0  0.14773  0.52066  0.37936  1.0000
  C   C392      1.0  0.07333  0.41241  0.28300  1.0000
  Fe  Fe81      1.0  0.88024  0.45308  0.58268  1.0000
  S   S160      1.0  0.89274  0.54928  0.58635  1.0000
  S   S161      1.0  0.85647  0.42911  0.54295  1.0000
  C   C393      1.0  0.01911  0.43179  0.51264  1.0000
  H   H608      1.0  0.91908  0.44023  0.45668  1.0000
  H   H609      1.0  0.10851  0.45883  0.29439  1.0000
  S   S162      1.0  0.91893  0.47741  0.56866  1.0000
  Fe  Fe82      1.0  0.07827  0.38022  0.17170  1.0000
  H   H610      1.0  0.99262  0.44044  0.18692  1.0000
  H   H611      1.0  0.89581  0.39556  0.58347  1.0000
  H   H612      1.0  0.98909  0.44959  0.25214  1.0000
  H   H613      1.0  0.94249  0.39098  0.25720  1.0000
  Fe  Fe83      1.0  0.07575  0.33946  0.11344  1.0000
  H   H614      1.0  0.81104  0.34452  0.54753  1.0000
  C   C394      1.0  0.82950  0.35565  0.55547  1.0000
  H   H615      1.0  0.13765  0.53633  0.29037  1.0000
  C   C395      1.0  0.96995  0.43673  0.25498  1.0000
  S   S163      1.0  0.09955  0.38909  0.22433  1.0000
  H   H616      1.0  0.97030  0.42821  0.28285  1.0000
  H   H617      1.0  0.89233  0.34965  0.60209  1.0000
  H   H618      1.0  0.03220  0.39473  0.53441  1.0000
  H   H619      1.0  0.95009  0.44922  0.25298  1.0000
  H   H620      1.0  0.12074  0.46621  0.24883  1.0000
  N   N38       1.0  0.97083  0.41655  0.22696  1.0000
  H   H621      1.0  0.99594  0.38935  0.25861  1.0000
  H   H622      1.0  0.01714  0.41100  0.23081  1.0000
  N   N39       1.0  0.93385  0.40553  0.48362  1.0000
  S   S164      1.0  0.04220  0.40420  0.14780  1.0000
  C   C396      1.0  0.92317  0.37925  0.49169  1.0000
  C   C397      1.0  0.96139  0.40382  0.46211  1.0000
  H   H623      1.0  0.93878  0.36800  0.50863  1.0000
  H   H624      1.0  0.90188  0.37987  0.50677  1.0000
  C   C398      1.0  0.97248  0.42887  0.19055  1.0000
  C   C399      1.0  0.99677  0.39973  0.23199  1.0000
  H   H625      1.0  0.99874  0.38502  0.21037  1.0000
  H   H626      1.0  0.97852  0.57299  0.51573  1.0000
  C   C400      1.0  0.07983  0.41403  0.24575  1.0000
  H   H627      1.0  0.79580  0.42268  0.57755  1.0000
  H   H628      1.0  0.08058  0.39576  0.29858  1.0000
  H   H629      1.0  0.97867  0.39321  0.47728  1.0000
  H   H630      1.0  0.89070  0.42171  0.47814  1.0000
  Fe  Fe84      1.0  0.08306  0.49848  0.40982  1.0000
  S   S165      1.0  0.05172  0.52175  0.37676  1.0000
  S   S166      1.0  0.12945  0.50913  0.41828  1.0000
  Fe  Fe85      1.0  0.03734  0.46038  0.43462  1.0000
  S   S167      1.0  0.00145  0.48022  0.40405  1.0000
  C   C401      1.0  0.05348  0.45494  0.24260  1.0000
  Fe  Fe86      1.0  0.03547  0.48330  0.35931  1.0000
  C   C402      1.0  0.91184  0.42018  0.46274  1.0000
  Fe  Fe87      1.0  0.02094  0.51668  0.42425  1.0000
  S   S168      1.0  0.99785  0.55108  0.44858  1.0000
  S   S169      1.0  0.05373  0.49647  0.45898  1.0000
  H   H631      1.0  0.95565  0.40856  0.53447  1.0000
  H   H632      1.0  0.07543  0.43692  0.19692  1.0000
  H   H633      1.0  0.12660  0.48848  0.28474  1.0000
  C   C403      1.0  0.68629  0.37320  0.60633  1.0000
  S   S170      1.0  0.06990  0.46040  0.38824  1.0000
  H   H634      1.0  0.14882  0.42580  0.24499  1.0000
  C   C404      1.0  0.05665  0.43194  0.29998  1.0000
  C   C405      1.0  0.99796  0.57697  0.41759  1.0000
  H   H635      1.0  0.13446  0.57852  0.46348  1.0000
  H   H636      1.0  0.04599  0.47146  0.22692  1.0000
  H   H637      1.0  0.99508  0.55311  0.37040  1.0000
  C   C406      1.0  0.15384  0.42755  0.27431  1.0000
  C   C407      1.0  0.99421  0.46051  0.55520  1.0000
  C   C408      1.0  0.00556  0.45559  0.52019  1.0000
  H   H638      1.0  0.14307  0.44725  0.34127  1.0000
  H   H639      1.0  0.05622  0.56582  0.45100  1.0000
  H   H640      1.0  0.98372  0.47890  0.56093  1.0000
  H   H641      1.0  0.08695  0.55984  0.47939  1.0000
  H   H642      1.0  0.94048  0.56743  0.52381  1.0000
  C   C409      1.0  0.94423  0.40086  0.23025  1.0000
  C   C410      1.0  0.01094  0.41827  0.57533  1.0000
  C   C411      1.0  0.13308  0.52539  0.34699  1.0000
  H   H643      1.0  0.91988  0.36826  0.46641  1.0000
  H   H644      1.0  0.10994  0.52221  0.34569  1.0000
  S   S171      1.0  0.02591  0.47790  0.30037  1.0000
  S   S172      1.0  0.10307  0.37472  0.11921  1.0000
  H   H645      1.0  0.13668  0.41688  0.28991  1.0000
  H   H646      1.0  0.97284  0.41419  0.16868  1.0000
  C   C412      1.0  0.04689  0.45332  0.27983  1.0000
  H   H647      1.0  0.00331  0.47002  0.49894  1.0000
  H   H648      1.0  0.01297  0.40376  0.59654  1.0000
  H   H649      1.0  0.95342  0.44192  0.18587  1.0000
  H   H650      1.0  0.96999  0.42336  0.45545  1.0000
  H   H651      1.0  0.05090  0.43019  0.32850  1.0000
  C   C413      1.0  0.07003  0.43537  0.22559  1.0000
  Fe  Fe88      1.0  0.89701  0.50760  0.60340  1.0000
  Fe  Fe89      1.0  0.02047  0.36637  0.13966  1.0000
  H   H652      1.0  0.94858  0.57701  0.58724  1.0000
  H   H653      1.0  0.94416  0.38557  0.20930  1.0000
  C   C414      1.0  0.99683  0.44181  0.58274  1.0000
  N   N40       1.0  0.15475  0.45489  0.28525  1.0000
  H   H654      1.0  0.12259  0.34362  0.18859  1.0000
  C   C415      1.0  0.08030  0.56319  0.45088  1.0000
  H   H655      1.0  0.95855  0.39368  0.43607  1.0000
  H   H656      1.0  0.92417  0.41288  0.22662  1.0000
  H   H657      1.0  0.90750  0.41074  0.43652  1.0000
  C   C416      1.0  0.02171  0.41313  0.54020  1.0000
  S   S173      1.0  0.03161  0.42459  0.46855  1.0000
  C   C417      1.0  0.85127  0.34414  0.57642  1.0000
  C   C418      1.0  0.12704  0.58144  0.43519  1.0000
  H   H658      1.0  0.09250  0.57112  0.37976  1.0000
  S   S174      1.0  0.05437  0.34303  0.16832  1.0000
  H   H659      1.0  0.78366  0.39181  0.59419  1.0000
  C   C419      1.0  0.78188  0.41302  0.59865  1.0000
  C   C420      1.0  0.95667  0.58263  0.51669  1.0000
  H   H660      1.0  0.75881  0.41878  0.59374  1.0000
  H   H661      1.0  0.00238  0.33980  0.21141  1.0000
  C   C421      1.0  0.96337  0.33649  0.18040  1.0000
  N   N41       1.0  0.09512  0.58558  0.43401  1.0000
  H   H662      1.0  0.98567  0.58609  0.58008  1.0000
  S   S175      1.0  0.72438  0.37179  0.60767  1.0000
  H   H663      1.0  0.92015  0.50481  0.97836  1.0000
  C   C422      1.0  0.92753  0.57720  0.87888  1.0000
  H   H664      1.0  0.94285  0.57095  0.00245  1.0000
  H   H665      1.0  0.77752  0.41125  0.69088  1.0000
  C   C423      1.0  0.11856  0.45510  0.96867  1.0000
  H   H666      1.0  0.91233  0.53371  0.95277  1.0000
  C   C424      1.0  0.09794  0.43168  0.82346  1.0000
  C   C425      1.0  0.67206  0.39680  0.61287  1.0000
  H   H667      1.0  0.82867  0.41593  0.66860  1.0000
  S   S176      1.0  0.90505  0.39589  0.83305  1.0000
  H   H668      1.0  0.74824  0.41193  0.65901  1.0000
  C   C426      1.0  0.82127  0.41141  0.64086  1.0000
  H   H669      1.0  0.07746  0.41807  0.97175  1.0000
  H   H670      1.0  0.85282  0.51931  0.71448  1.0000
  H   H671      1.0  0.00780  0.47488  0.77357  1.0000
  H   H672      1.0  0.77320  0.38520  0.65982  1.0000
  H   H673      1.0  0.86131  0.35755  0.81558  1.0000
  H   H674      1.0  0.07326  0.43769  0.93152  1.0000
  C   C427      1.0  0.77160  0.40651  0.66266  1.0000
  H   H675      1.0  0.96774  0.50175  0.94734  1.0000
  H   H676      1.0  0.00105  0.49380  0.73357  1.0000
  H   H677      1.0  0.85685  0.49809  0.77493  1.0000
  H   H678      1.0  0.96154  0.53108  0.92237  1.0000
  H   H679      1.0  0.84557  0.40974  0.81895  1.0000
  H   H680      1.0  0.68457  0.41372  0.61868  1.0000
  H   H681      1.0  0.06208  0.44656  0.74743  1.0000
  C   C428      1.0  0.03740  0.43623  0.03521  1.0000
  C   C429      1.0  0.89450  0.43972  0.74252  1.0000
  S   S177      1.0  0.84852  0.46445  0.71015  1.0000
  C   C430      1.0  0.88939  0.41372  0.79760  1.0000
  H   H682      1.0  0.92055  0.51421  0.76739  1.0000
  H   H683      1.0  0.91751  0.52938  0.72356  1.0000
  H   H684      1.0  0.13230  0.56203  0.93254  1.0000
  C   C431      1.0  0.85921  0.41792  0.79752  1.0000
  C   C432      1.0  0.84676  0.43355  0.77052  1.0000
  C   C433      1.0  0.13517  0.41081  0.96557  1.0000
  S   S178      1.0  0.91696  0.49422  0.65552  1.0000
  C   C434      1.0  0.86438  0.44441  0.74303  1.0000
  H   H685      1.0  0.79548  0.45382  0.66744  1.0000
  C   C435      1.0  0.85956  0.53761  0.72711  1.0000
  H   H686      1.0  0.89952  0.49932  0.73345  1.0000
  H   H687      1.0  0.82346  0.43721  0.77099  1.0000
  S   S179      1.0  0.89879  0.43556  0.63303  1.0000
  N   N42       1.0  0.87908  0.53259  0.75786  1.0000
  Fe  Fe90      1.0  0.87776  0.46917  0.66113  1.0000
  C   C436      1.0  0.90534  0.51829  0.74490  1.0000
  H   H688      1.0  0.84383  0.52703  0.79666  1.0000
  H   H689      1.0  0.89874  0.56996  0.75273  1.0000
  H   H690      1.0  0.86850  0.56840  0.78442  1.0000
  C   C437      1.0  0.88772  0.55742  0.77345  1.0000
  C   C438      1.0  0.11419  0.45093  0.80561  1.0000
  H   H691      1.0  0.89304  0.55103  0.89355  1.0000
  H   H692      1.0  0.87043  0.54938  0.70539  1.0000
  C   C439      1.0  0.86375  0.51692  0.78596  1.0000
  C   C440      1.0  0.90704  0.42461  0.77010  1.0000
  H   H693      1.0  0.90818  0.44795  0.72119  1.0000
  H   H694      1.0  0.10518  0.47078  0.95618  1.0000
  S   S180      1.0  0.03991  0.35996  0.08417  1.0000
  H   H695      1.0  0.10999  0.45184  0.99690  1.0000
  C   C441      1.0  0.85747  0.34141  0.83530  1.0000
  H   H696      1.0  0.94610  0.57054  0.95395  1.0000
  C   C442      1.0  0.91816  0.58309  0.67850  1.0000
  H   H697      1.0  0.01225  0.41243  0.07234  1.0000
  H   H698      1.0  0.86212  0.34895  0.86270  1.0000
  H   H699      1.0  0.09853  0.58598  0.86880  1.0000
  H   H700      1.0  0.87806  0.51249  0.80929  1.0000
  S   S181      1.0  0.96871  0.40859  0.90168  1.0000
  H   H701      1.0  0.08581  0.40496  0.92784  1.0000
  H   H702      1.0  0.10748  0.41271  0.82794  1.0000
  N   N43       1.0  0.11777  0.43119  0.94729  1.0000
  C   C443      1.0  0.03622  0.45381  0.00615  1.0000
  C   C444      1.0  0.01665  0.47983  0.74602  1.0000
  H   H703      1.0  0.12973  0.41862  0.89352  1.0000
  H   H704      1.0  0.98920  0.52812  0.01585  1.0000
  H   H705      1.0  0.12993  0.33742  0.07174  1.0000
  Fe  Fe91      1.0  0.00373  0.42828  0.86864  1.0000
  S   S182      1.0  0.99611  0.46704  0.89348  1.0000
  Fe  Fe92      1.0  0.95861  0.44830  0.92263  1.0000
  S   S183      1.0  0.95076  0.45488  0.98208  1.0000
  Fe  Fe93      1.0  0.96499  0.47365  0.84844  1.0000
  S   S184      1.0  0.96756  0.51017  0.81542  1.0000
  H   H706      1.0  0.03103  0.43179  0.76913  1.0000
  S   S185      1.0  0.97553  0.43634  0.82113  1.0000
  H   H707      1.0  0.03752  0.49004  0.74962  1.0000
  S   S186      1.0  0.98163  0.44721  0.62613  1.0000
  S   S187      1.0  0.12235  0.50016  0.77957  1.0000
  H   H708      1.0  0.04436  0.42027  0.72603  1.0000
  H   H709      1.0  0.13599  0.44659  0.79557  1.0000
  H   H710      1.0  0.93251  0.57857  0.70065  1.0000
  H   H711      1.0  0.99335  0.52748  0.94945  1.0000
  C   C445      1.0  0.96566  0.55983  0.83911  1.0000
  C   C446      1.0  0.95209  0.53584  0.83985  1.0000
  N   N44       1.0  0.02098  0.45656  0.72360  1.0000
  C   C447      1.0  0.99251  0.44447  0.71779  1.0000
  H   H712      1.0  0.98579  0.56237  0.82363  1.0000
  C   C448      1.0  0.92237  0.52622  0.97806  1.0000
  H   H713      1.0  0.15312  0.44270  0.91150  1.0000
  C   C449      1.0  0.98381  0.44873  0.00379  1.0000
  C   C450      1.0  0.00952  0.45983  0.99023  1.0000
  C   C451      1.0  0.06929  0.43696  0.83522  1.0000
  H   H714      1.0  0.97826  0.56840  0.98061  1.0000
  C   C452      1.0  0.05671  0.46122  0.82814  1.0000
  H   H715      1.0  0.03438  0.46523  0.83588  1.0000
  C   C453      1.0  0.89619  0.57097  0.62207  1.0000
  H   H716      1.0  0.95403  0.53126  0.03821  1.0000
  H   H717      1.0  0.11746  0.45156  0.89607  1.0000
  C   C454      1.0  0.96974  0.52307  0.94840  1.0000
  H   H718      1.0  0.93032  0.42109  0.76985  1.0000
  H   H719      1.0  0.02024  0.47810  0.67336  1.0000
  H   H720      1.0  0.98188  0.43835  0.74380  1.0000
  H   H721      1.0  0.90318  0.55440  0.79596  1.0000
  H   H722      1.0  0.97719  0.45803  0.70395  1.0000
  H   H723      1.0  0.92545  0.54665  0.65245  1.0000
  N   N45       1.0  0.95326  0.53369  0.97992  1.0000
  C   C455      1.0  0.98473  0.43227  0.03414  1.0000
  H   H724      1.0  0.05598  0.46239  0.99547  1.0000
  C   C456      1.0  0.08728  0.42264  0.94453  1.0000
  H   H725      1.0  0.05602  0.47289  0.69142  1.0000
  C   C457      1.0  0.07306  0.48054  0.81085  1.0000
  C   C458      1.0  0.91391  0.56488  0.65143  1.0000
  C   C459      1.0  0.03432  0.46399  0.68815  1.0000
  N   N46       1.0  0.79066  0.41971  0.63564  1.0000
  S   S188      1.0  0.07134  0.42668  0.05219  1.0000
  C   C460      1.0  0.95523  0.56212  0.97927  1.0000
  C   C461      1.0  0.91345  0.55343  0.87863  1.0000
  H   H726      1.0  0.14522  0.58023  0.83521  1.0000
  H   H727      1.0  0.99491  0.42709  0.70043  1.0000
  H   H728      1.0  0.96414  0.50197  0.01555  1.0000
  H   H729      1.0  0.13494  0.39237  0.95044  1.0000
  C   C462      1.0  0.96572  0.52337  0.01389  1.0000
  H   H730      1.0  0.00892  0.47311  0.96752  1.0000
  S   S189      1.0  0.92629  0.45881  0.87997  1.0000
  H   H731      1.0  0.83937  0.54819  0.73593  1.0000
  C   C463      1.0  0.13011  0.43620  0.91049  1.0000
  H   H732      1.0  0.12639  0.40679  0.99354  1.0000
  H   H733      1.0  0.91541  0.51411  0.86021  1.0000
  S   S190      1.0  0.04930  0.41330  0.85868  1.0000
  C   C464      1.0  0.10192  0.47551  0.79995  1.0000
  C   C465      1.0  0.01157  0.42581  0.04965  1.0000
  H   H734      1.0  0.90924  0.53387  0.00143  1.0000
  Fe  Fe94      1.0  0.93950  0.42054  0.85631  1.0000
  C   C466      1.0  0.92607  0.53257  0.85980  1.0000
  H   H735      1.0  0.96488  0.42369  0.04478  1.0000
  C   C467      1.0  0.95368  0.58036  0.85921  1.0000
  H   H736      1.0  0.06348  0.49952  0.80645  1.0000
  H   H737      1.0  0.03740  0.44696  0.67020  1.0000
  C   C468      1.0  0.04046  0.43798  0.74232  1.0000
  H   H738      1.0  0.80113  0.45844  0.61943  1.0000
  H   H739      1.0  0.67843  0.34301  0.74649  1.0000
  Fe  Fe95      1.0  0.93588  0.46228  0.62148  1.0000
  H   H740      1.0  0.82426  0.39024  0.63674  1.0000
  H   H741      1.0  0.83615  0.42134  0.62115  1.0000
  C   C469      1.0  0.78788  0.44793  0.64033  1.0000
  C   C470      1.0  0.14307  0.56409  0.90530  1.0000
  H   H742      1.0  0.76486  0.45467  0.63772  1.0000
  H   H743      1.0  0.83392  0.33665  0.83480  1.0000
  Fe  Fe96      1.0  0.06503  0.39576  0.09470  1.0000
  H   H744      1.0  0.13263  0.55035  0.88678  1.0000
  H   H745      1.0  0.14126  0.46227  0.97059  1.0000
  H   H746      1.0  0.91283  0.34167  0.80964  1.0000
  S   S191      1.0  0.85628  0.48490  0.61169  1.0000
  H   H747      1.0  0.15833  0.41660  0.96809  1.0000
  C   C471      1.0  0.89219  0.74505  0.57132  1.0000
  C   C472      1.0  0.86356  0.77514  0.53589  1.0000
  H   H748      1.0  0.88868  0.74989  0.47956  1.0000
  H   H749      1.0  0.91648  0.76148  0.50851  1.0000
  H   H750      1.0  0.10209  0.79857  0.16412  1.0000
  H   H751      1.0  0.92363  0.63059  0.56535  1.0000
  H   H752      1.0  0.87999  0.79060  0.53812  1.0000
  H   H753      1.0  0.84312  0.73177  0.50694  1.0000
  H   H754      1.0  0.85166  0.77883  0.51034  1.0000
  C   C473      1.0  0.09855  0.81743  0.23212  1.0000
  S   S192      1.0  0.14087  0.64749  0.38919  1.0000
  N   N47       1.0  0.87738  0.74915  0.53656  1.0000
  N   N48       1.0  0.12336  0.81941  0.20593  1.0000
  C   C474      1.0  0.89902  0.74692  0.50633  1.0000
  C   C475      1.0  0.85482  0.72935  0.53291  1.0000
  H   H755      1.0  0.83826  0.73051  0.55549  1.0000
  C   C476      1.0  0.05916  0.76072  0.22714  1.0000
  C   C477      1.0  0.05904  0.75583  0.26452  1.0000
  H   H756      1.0  0.09245  0.60723  0.48333  1.0000
  S   S193      1.0  0.98148  0.79632  0.21311  1.0000
  C   C478      1.0  0.08686  0.60912  0.45421  1.0000
  H   H757      1.0  0.86460  0.70952  0.53355  1.0000
  H   H758      1.0  0.97114  0.63294  0.50573  1.0000
  C   C479      1.0  0.08622  0.58849  0.39584  1.0000
  H   H759      1.0  0.99693  0.59000  0.32684  1.0000
  H   H760      1.0  0.90995  0.72753  0.50627  1.0000
  H   H761      1.0  0.97705  0.63956  0.55256  1.0000
  S   S194      1.0  0.96660  0.83567  0.12632  1.0000
  Fe  Fe97      1.0  0.03779  0.67087  0.35633  1.0000
  S   S195      1.0  0.06015  0.66593  0.40937  1.0000
  S   S196      1.0  0.00340  0.64448  0.33743  1.0000
  Fe  Fe98      1.0  0.07548  0.71481  0.33113  1.0000
  S   S197      1.0  0.10103  0.71424  0.38190  1.0000
  Fe  Fe99      1.0  0.10113  0.67130  0.37653  1.0000
  S   S198      1.0  0.77128  0.83428  0.56858  1.0000
  Fe  Fe100     1.0  0.05813  0.70907  0.41073  1.0000
  S   S199      1.0  0.05277  0.72826  0.46466  1.0000
  S   S200      1.0  0.07926  0.67210  0.32316  1.0000
  S   S201      1.0  0.03187  0.71381  0.36022  1.0000
  S   S202      1.0  0.08877  0.73966  0.28349  1.0000
  C   C480      1.0  0.86193  0.82203  0.60479  1.0000
  S   S203      1.0  0.94185  0.68611  0.54993  1.0000
  H   H762      1.0  0.99567  0.73074  0.22172  1.0000
  C   C481      1.0  0.99775  0.59345  0.35569  1.0000
  C   C482      1.0  0.02197  0.71653  0.48837  1.0000
  C   C483      1.0  0.00204  0.70105  0.47091  1.0000
  C   C484      1.0  0.97740  0.69186  0.48998  1.0000
  C   C485      1.0  0.97284  0.69783  0.52666  1.0000
  C   C486      1.0  0.99292  0.71304  0.54425  1.0000
  C   C487      1.0  0.01737  0.72253  0.52504  1.0000
  H   H763      1.0  0.98962  0.71760  0.57260  1.0000
  H   H764      1.0  0.96186  0.68017  0.47623  1.0000
  H   H765      1.0  0.90918  0.60044  0.55072  1.0000
  C   C488      1.0  0.92581  0.61533  0.54437  1.0000
  H   H766      1.0  0.99195  0.70364  0.19257  1.0000
  H   H767      1.0  0.86926  0.60029  0.59702  1.0000
  H   H768      1.0  0.95437  0.71143  0.28228  1.0000
  H   H769      1.0  0.15217  0.76370  0.45179  1.0000
  C   C489      1.0  0.00027  0.61865  0.36834  1.0000
  C   C490      1.0  0.00132  0.62302  0.40567  1.0000
  C   C491      1.0  0.99998  0.60221  0.43028  1.0000
  N   N49       1.0  0.95550  0.60383  0.54318  1.0000
  H   H770      1.0  0.00264  0.64251  0.41559  1.0000
  H   H771      1.0  0.00100  0.60563  0.45905  1.0000
  H   H772      1.0  0.95193  0.58967  0.48874  1.0000
  H   H773      1.0  0.06214  0.59116  0.39390  1.0000
  S   S204      1.0  0.03598  0.82943  0.14833  1.0000
  H   H774      1.0  0.90956  0.75947  0.57495  1.0000
  H   H775      1.0  0.06299  0.61321  0.45281  1.0000
  H   H776      1.0  0.03275  0.73447  0.53864  1.0000
  H   H777      1.0  0.09844  0.62624  0.44288  1.0000
  C   C492      1.0  0.03540  0.77343  0.21138  1.0000
  H   H778      1.0  0.94971  0.67359  0.24211  1.0000
  H   H779      1.0  0.87659  0.74646  0.59487  1.0000
  C   C493      1.0  0.02072  0.68909  0.25263  1.0000
  H   H780      1.0  0.98138  0.69387  0.30754  1.0000
  H   H781      1.0  0.84762  0.77768  0.55894  1.0000
  H   H782      1.0  0.03524  0.76027  0.31520  1.0000
  C   C494      1.0  0.97809  0.70680  0.28354  1.0000
  H   H783      1.0  0.03309  0.70698  0.25747  1.0000
  C   C495      1.0  0.01127  0.77624  0.27042  1.0000
  C   C496      1.0  0.01146  0.78119  0.23303  1.0000
  N   N50       1.0  0.98912  0.69459  0.24975  1.0000
  C   C497      1.0  0.98408  0.71225  0.21861  1.0000
  H   H784      1.0  0.02994  0.68021  0.22745  1.0000
  C   C498      1.0  0.03514  0.76359  0.28620  1.0000
  H   H785      1.0  0.96050  0.71716  0.21587  1.0000
  H   H786      1.0  0.99277  0.78231  0.28717  1.0000
  H   H787      1.0  0.98149  0.66035  0.21918  1.0000
  H   H788      1.0  0.97696  0.65644  0.26745  1.0000
  C   C499      1.0  0.97362  0.67019  0.24433  1.0000
  H   H789      1.0  0.09665  0.60548  0.38241  1.0000
  H   H790      1.0  0.00538  0.69644  0.44256  1.0000
  H   H791      1.0  0.07741  0.75430  0.21026  1.0000
  H   H792      1.0  0.03538  0.77669  0.18237  1.0000
  H   H793      1.0  0.92017  0.62441  0.51787  1.0000
  H   H794      1.0  0.90794  0.81749  0.59295  1.0000
  H   H795      1.0  0.98953  0.72512  0.28869  1.0000
  Fe  Fe101     1.0  0.99472  0.80754  0.15640  1.0000
  C   C500      1.0  0.97671  0.62383  0.53226  1.0000
  H   H796      1.0  0.02518  0.67549  0.27553  1.0000
  H   H797      1.0  0.90275  0.72564  0.57276  1.0000
  H   H798      1.0  0.14911  0.69267  0.34462  1.0000
  H   H799      1.0  0.11040  0.70293  0.46343  1.0000
  H   H800      1.0  0.95991  0.60839  0.60080  1.0000
  H   H801      1.0  0.11053  0.73815  0.50736  1.0000
  H   H802      1.0  0.12340  0.77882  0.19431  1.0000
  H   H803      1.0  0.99919  0.61563  0.52961  1.0000
  C   C501      1.0  0.12245  0.79789  0.18006  1.0000
  H   H804      1.0  0.13901  0.59806  0.42310  1.0000
  H   H805      1.0  0.09968  0.79908  0.24819  1.0000
  C   C502      1.0  0.96278  0.59345  0.57945  1.0000
  H   H806      1.0  0.15185  0.73812  0.41945  1.0000
  H   H807      1.0  0.13847  0.68585  0.48744  1.0000
  H   H808      1.0  0.07731  0.81786  0.21806  1.0000
  H   H809      1.0  0.14347  0.69326  0.44009  1.0000
  H   H810      1.0  0.11849  0.74819  0.44238  1.0000
  C   C503      1.0  0.13446  0.70082  0.46618  1.0000
  H   H811      1.0  0.09820  0.83359  0.25172  1.0000
  H   H812      1.0  0.14116  0.79856  0.16033  1.0000
  C   C504      1.0  0.14233  0.74475  0.44592  1.0000
  H   H813      1.0  0.13823  0.72129  0.53240  1.0000
  H   H814      1.0  0.14394  0.75401  0.51730  1.0000
  C   C505      1.0  0.15108  0.81801  0.22560  1.0000
  C   C506      1.0  0.13460  0.73520  0.50963  1.0000
  H   H815      1.0  0.15259  0.83402  0.24529  1.0000
  H   H816      1.0  0.15330  0.79947  0.24101  1.0000
  N   N51       1.0  0.14777  0.72565  0.47523  1.0000
  C   C507      1.0  0.88959  0.81074  0.60924  1.0000
  S   S205      1.0  0.87272  0.75350  0.68231  1.0000
  H   H817      1.0  0.91905  0.63094  0.83571  1.0000
  H   H818      1.0  0.87755  0.63279  0.64428  1.0000
  C   C508      1.0  0.15091  0.78219  0.97648  1.0000
  H   H819      1.0  0.88534  0.66601  0.75827  1.0000
  C   C509      1.0  0.88469  0.67658  0.78437  1.0000
  H   H820      1.0  0.93846  0.65883  0.76619  1.0000
  H   H821      1.0  0.95383  0.66200  0.81011  1.0000
  H   H822      1.0  0.90294  0.62740  0.79217  1.0000
  Fe  Fe102     1.0  0.90843  0.72504  0.66755  1.0000
  C   C510      1.0  0.90214  0.63902  0.81741  1.0000
  H   H823      1.0  0.86238  0.67462  0.79649  1.0000
  N   N52       1.0  0.90715  0.66662  0.80925  1.0000
  H   H824      1.0  0.96460  0.59865  0.85910  1.0000
  H   H825      1.0  0.88060  0.63601  0.83122  1.0000
  C   C511      1.0  0.93640  0.66948  0.79217  1.0000
  S   S206      1.0  0.08454  0.78832  0.07998  1.0000
  H   H826      1.0  0.82370  0.78619  0.66707  1.0000
  H   H827      1.0  0.07892  0.75869  0.78470  1.0000
  C   C512      1.0  0.14097  0.80361  0.08501  1.0000
  H   H828      1.0  0.94609  0.76447  0.09538  1.0000
  H   H829      1.0  0.07291  0.76811  0.95975  1.0000
  C   C513      1.0  0.90552  0.68150  0.84317  1.0000
  C   C514      1.0  0.10225  0.66721  0.92639  1.0000
  H   H830      1.0  0.00638  0.68966  0.84073  1.0000
  H   H831      1.0  0.88793  0.69739  0.77771  1.0000
  H   H832      1.0  0.03232  0.79689  0.98283  1.0000
  H   H833      1.0  0.90846  0.70254  0.83782  1.0000
  H   H834      1.0  0.08917  0.73430  0.72887  1.0000
  C   C515      1.0  0.88772  0.61386  0.64633  1.0000
  H   H835      1.0  0.94096  0.71604  0.98076  1.0000
  C   C516      1.0  0.97873  0.73625  0.76544  1.0000
  Fe  Fe103     1.0  0.95847  0.66644  0.98291  1.0000
  S   S207      1.0  0.99464  0.68591  0.95254  1.0000
  H   H836      1.0  0.05715  0.73274  0.80231  1.0000
  Fe  Fe104     1.0  0.94433  0.63252  0.92003  1.0000
  S   S208      1.0  0.97927  0.64891  0.88330  1.0000
  Fe  Fe105     1.0  0.00677  0.64655  0.93261  1.0000
  S   S209      1.0  0.05434  0.63643  0.92857  1.0000
  Fe  Fe106     1.0  0.96473  0.68705  0.90576  1.0000
  S   S210      1.0  0.97334  0.62651  0.96775  1.0000
  C   C517      1.0  0.89340  0.79029  0.63415  1.0000
  C   C518      1.0  0.07279  0.66508  0.91832  1.0000
  C   C519      1.0  0.05795  0.68613  0.90279  1.0000
  H   H837      1.0  0.11368  0.65113  0.93884  1.0000
  H   H838      1.0  0.02321  0.76687  0.93334  1.0000
  H   H839      1.0  0.81700  0.82228  0.62334  1.0000
  H   H840      1.0  0.00200  0.78302  0.00711  1.0000
  H   H841      1.0  0.13954  0.69192  0.92572  1.0000
  H   H842      1.0  0.11454  0.68206  0.79108  1.0000
  H   H843      1.0  0.07799  0.75777  0.00607  1.0000
  Fe  Fe107     1.0  0.92279  0.66794  0.68047  1.0000
  N   N53       1.0  0.03396  0.75543  0.98786  1.0000
  S   S211      1.0  0.92985  0.70336  0.71260  1.0000
  H   H844      1.0  0.06803  0.70786  0.74583  1.0000
  H   H845      1.0  0.91470  0.78145  0.63731  1.0000
  S   S212      1.0  0.11992  0.74037  0.89512  1.0000
  H   H846      1.0  0.92299  0.67531  0.86176  1.0000
  H   H847      1.0  0.03554  0.68429  0.89509  1.0000
  C   C520      1.0  0.12974  0.73184  0.78106  1.0000
  H   H848      1.0  0.13816  0.78197  0.00262  1.0000
  H   H849      1.0  0.10522  0.70245  0.73121  1.0000
  S   S213      1.0  0.01126  0.71301  0.71154  1.0000
  C   C521      1.0  0.99872  0.70272  0.81989  1.0000
  H   H850      1.0  0.02550  0.68546  0.77749  1.0000
  Fe  Fe108     1.0  0.97907  0.81227  0.07768  1.0000
  C   C522      1.0  0.99956  0.71716  0.75682  1.0000
  C   C523      1.0  0.02595  0.78117  0.00211  1.0000
  C   C524      1.0  0.84221  0.79320  0.65125  1.0000
  N   N54       1.0  0.09996  0.72130  0.78270  1.0000
  S   S214      1.0  0.91152  0.63063  0.70883  1.0000
  H   H851      1.0  0.13072  0.75000  0.76465  1.0000
  C   C525      1.0  0.07216  0.70958  0.89673  1.0000
  Fe  Fe109     1.0  0.97090  0.70723  0.67930  1.0000
  C   C526      1.0  0.10158  0.71171  0.90501  1.0000
  H   H852      1.0  0.15527  0.61295  0.84452  1.0000
  C   C527      1.0  0.00980  0.70055  0.78416  1.0000
  S   S215      1.0  0.92684  0.67106  0.93802  1.0000
  C   C528      1.0  0.94476  0.71307  0.03887  1.0000
  C   C529      1.0  0.69911  0.82948  0.66662  1.0000
  S   S216      1.0  0.94875  0.67934  0.03961  1.0000
  C   C530      1.0  0.11675  0.69042  0.91935  1.0000
  H   H853      1.0  0.07778  0.68884  0.80695  1.0000
  H   H854      1.0  0.10817  0.69996  0.83182  1.0000
  C   C531      1.0  0.09023  0.71624  0.74554  1.0000
  C   C532      1.0  0.01859  0.75131  0.95366  1.0000
  H   H855      1.0  0.95147  0.75316  0.80752  1.0000
  S   S217      1.0  0.96102  0.72313  0.87177  1.0000
  S   S218      1.0  0.96532  0.67011  0.64975  1.0000
  C   C533      1.0  0.97744  0.72152  0.82831  1.0000
  H   H856      1.0  0.88425  0.67902  0.85785  1.0000
  H   H857      1.0  0.14573  0.71792  0.76863  1.0000
  H   H858      1.0  0.14684  0.78335  0.08313  1.0000
  C   C534      1.0  0.07979  0.74015  0.80026  1.0000
  C   C535      1.0  0.94213  0.72646  0.00582  1.0000
  C   C536      1.0  0.94579  0.72683  0.07121  1.0000
  H   H859      1.0  0.06048  0.72580  0.88489  1.0000
  H   H860      1.0  0.08664  0.74457  0.82825  1.0000
  C   C537      1.0  0.10008  0.69693  0.80402  1.0000
  C   C538      1.0  0.10986  0.59849  0.88814  1.0000
  C   C539      1.0  0.96792  0.73859  0.80117  1.0000
  H   H861      1.0  0.13641  0.79001  0.95502  1.0000
  H   H862      1.0  0.99449  0.75090  0.95825  1.0000
  H   H863      1.0  0.02531  0.73274  0.94103  1.0000
  H   H864      1.0  0.94117  0.69009  0.78632  1.0000
  H   H865      1.0  0.97067  0.74907  0.74439  1.0000
  H   H866      1.0  0.03666  0.78473  0.02829  1.0000
  C   C540      1.0  0.06582  0.75389  0.98094  1.0000
  H   H867      1.0  0.10735  0.61884  0.87848  1.0000
  H   H868      1.0  0.03093  0.71567  0.00510  1.0000
  S   S219      1.0  0.94779  0.80085  0.03536  1.0000
  C   C541      1.0  0.11166  0.81135  0.08360  1.0000
  H   H869      1.0  0.03668  0.73808  0.04106  1.0000
  H   H870      1.0  0.93987  0.76380  0.97935  1.0000
  H   H871      1.0  0.70383  0.80378  0.71257  1.0000
  S   S220      1.0  0.01835  0.83581  0.06256  1.0000
  C   C542      1.0  0.86952  0.78105  0.65443  1.0000
  C   C543      1.0  0.94139  0.75353  0.00502  1.0000
  C   C544      1.0  0.88302  0.59547  0.61965  1.0000
  C   C545      1.0  0.94378  0.76726  0.03719  1.0000
  C   C546      1.0  0.94534  0.75391  0.07035  1.0000
  C   C547      1.0  0.83839  0.81361  0.62641  1.0000
  C   C548      1.0  0.02548  0.73544  0.01492  1.0000
  C   C549      1.0  0.90513  0.60760  0.67586  1.0000
  H   H872      1.0  0.00161  0.73617  0.02108  1.0000
  H   H873      1.0  0.07270  0.73439  0.97126  1.0000
  H   H874      1.0  0.13753  0.73628  0.80866  1.0000
  S   S221      1.0  0.89727  0.68900  0.63809  1.0000
  H   H875      1.0  0.15662  0.82533  0.01463  1.0000
  S   S222      1.0  0.91223  0.60253  0.90431  1.0000
  C   C550      1.0  0.68897  0.81193  0.69298  1.0000
  S   S223      1.0  0.95020  0.73226  0.63625  1.0000
  Fe  Fe110     1.0  0.04198  0.80685  0.09723  1.0000
  N   N55       1.0  0.14089  0.59094  0.89139  1.0000
  H   H876      1.0  0.14349  0.60856  0.94380  1.0000
  Fe  Fe111     1.0  0.94064  0.69443  0.60981  1.0000
  H   H877      1.0  0.15617  0.83396  0.96742  1.0000
  H   H878      1.0  0.83526  0.83130  0.74519  1.0000
  H   H879      1.0  0.09797  0.59699  0.91478  1.0000
  C   C551      1.0  0.15561  0.59279  0.85534  1.0000
  C   C552      1.0  0.15498  0.60838  0.91687  1.0000
  H   H880      1.0  0.15545  0.62861  0.90628  1.0000
  H   H881      1.0  0.94752  0.71656  0.09682  1.0000
  H   H882      1.0  0.15626  0.76178  0.96938  1.0000
  S   S224      1.0  0.00358  0.78183  0.10887  1.0000
  Fe  Fe112     1.0  0.82970  0.95280  0.33790  1.0000
  S   S225      1.0  0.81168  0.95547  0.28191  1.0000
  S   S226      1.0  0.84144  0.98642  0.37192  1.0000
  Fe  Fe113     1.0  0.83218  0.89452  0.33848  1.0000
  S   S227      1.0  0.81494  0.89142  0.28254  1.0000
  S   S228      1.0  0.84274  0.86120  0.37517  1.0000
  Fe  Fe114     1.0  0.84475  0.92421  0.26906  1.0000
  S   S229      1.0  0.89887  0.04116  0.18235  1.0000
  Fe  Fe115     1.0  0.78358  0.92264  0.30039  1.0000
  S   S230      1.0  0.73657  0.91928  0.28685  1.0000
  H   H883      1.0  0.73613  0.94758  0.53000  1.0000
  S   S231      1.0  0.79828  0.92310  0.35782  1.0000
  Fe  Fe116     1.0  0.75311  0.86689  0.53493  1.0000
  H   H884      1.0  0.87848  0.01652  0.24818  1.0000
  S   S232      1.0  0.73346  0.86351  0.48027  1.0000
  H   H885      1.0  0.86114  0.93685  0.40339  1.0000
  C   C553      1.0  0.75939  0.00595  0.40484  1.0000
  C   C554      1.0  0.78055  0.07143  0.28446  1.0000
  C   C555      1.0  0.93164  0.86245  0.21945  1.0000
  H   H886      1.0  0.75243  0.94933  0.44902  1.0000
  C   C556      1.0  0.85944  0.91054  0.48834  1.0000
  S   S233      1.0  0.73090  0.88743  0.58145  1.0000
  H   H887      1.0  0.88397  0.95664  0.47520  1.0000
  S   S234      1.0  0.79361  0.89042  0.53542  1.0000
  H   H888      1.0  0.84924  0.91552  0.51511  1.0000
  C   C557      1.0  0.81156  0.85710  0.40269  1.0000
  H   H889      1.0  0.66912  0.92017  0.36827  1.0000
  H   H890      1.0  0.99543  0.95084  0.13693  1.0000
  C   C558      1.0  0.76277  0.85870  0.44978  1.0000
  C   C559      1.0  0.75988  0.86553  0.41325  1.0000
  C   C560      1.0  0.78423  0.86449  0.38964  1.0000
  H   H891      1.0  0.96432  0.91696  0.24727  1.0000
  H   H892      1.0  0.98748  0.86112  0.24017  1.0000
  H   H893      1.0  0.73917  0.87247  0.40352  1.0000
  H   H894      1.0  0.78198  0.86990  0.36139  1.0000
  Fe  Fe117     1.0  0.00848  0.85613  0.11496  1.0000
  S   S235      1.0  0.87321  0.92493  0.21876  1.0000
  H   H895      1.0  0.80752  0.93422  0.48028  1.0000
  H   H896      1.0  0.83726  0.03317  0.41204  1.0000
  C   C561      1.0  0.89568  0.00858  0.19458  1.0000
  C   C562      1.0  0.69497  0.95968  0.45592  1.0000
  C   C563      1.0  0.88387  0.00174  0.22859  1.0000
  S   S236      1.0  0.73312  0.04832  0.43547  1.0000
  C   C564      1.0  0.79153  0.03945  0.42406  1.0000
  H   H897      1.0  0.79671  0.03249  0.24043  1.0000
  H   H898      1.0  0.70702  0.97693  0.44584  1.0000
  C   C565      1.0  0.68363  0.90278  0.36997  1.0000
  C   C566      1.0  0.69545  0.92166  0.49453  1.0000
  H   H899      1.0  0.78003  0.97417  0.37674  1.0000
  H   H900      1.0  0.85740  0.96852  0.11788  1.0000
  C   C567      1.0  0.71631  0.94749  0.29589  1.0000
  C   C568      1.0  0.68137  0.99023  0.31522  1.0000
  C   C569      1.0  0.72828  0.96779  0.31501  1.0000
  H   H901      1.0  0.81304  0.94368  0.43352  1.0000
  H   H902      1.0  0.75075  0.96664  0.32309  1.0000
  C   C570      1.0  0.76340  0.02990  0.42096  1.0000
  C   C571      1.0  0.66981  0.97033  0.29510  1.0000
  H   H903      1.0  0.88343  0.90950  0.49203  1.0000
  Fe  Fe118     1.0  0.77315  0.90819  0.58460  1.0000
  C   C572      1.0  0.89827  0.96340  0.17820  1.0000
  H   H904      1.0  0.67463  0.06748  0.40826  1.0000
  H   H905      1.0  0.86070  0.90333  0.41633  1.0000
  H   H906      1.0  0.71961  0.00467  0.34025  1.0000
  H   H907      1.0  0.73762  0.99866  0.40208  1.0000
  H   H908      1.0  0.92650  0.90890  0.25054  1.0000
  H   H909      1.0  0.76376  0.06739  0.26409  1.0000
  C   C573      1.0  0.81143  0.00211  0.39250  1.0000
  N   N56       1.0  0.71290  0.94349  0.48038  1.0000
  C   C574      1.0  0.81555  0.02551  0.41000  1.0000
  H   H910      1.0  0.90874  0.87000  0.22059  1.0000
  C   C575      1.0  0.73875  0.93338  0.46012  1.0000
  C   C576      1.0  0.81907  0.05429  0.32165  1.0000
  C   C577      1.0  0.86008  0.95571  0.47092  1.0000
  H   H911      1.0  0.14057  0.84687  0.16710  1.0000
  H   H912      1.0  0.71174  0.86187  0.34194  1.0000
  H   H913      1.0  0.70353  0.96695  0.52712  1.0000
  C   C578      1.0  0.71079  0.98928  0.32454  1.0000
  H   H914      1.0  0.67467  0.96674  0.46995  1.0000
  C   C579      1.0  0.68728  0.94906  0.28528  1.0000
  H   H915      1.0  0.83214  0.03693  0.32976  1.0000
  C   C580      1.0  0.78339  0.99212  0.39039  1.0000
  H   H916      1.0  0.68815  0.94867  0.43189  1.0000
  H   H917      1.0  0.67491  0.92838  0.50832  1.0000
  H   H918      1.0  0.91390  0.99440  0.14403  1.0000
  H   H919      1.0  0.86889  0.97062  0.26302  1.0000
  H   H920      1.0  0.96534  0.08473  0.24678  1.0000
  H   H921      1.0  0.68931  0.90850  0.47244  1.0000
  H   H922      1.0  0.12096  0.86099  0.20456  1.0000
  C   C581      1.0  0.94754  0.89907  0.18335  1.0000
  N   N57       1.0  0.95273  0.88372  0.21674  1.0000
  C   C582      1.0  0.88438  0.95673  0.21106  1.0000
  H   H923      1.0  0.78912  0.01021  0.31713  1.0000
  C   C583      1.0  0.98276  0.87291  0.21549  1.0000
  H   H924      1.0  0.85455  0.97050  0.44981  1.0000
  H   H925      1.0  0.70464  0.90770  0.35595  1.0000
  N   N58       1.0  0.79732  0.04787  0.29436  1.0000
  H   H926      1.0  0.95082  0.88722  0.15859  1.0000
  H   H927      1.0  0.82804  0.05155  0.24953  1.0000
  H   H928      1.0  0.76901  0.07989  0.30858  1.0000
  N   N59       1.0  0.85149  0.92961  0.45990  1.0000
  S   S237      1.0  0.86520  0.92433  0.32354  1.0000
  Fe  Fe119     1.0  0.81006  0.85968  0.57327  1.0000
  H   H929      1.0  0.67821  0.93379  0.26956  1.0000
  H   H930      1.0  0.10149  0.84558  0.16928  1.0000
  C   C584      1.0  0.86673  0.92289  0.42545  1.0000
  C   C585      1.0  0.87821  0.97578  0.23684  1.0000
  C   C586      1.0  0.90372  0.98933  0.16980  1.0000
  H   H931      1.0  0.76025  0.02320  0.29005  1.0000
  Fe  Fe120     1.0  0.90690  0.04329  0.12229  1.0000
  C   C587      1.0  0.81421  0.84916  0.43884  1.0000
  H   H932      1.0  0.99922  0.88845  0.21280  1.0000
  H   H933      1.0  0.68461  0.89002  0.29922  1.0000
  H   H934      1.0  0.82134  0.95732  0.11001  1.0000
  H   H935      1.0  0.79482  0.05750  0.43762  1.0000
  H   H936      1.0  0.81242  0.90996  0.44599  1.0000
  H   H937      1.0  0.85224  0.89076  0.48145  1.0000
  H   H938      1.0  0.95279  0.88961  0.27438  1.0000
  C   C588      1.0  0.81965  0.92934  0.45471  1.0000
  C   C589      1.0  0.94898  0.90052  0.24869  1.0000
  C   C590      1.0  0.72246  0.95918  0.51102  1.0000
  H   H939      1.0  0.84875  0.96154  0.49669  1.0000
  H   H940      1.0  0.75246  0.92082  0.47784  1.0000
  S   S238      1.0  0.85643  0.84526  0.57048  1.0000
  H   H941      1.0  0.82508  0.01948  0.26828  1.0000
  S   S239      1.0  0.01173  0.89766  0.12974  1.0000
  H   H942      1.0  0.89082  0.92295  0.42815  1.0000
  H   H943      1.0  0.88734  0.91476  0.11567  1.0000
  H   H944      1.0  0.70782  0.90972  0.51432  1.0000
  C   C591      1.0  0.78977  0.84992  0.46238  1.0000
  C   C592      1.0  0.66414  0.88596  0.31498  1.0000
  H   H945      1.0  0.73566  0.97593  0.50146  1.0000
  C   C593      1.0  0.77721  0.02834  0.30971  1.0000
  C   C594      1.0  0.98516  0.94352  0.11311  1.0000
  H   H946      1.0  0.96273  0.91558  0.18074  1.0000
  H   H947      1.0  0.84482  0.93976  0.14040  1.0000
  H   H948      1.0  0.76570  0.03547  0.33470  1.0000
  C   C595      1.0  0.81244  0.03741  0.26171  1.0000
  H   H949      1.0  0.93190  0.07215  0.23038  1.0000
  H   H950      1.0  0.92497  0.90709  0.18304  1.0000
  H   H951      1.0  0.90417  0.94865  0.15888  1.0000
  H   H952      1.0  0.80837  0.06213  0.34673  1.0000
  H   H953      1.0  0.95323  0.07062  0.16788  1.0000
  H   H954      1.0  0.73233  0.92127  0.43697  1.0000
  C   C596      1.0  0.84427  0.95088  0.11430  1.0000
  H   H955      1.0  0.98630  0.86011  0.19179  1.0000
  H   H956      1.0  0.98679  0.08287  0.18432  1.0000
  N   N60       1.0  0.67018  0.88015  0.35346  1.0000
  H   H957      1.0  0.83454  0.06907  0.31101  1.0000
  H   H958      1.0  0.68804  0.89914  0.39918  1.0000
  S   S240      1.0  0.77422  0.95082  0.59245  1.0000
  H   H959      1.0  0.69484  0.85242  0.38456  1.0000
  H   H960      1.0  0.93507  0.85032  0.24418  1.0000
  C   C597      1.0  0.69041  0.85771  0.35579  1.0000
  H   H961      1.0  0.68130  0.84042  0.34281  1.0000
  H   H962      1.0  0.83528  0.84329  0.44896  1.0000
  H   H963      1.0  0.93383  0.84940  0.19575  1.0000
  C   C598      1.0  0.12144  0.84428  0.18589  1.0000
  H   H964      1.0  0.79198  0.84403  0.49042  1.0000
  C   C599      1.0  0.66551  0.96900  0.90864  1.0000
  C   C600      1.0  0.83034  0.84995  0.75902  1.0000
  C   C601      1.0  0.88606  0.92706  0.09076  1.0000
  H   H965      1.0  0.81514  0.84584  0.78232  1.0000
  N   N61       1.0  0.85574  0.93532  0.08360  1.0000
  H   H966      1.0  0.68477  0.01614  0.77481  1.0000
  H   H967      1.0  0.86396  0.93993  0.02613  1.0000
  S   S241      1.0  0.79324  0.87971  0.62288  1.0000
  Fe  Fe121     1.0  0.80532  0.97162  0.78637  1.0000
  S   S242      1.0  0.78884  0.94349  0.82853  1.0000
  S   S243      1.0  0.83625  0.95748  0.74237  1.0000
  Fe  Fe122     1.0  0.77331  0.01697  0.82080  1.0000
  S   S244      1.0  0.75382  0.99319  0.86595  1.0000
  S   S245      1.0  0.76354  0.05948  0.81568  1.0000
  Fe  Fe123     1.0  0.79822  0.97470  0.86801  1.0000
  S   S246      1.0  0.82100  0.96523  0.91966  1.0000
  Fe  Fe124     1.0  0.74580  0.96399  0.82287  1.0000
  H   H968      1.0  0.67230  0.97770  0.93354  1.0000
  S   S247      1.0  0.81872  0.00110  0.82645  1.0000
  S   S248      1.0  0.76135  0.98959  0.77720  1.0000
  Fe  Fe125     1.0  0.88107  0.05403  0.04862  1.0000
  C   C602      1.0  0.67787  0.94995  0.85028  1.0000
  S   S249      1.0  0.84271  0.06343  0.01401  1.0000
  H   H969      1.0  0.83569  0.07162  0.90912  1.0000
  N   N62       1.0  0.90451  0.03444  0.90067  1.0000
  C   C603      1.0  0.79402  0.95571  0.63182  1.0000
  H   H970      1.0  0.82958  0.88837  0.68381  1.0000
  H   H971      1.0  0.66273  0.05993  0.78285  1.0000
  C   C604      1.0  0.82452  0.99192  0.94772  1.0000
  C   C605      1.0  0.84655  0.99145  0.97317  1.0000
  C   C606      1.0  0.85173  0.01330  0.99379  1.0000
  C   C607      1.0  0.83464  0.03568  0.98953  1.0000
  C   C608      1.0  0.81212  0.03604  0.96453  1.0000
  C   C609      1.0  0.80711  0.01416  0.94351  1.0000
  H   H972      1.0  0.86048  0.97451  0.97584  1.0000
  H   H973      1.0  0.86959  0.01291  0.01215  1.0000
  H   H974      1.0  0.79889  0.05333  0.96101  1.0000
  H   H975      1.0  0.78997  0.01454  0.92395  1.0000
  C   C610      1.0  0.81135  0.89356  0.75295  1.0000
  N   N63       1.0  0.81762  0.86914  0.73370  1.0000
  H   H976      1.0  0.85981  0.02299  0.90555  1.0000
  H   H977      1.0  0.77946  0.87347  0.70123  1.0000
  H   H978      1.0  0.91902  0.06461  0.93520  1.0000
  C   C611      1.0  0.87708  0.02615  0.88444  1.0000
  C   C612      1.0  0.80499  0.06558  0.86688  1.0000
  H   H979      1.0  0.82732  0.92740  0.61833  1.0000
  H   H980      1.0  0.68182  0.89516  0.73477  1.0000
  C   C613      1.0  0.89889  0.05800  0.92214  1.0000
  C   C614      1.0  0.83278  0.94235  0.67200  1.0000
  C   C615      1.0  0.82143  0.95876  0.69886  1.0000
  C   C616      1.0  0.79760  0.97494  0.69117  1.0000
  C   C617      1.0  0.78396  0.97350  0.65761  1.0000
  C   C618      1.0  0.69481  0.01855  0.80170  1.0000
  H   H981      1.0  0.85190  0.93056  0.67732  1.0000
  H   H982      1.0  0.78974  0.98865  0.71092  1.0000
  H   H983      1.0  0.85105  0.85693  0.77028  1.0000
  S   S250      1.0  0.70368  0.94293  0.81576  1.0000
  C   C619      1.0  0.82545  0.07988  0.88546  1.0000
  H   H984      1.0  0.69855  0.99891  0.81341  1.0000
  H   H985      1.0  0.91982  0.99538  0.90951  1.0000
  Fe  Fe126     1.0  0.94392  0.06658  0.06259  1.0000
  C   C620      1.0  0.12549  0.85580  0.09160  1.0000
  H   H986      1.0  0.84361  0.85599  0.68787  1.0000
  H   H987      1.0  0.11940  0.87598  0.09439  1.0000
  H   H988      1.0  0.70931  0.96097  0.88936  1.0000
  H   H989      1.0  0.68766  0.85331  0.62064  1.0000
  H   H990      1.0  0.76503  0.98553  0.65218  1.0000
  H   H991      1.0  0.91833  0.05573  0.85303  1.0000
  C   C621      1.0  0.85522  0.95102  0.04982  1.0000
  S   S251      1.0  0.88166  0.01906  0.08480  1.0000
  H   H992      1.0  0.83151  0.90191  0.76391  1.0000
  H   H993      1.0  0.89060  0.07417  0.90486  1.0000
  H   H994      1.0  0.79561  0.89078  0.77606  1.0000
  S   S252      1.0  0.93185  0.97097  0.03517  1.0000
  H   H995      1.0  0.67644  0.04832  0.88080  1.0000
  H   H996      1.0  0.89580  0.91593  0.06770  1.0000
  H   H997      1.0  0.88224  0.05463  0.94413  1.0000
  H   H998      1.0  0.77421  0.85439  0.74153  1.0000
  H   H999      1.0  0.69249  0.01686  0.87474  1.0000
  H   H1000     1.0  0.93072  0.02265  0.85451  1.0000
  C   C622      1.0  0.79025  0.85910  0.71940  1.0000
  C   C623      1.0  0.68649  0.96003  0.88331  1.0000
  C   C624      1.0  0.79061  0.07662  0.83732  1.0000
  H   H1001     1.0  0.85939  0.88170  0.71305  1.0000
  C   C625      1.0  0.81888  0.94057  0.63867  1.0000
  H   H1002     1.0  0.90027  0.00922  0.94723  1.0000
  H   H1003     1.0  0.79976  0.04626  0.87599  1.0000
  H   H1004     1.0  0.71645  0.02746  0.79677  1.0000
  C   C626      1.0  0.83852  0.87395  0.70330  1.0000
  H   H1005     1.0  0.86849  0.04091  0.86505  1.0000
  H   H1006     1.0  0.88002  0.00771  0.86951  1.0000
  C   C627      1.0  0.91588  0.01364  0.92457  1.0000
  C   C628      1.0  0.67277  0.06068  0.81002  1.0000
  S   S253      1.0  0.90173  0.07962  0.08915  1.0000
  S   S254      1.0  0.92282  0.04420  0.01910  1.0000
  Fe  Fe127     1.0  0.92501  0.01070  0.05794  1.0000
  H   H1007     1.0  0.83275  0.95778  0.04339  1.0000
  H   H1008     1.0  0.94726  0.04619  0.88264  1.0000
  H   H1009     1.0  0.86897  0.96841  0.05185  1.0000
  H   H1010     1.0  0.93675  0.01907  0.93705  1.0000
  C   C629      1.0  0.97626  0.90837  0.07239  1.0000
  H   H1011     1.0  0.97963  0.88847  0.06460  1.0000
  C   C630      1.0  0.68991  0.03629  0.86183  1.0000
  C   C631      1.0  0.95886  0.92493  0.05124  1.0000
  C   C632      1.0  0.92620  0.03999  0.87143  1.0000
  H   H1012     1.0  0.94885  0.91773  0.02717  1.0000
  C   C633      1.0  0.95451  0.95075  0.06114  1.0000
  H   H1013     1.0  0.71199  0.04485  0.85932  1.0000
  H   H1014     1.0  0.08134  0.84357  0.08551  1.0000
  H   H1015     1.0  0.81454  0.91786  0.07366  1.0000
  H   H1016     1.0  0.80178  0.90849  0.73449  1.0000
  N   N64       1.0  0.67623  0.03454  0.82606  1.0000
  H   H1017     1.0  0.84582  0.90007  0.05671  1.0000
  H   H1018     1.0  0.69423  0.07033  0.80651  1.0000
  Fe  Fe128     1.0  0.75283  0.85700  0.61557  1.0000
  C   C634      1.0  0.83753  0.91231  0.07948  1.0000
  C   C635      1.0  0.15473  0.84807  0.09401  1.0000
  H   H1019     1.0  0.90017  0.94404  0.09459  1.0000
  H   H1020     1.0  0.79417  0.84123  0.70335  1.0000
  S   S255      1.0  0.95062  0.03207  0.09878  1.0000
  C   C636      1.0  0.96734  0.95988  0.09239  1.0000
  C   C637      1.0  0.67987  0.83990  0.64122  1.0000
  S   S256      1.0  0.73567  0.83864  0.66702  1.0000
  H   H1021     1.0  0.96382  0.97958  0.10052  1.0000
  C   C638      1.0  0.98972  0.91781  0.10306  1.0000
  H   H1022     1.0  0.83730  0.90012  0.10460  1.0000
  H   H1023     1.0  0.66069  0.90105  0.77552  1.0000
  H   H1024     1.0  0.66227  0.92521  0.74033  1.0000
  C   C639      1.0  0.10395  0.83744  0.08669  1.0000
  C   C640      1.0  0.66112  0.90402  0.74551  1.0000
