data_image0
_chemical_formula_structural       HFeS2CSC2H2C2SC2HFeCH3CHCHNHCH3CH2SC2H5CH2CHC3H2C2HSCFeSNHCH2C2H4C3FeH2S4HCH3FeC3FeHCHCS2FeHCHCHCH7CHCH3C2SH4SHC4H3CHCNHCH3FeCH7C2HC5HNSH3CSH2CH5SC2H2CSFeC4H3S3FeHC4H2CH3SH4CHCNH3Fe2CHC2HCHNH4C2H2SHCH3FeSCHNHC2H9C2H3SCHSH3CH2SNH3CSC2S2HFeH3FeH2FeSC2HCHFeSCHCHFeHCSHCNFeHSHCH2CSHSCHS2NC5HSHFe2HFeC2HSCFeSH3CH2SHSH2CH2C2HCHNH2CHCSC2H3CHCSH3C3HNCH9CSHCH2C4HFeSH3C2NC2H3SH2CHCH6CHSC3H2NC2NHCH3CH3SFeHSHCFeH2CH3SHCH2CHCHFeH2CHSH2CSCSFeC2SCHCH2CHC2H2CHSHNHSH2SFeH3C3FeS2C2FeCHC3HCHSH2CH7NCHS2H3CNCHFeHCFeH3CH2CHCH2C2HSC2SH4CHC2H2CFe2H2C2H2CSHFeSH3SHCHC3NH2CH2FeSH4CHCH5CHC2H4CHCS2H2CHSHSC2FeHCHC2H3FeS3CHC6H5CNFeCSH6SHFeHFeS2C2SHC2H2FeH2CHCH5CHC2HS2C3H2CSFeC2NCFeH3CHSHCH2CH2SC2H3FeHFeH3CHS2H2CH3FeC2NHFeSC5H2SFeSCHFeHSHCFeHSHSHCSFeCNHFeH3C2SHCH3C2H2CHCNSH6CHCSCNCHSC2HCH2CH4C3H2C3SH2SH5CSNCHC2H2SCH3CH2C2H3SH3CH2S2CFeCFeHNH2CHCH4CH3CHCH3CHCNCH4SH3SH3CHCH2C2SCH3CS2H4CHCSC2H2FeSCNFeCHSH6C2H2CSHCHC2H2CHC4SCHFeNSHCH2SCH2C2H3CNH2C2SH2SCH2CSFeSC3H2SFeSHFeSFeSFeH3C2H3CH2NH2C2H5CHNC5HCHCHCH7SH5CHCHSCHCH5CNHCSCHCS2HSFeSHFeSC2H2CSHFeNH2CHCHSH9CH2CHSHCNHCH2FeCS2FeSHCFeC2FeCH3CFeC3H2CHCNHCHC2HCSHC2H2CH4SH6SCNFeSC2H2C2HCFeHS2HCH4SH3CH5CNHCHSH2CFeSNHSHCFeC2HSCH2FeCHSH2CH7CHCHCH2C3H3NCH2CHC2HS2FeCSHSHCFeC2SFeHCH2NH3CHCH2C3H2S2FeC6H2SFeHSH4SH2FeHSCH2FeNC2SH2SCHFeH3CH2SH3S4C5H2NCHCSFeH3CHCH4FeHC2H2SCHCSHCH2CH3CHC2HS2FeNCHCH3CFeS2CHFeCHC2H2SCHFeH2CS2CSC2H2CHFeSHSHFeC4HC2NCHCSCHCFeHSH6SH2SCH2C3SFeCH6NC4H11SC2HCH2SH3CH2CHCNHC2H2CH2FeH
_chemical_formula_sum              "H768 Fe96 S192 C480 N48"
_cell_length_a       49.3274
_cell_length_b       42.5981
_cell_length_c       29.7465
_cell_angle_alpha    91.1985
_cell_angle_beta     87.3031
_cell_angle_gamma    89.0152

_space_group_name_H-M_alt    "P 1"
_space_group_IT_number       1

loop_
  _space_group_symop_operation_xyz
  'x, y, z'

loop_
  _atom_site_type_symbol
  _atom_site_label
  _atom_site_symmetry_multiplicity
  _atom_site_fract_x
  _atom_site_fract_y
  _atom_site_fract_z
  _atom_site_occupancy
  H   H1        1.0  0.08111  0.34737  0.30865  1.0000
  Fe  Fe1       1.0  0.06128  0.47807  0.27394  1.0000
  S   S1        1.0  0.07306  0.45409  0.10758  1.0000
  S   S2        1.0  0.06007  0.58926  0.22125  1.0000
  C   C1        1.0  0.24660  0.59514  0.21251  1.0000
  S   S3        1.0  0.08479  0.50229  0.21901  1.0000
  C   C2        1.0  0.10186  0.61786  0.26132  1.0000
  C   C3        1.0  0.07852  0.60006  0.26757  1.0000
  H   H2        1.0  0.10805  0.62549  0.22795  1.0000
  H   H3        1.0  0.07182  0.52166  0.11157  1.0000
  C   C4        1.0  0.25614  0.61643  0.12458  1.0000
  C   C5        1.0  0.26974  0.58497  0.18690  1.0000
  S   S4        1.0  0.24037  0.57988  0.26627  1.0000
  C   C6        1.0  0.22822  0.61618  0.19418  1.0000
  C   C7        1.0  0.27476  0.59602  0.14331  1.0000
  H   H4        1.0  0.21017  0.62389  0.21363  1.0000
  Fe  Fe2       1.0  0.05795  0.47657  0.17302  1.0000
  C   C8        1.0  0.23277  0.62640  0.14989  1.0000
  H   H5        1.0  0.15137  0.49139  0.24563  1.0000
  H   H6        1.0  0.13604  0.63786  0.29240  1.0000
  H   H7        1.0  0.20086  0.52413  0.28813  1.0000
  C   C9        1.0  0.11774  0.62485  0.29791  1.0000
  H   H8        1.0  0.17705  0.51449  0.21760  1.0000
  C   C10       1.0  0.15725  0.51579  0.23721  1.0000
  H   H9        1.0  0.14184  0.52523  0.21461  1.0000
  N   N1        1.0  0.15893  0.53572  0.27822  1.0000
  H   H10       1.0  0.18506  0.56897  0.24538  1.0000
  C   C11       1.0  0.16538  0.56813  0.26522  1.0000
  H   H11       1.0  0.28394  0.56861  0.20092  1.0000
  H   H12       1.0  0.14952  0.57826  0.24415  1.0000
  H   H13       1.0  0.29283  0.58817  0.12394  1.0000
  C   C12       1.0  0.13263  0.53573  0.30424  1.0000
  H   H14       1.0  0.11590  0.54514  0.28427  1.0000
  H   H15       1.0  0.16698  0.58374  0.29539  1.0000
  S   S5        1.0  0.26230  0.62997  0.06985  1.0000
  C   C13       1.0  0.06991  0.51399  0.07703  1.0000
  C   C14       1.0  0.07183  0.48205  0.06535  1.0000
  H   H16       1.0  0.21833  0.64226  0.13549  1.0000
  H   H17       1.0  0.10286  0.29595  0.32478  1.0000
  H   H18       1.0  0.11289  0.36702  0.31330  1.0000
  H   H19       1.0  0.13497  0.31507  0.32813  1.0000
  H   H20       1.0  0.08372  0.37983  0.34730  1.0000
  C   C15       1.0  0.09469  0.35866  0.33279  1.0000
  H   H21       1.0  0.30136  0.18891  0.42789  1.0000
  H   H22       1.0  0.11072  0.37409  0.41541  1.0000
  C   C16       1.0  0.12061  0.35282  0.39907  1.0000
  H   H23       1.0  0.08236  0.31057  0.42084  1.0000
  C   C17       1.0  0.07747  0.32735  0.39412  1.0000
  C   C18       1.0  0.11415  0.22678  0.52774  1.0000
  C   C19       1.0  0.11617  0.30877  0.34781  1.0000
  H   H24       1.0  0.17248  0.17634  0.46963  1.0000
  H   H25       1.0  0.06677  0.34788  0.41099  1.0000
  C   C20       1.0  0.12843  0.23806  0.48983  1.0000
  C   C21       1.0  0.15638  0.19038  0.48613  1.0000
  H   H26       1.0  0.16023  0.22810  0.43914  1.0000
  S   S6        1.0  0.12055  0.27517  0.46861  1.0000
  C   C22       1.0  0.14928  0.21962  0.46868  1.0000
  Fe  Fe3       1.0  0.09272  0.30370  0.51603  1.0000
  S   S7        1.0  0.09312  0.35614  0.51347  1.0000
  N   N2        1.0  0.10224  0.33690  0.36841  1.0000
  H   H27       1.0  0.12223  0.29198  0.37399  1.0000
  C   C23       1.0  0.14260  0.17948  0.52474  1.0000
  H   H28       1.0  0.13950  0.36042  0.38085  1.0000
  H   H29       1.0  0.12673  0.33700  0.42635  1.0000
  C   C24       1.0  0.12120  0.19752  0.54510  1.0000
  C   C25       1.0  0.29173  0.15231  0.35580  1.0000
  H   H30       1.0  0.09773  0.24061  0.54379  1.0000
  H   H31       1.0  0.06290  0.31576  0.37201  1.0000
  H   H32       1.0  0.28476  0.15383  0.44602  1.0000
  H   H33       1.0  0.28861  0.17769  0.34917  1.0000
  C   C26       1.0  0.18053  0.52331  0.30613  1.0000
  C   C27       1.0  0.07064  0.58996  0.31057  1.0000
  C   C28       1.0  0.22924  0.63251  0.52863  1.0000
  Fe  Fe4       1.0  0.22355  0.61448  0.31851  1.0000
  H   H34       1.0  0.13318  0.55052  0.33551  1.0000
  H   H35       1.0  0.07141  0.40891  0.47347  1.0000
  S   S8        1.0  0.12843  0.62488  0.38776  1.0000
  S   S9        1.0  0.24908  0.62331  0.47961  1.0000
  S   S10       1.0  0.08596  0.46084  0.33014  1.0000
  S   S11       1.0  0.20359  0.59525  0.38109  1.0000
  H   H36       1.0  0.07959  0.59053  0.38078  1.0000
  C   C29       1.0  0.08592  0.59807  0.34743  1.0000
  H   H37       1.0  0.17675  0.49856  0.31549  1.0000
  H   H38       1.0  0.12694  0.51161  0.31443  1.0000
  H   H39       1.0  0.18183  0.53734  0.33790  1.0000
  Fe  Fe5       1.0  0.17259  0.63342  0.37285  1.0000
  C   C30       1.0  0.20112  0.63648  0.52688  1.0000
  C   C31       1.0  0.06286  0.41440  0.44183  1.0000
  C   C32       1.0  0.06628  0.44068  0.37023  1.0000
  Fe  Fe6       1.0  0.22670  0.63197  0.41701  1.0000
  H   H40       1.0  0.09754  0.44064  0.41838  1.0000
  C   C33       1.0  0.07749  0.43271  0.41088  1.0000
  H   H41       1.0  0.19122  0.63161  0.49591  1.0000
  C   C34       1.0  0.10967  0.61520  0.34109  1.0000
  S   S12       1.0  0.09168  0.30225  0.59136  1.0000
  S   S13       1.0  0.11354  0.38518  0.63143  1.0000
  Fe  Fe7       1.0  0.08784  0.35476  0.58864  1.0000
  H   H42       1.0  0.13486  0.38343  0.71866  1.0000
  C   C35       1.0  0.11427  0.39267  0.72226  1.0000
  H   H43       1.0  0.08213  0.29660  0.72842  1.0000
  C   C36       1.0  0.09868  0.39523  0.68442  1.0000
  H   H44       1.0  0.07667  0.33399  0.70321  1.0000
  C   C37       1.0  0.06672  0.31162  0.71261  1.0000
  H   H45       1.0  0.11037  0.18910  0.57481  1.0000
  H   H46       1.0  0.06130  0.29952  0.68085  1.0000
  H   H47       1.0  0.30083  0.24440  0.75699  1.0000
  H   H48       1.0  0.29967  0.20559  0.73229  1.0000
  H   H49       1.0  0.06505  0.31755  0.80324  1.0000
  H   H50       1.0  0.06087  0.35512  0.77861  1.0000
  H   H51       1.0  0.24980  0.14800  0.61087  1.0000
  C   C38       1.0  0.10325  0.40168  0.76486  1.0000
  H   H52       1.0  0.11524  0.39918  0.79419  1.0000
  C   C39       1.0  0.24183  0.63783  0.56926  1.0000
  H   H53       1.0  0.26357  0.63456  0.57075  1.0000
  H   H54       1.0  0.09173  0.63557  0.64136  1.0000
  H   H55       1.0  0.06008  0.40958  0.65976  1.0000
  C   C40       1.0  0.07689  0.41425  0.76959  1.0000
  C   C41       1.0  0.07207  0.40724  0.68909  1.0000
  S   S14       1.0  0.22582  0.64311  0.75258  1.0000
  H   H56       1.0  0.14217  0.53332  0.70009  1.0000
  H   H57       1.0  0.11345  0.49929  0.74628  1.0000
  H   H58       1.0  0.09826  0.46547  0.72181  1.0000
  H   H59       1.0  0.09242  0.49434  0.62838  1.0000
  S   S15       1.0  0.08985  0.56793  0.74862  1.0000
  H   H60       1.0  0.11489  0.53963  0.66365  1.0000
  C   C42       1.0  0.14784  0.47088  0.68353  1.0000
  C   C43       1.0  0.11369  0.58747  0.78069  1.0000
  C   C44       1.0  0.13597  0.60128  0.75875  1.0000
  C   C45       1.0  0.15461  0.61806  0.78343  1.0000
  H   H61       1.0  0.13899  0.59890  0.72262  1.0000
  H   H62       1.0  0.12473  0.48013  0.60480  1.0000
  H   H63       1.0  0.14738  0.52578  0.64048  1.0000
  C   C46       1.0  0.13254  0.52385  0.66960  1.0000
  H   H64       1.0  0.16310  0.47160  0.65481  1.0000
  C   C47       1.0  0.11065  0.47973  0.63514  1.0000
  N   N3        1.0  0.12391  0.49109  0.67583  1.0000
  H   H65       1.0  0.15794  0.47830  0.71461  1.0000
  C   C48       1.0  0.10453  0.48987  0.71514  1.0000
  H   H66       1.0  0.08584  0.50404  0.70983  1.0000
  H   H67       1.0  0.17145  0.62881  0.76580  1.0000
  H   H68       1.0  0.14201  0.44589  0.68737  1.0000
  Fe  Fe8       1.0  0.06237  0.53986  0.79401  1.0000
  C   C49       1.0  0.06126  0.41713  0.73171  1.0000
  H   H69       1.0  0.12147  0.63538  0.67398  1.0000
  H   H70       1.0  0.09118  0.64199  0.74433  1.0000
  H   H71       1.0  0.10386  0.45508  0.63881  1.0000
  H   H72       1.0  0.06233  0.64204  0.71014  1.0000
  H   H73       1.0  0.22029  0.55740  0.99229  1.0000
  H   H74       1.0  0.22029  0.59559  0.88068  1.0000
  H   H75       1.0  0.19274  0.58561  0.99776  1.0000
  C   C50       1.0  0.21846  0.63230  0.95512  1.0000
  C   C51       1.0  0.25544  0.59446  0.94746  1.0000
  H   H76       1.0  0.21833  0.55864  0.90874  1.0000
  C   C52       1.0  0.06596  0.49467  0.98710  1.0000
  C   C53       1.0  0.21521  0.58296  0.99327  1.0000
  C   C54       1.0  0.12940  0.60644  0.85253  1.0000
  C   C55       1.0  0.15158  0.62050  0.83039  1.0000
  C   C56       1.0  0.06272  0.52649  0.99929  1.0000
  H   H77       1.0  0.22406  0.59323  0.02392  1.0000
  N   N4        1.0  0.22559  0.59845  0.95206  1.0000
  S   S16       1.0  0.08137  0.51151  0.84707  1.0000
  H   H78       1.0  0.06308  0.56081  0.05346  1.0000
  H   H79       1.0  0.19606  0.63619  0.95821  1.0000
  H   H80       1.0  0.26383  0.60551  0.91631  1.0000
  C   C57       1.0  0.07053  0.47242  0.02021  1.0000
  S   S17       1.0  0.17531  0.64151  0.86102  1.0000
  H   H81       1.0  0.26165  0.56922  0.94584  1.0000
  H   H82       1.0  0.07227  0.44773  0.01102  1.0000
  C   C58       1.0  0.21324  0.58413  0.91237  1.0000
  H   H83       1.0  0.26543  0.60545  0.97656  1.0000
  H   H84       1.0  0.06432  0.48713  0.95240  1.0000
  H   H85       1.0  0.22738  0.64379  0.98489  1.0000
  H   H86       1.0  0.09303  0.57986  0.84499  1.0000
  H   H87       1.0  0.19068  0.58668  0.91477  1.0000
  S   S18       1.0  0.06317  0.42408  0.82336  1.0000
  C   C59       1.0  0.11036  0.59012  0.82767  1.0000
  C   C60       1.0  0.06524  0.53617  0.04408  1.0000
  H   H88       1.0  0.12676  0.60829  0.88882  1.0000
  H   H89       1.0  0.22593  0.64473  0.92449  1.0000
  C   C61       1.0  0.18569  0.64669  0.56536  1.0000
  S   S19       1.0  0.15170  0.75309  0.16535  1.0000
  Fe  Fe9       1.0  0.11141  0.77744  0.17907  1.0000
  C   C62       1.0  0.17011  0.77211  0.24711  1.0000
  C   C63       1.0  0.17173  0.74966  0.21201  1.0000
  C   C64       1.0  0.18913  0.72354  0.21447  1.0000
  C   C65       1.0  0.20416  0.71922  0.25267  1.0000
  H   H90       1.0  0.15712  0.79265  0.24481  1.0000
  H   H91       1.0  0.19041  0.70619  0.18730  1.0000
  H   H92       1.0  0.21720  0.69868  0.25474  1.0000
  S   S20       1.0  0.07459  0.74746  0.17512  1.0000
  S   S21       1.0  0.09649  0.81453  0.13330  1.0000
  S   S22       1.0  0.09695  0.80267  0.24304  1.0000
  Fe  Fe10      1.0  0.07840  0.83712  0.19691  1.0000
  H   H93       1.0  0.11947  0.86507  0.25518  1.0000
  C   C66       1.0  0.18562  0.76810  0.28501  1.0000
  C   C67       1.0  0.11014  0.88381  0.27586  1.0000
  C   C68       1.0  0.20221  0.74130  0.28812  1.0000
  C   C69       1.0  0.10864  0.71438  0.28052  1.0000
  H   H94       1.0  0.08882  0.72303  0.26875  1.0000
  H   H95       1.0  0.27915  0.72588  0.09498  1.0000
  C   C70       1.0  0.27782  0.70456  0.11591  1.0000
  H   H96       1.0  0.25668  0.69582  0.11524  1.0000
  H   H97       1.0  0.11038  0.68895  0.27143  1.0000
  H   H98       1.0  0.29129  0.68626  0.09899  1.0000
  S   S23       1.0  0.07253  0.88872  0.21117  1.0000
  H   H99       1.0  0.12496  0.72647  0.26082  1.0000
  H   H100      1.0  0.27257  0.74114  0.21869  1.0000
  H   H101      1.0  0.24615  0.72983  0.18254  1.0000
  H   H102      1.0  0.27014  0.75866  0.16447  1.0000
  C   C71       1.0  0.26792  0.73632  0.18295  1.0000
  H   H103      1.0  0.26142  0.67478  0.19185  1.0000
  C   C72       1.0  0.28289  0.68241  0.18919  1.0000
  N   N5        1.0  0.28575  0.71115  0.16243  1.0000
  H   H104      1.0  0.28960  0.68612  0.22408  1.0000
  H   H105      1.0  0.29514  0.66244  0.17369  1.0000
  H   H106      1.0  0.06135  0.87711  0.11572  1.0000
  Fe  Fe11      1.0  0.05873  0.77604  0.23500  1.0000
  Fe  Fe12      1.0  0.05840  0.78646  0.13397  1.0000
  C   C73       1.0  0.08749  0.90016  0.26119  1.0000
  H   H107      1.0  0.25217  0.10874  0.27487  1.0000
  C   C74       1.0  0.28848  0.07982  0.27386  1.0000
  C   C75       1.0  0.26349  0.09120  0.29243  1.0000
  H   H108      1.0  0.29606  0.08814  0.24166  1.0000
  C   C76       1.0  0.07605  0.92509  0.28750  1.0000
  H   H109      1.0  0.05862  0.93792  0.27614  1.0000
  N   N6        1.0  0.11060  0.71996  0.32950  1.0000
  H   H110      1.0  0.12536  0.76676  0.32158  1.0000
  H   H111      1.0  0.15423  0.71828  0.32511  1.0000
  H   H112      1.0  0.08915  0.76420  0.32925  1.0000
  H   H113      1.0  0.06803  0.71284  0.34410  1.0000
  C   C77       1.0  0.08821  0.70386  0.35387  1.0000
  C   C78       1.0  0.10873  0.75404  0.33967  1.0000
  H   H114      1.0  0.13877  0.87952  0.32808  1.0000
  H   H115      1.0  0.18414  0.78524  0.31242  1.0000
  S   S24       1.0  0.21799  0.73349  0.33821  1.0000
  H   H116      1.0  0.13862  0.68185  0.33842  1.0000
  C   C79       1.0  0.13688  0.70759  0.34400  1.0000
  H   H117      1.0  0.21911  0.73258  0.43734  1.0000
  H   H118      1.0  0.11016  0.75911  0.37630  1.0000
  H   H119      1.0  0.13939  0.71214  0.38051  1.0000
  Fe  Fe13      1.0  0.21467  0.68188  0.34972  1.0000
  S   S25       1.0  0.19380  0.66868  0.41470  1.0000
  C   C80       1.0  0.23335  0.74697  0.45674  1.0000
  H   H120      1.0  0.22163  0.76756  0.47142  1.0000
  N   N7        1.0  0.24592  0.72837  0.49192  1.0000
  H   H121      1.0  0.24886  0.75579  0.43189  1.0000
  C   C81       1.0  0.26404  0.74843  0.51776  1.0000
  C   C82       1.0  0.26185  0.70194  0.47049  1.0000
  H   H122      1.0  0.28042  0.75830  0.49553  1.0000
  H   H123      1.0  0.27090  0.68663  0.49601  1.0000
  H   H124      1.0  0.24895  0.68673  0.44984  1.0000
  H   H125      1.0  0.08927  0.70702  0.39095  1.0000
  H   H126      1.0  0.27866  0.71024  0.44774  1.0000
  H   H127      1.0  0.06447  0.88121  0.37346  1.0000
  H   H128      1.0  0.07339  0.84082  0.38091  1.0000
  H   H129      1.0  0.25265  0.76844  0.53484  1.0000
  H   H130      1.0  0.21078  0.70009  0.50460  1.0000
  C   C83       1.0  0.12123  0.89222  0.31688  1.0000
  C   C84       1.0  0.22444  0.71601  0.52271  1.0000
  H   H131      1.0  0.27397  0.73485  0.54429  1.0000
  H   H132      1.0  0.08890  0.67814  0.34640  1.0000
  H   H133      1.0  0.21166  0.73519  0.53903  1.0000
  S   S26       1.0  0.24963  0.64824  0.35514  1.0000
  C   C85       1.0  0.05702  0.85881  0.38752  1.0000
  H   H134      1.0  0.23323  0.70224  0.55007  1.0000
  S   S27       1.0  0.19051  0.64969  0.30706  1.0000
  H   H135      1.0  0.29743  0.14038  0.32297  1.0000
  H   H136      1.0  0.05424  0.86244  0.42468  1.0000
  H   H137      1.0  0.27180  0.14289  0.36782  1.0000
  C   C86       1.0  0.17564  0.96760  0.54927  1.0000
  H   H138      1.0  0.09949  0.09866  0.51777  1.0000
  H   H139      1.0  0.21411  0.01986  0.42944  1.0000
  S   S28       1.0  0.29223  0.13285  0.54415  1.0000
  N   N8        1.0  0.05776  0.11248  0.50974  1.0000
  H   H140      1.0  0.26035  0.04892  0.38798  1.0000
  H   H141      1.0  0.17678  0.94561  0.41763  1.0000
  H   H142      1.0  0.07045  0.08041  0.45565  1.0000
  C   C87       1.0  0.18579  0.99789  0.55380  1.0000
  S   S29       1.0  0.22476  0.09937  0.36029  1.0000
  C   C88       1.0  0.29306  0.04613  0.33761  1.0000
  C   C89       1.0  0.08570  0.11958  0.52230  1.0000
  S   S30       1.0  0.08735  0.98794  0.48165  1.0000
  S   S31       1.0  0.25456  0.07463  0.47446  1.0000
  H   H143      1.0  0.29700  0.10262  0.40821  1.0000
  Fe  Fe14      1.0  0.19065  0.12121  0.51960  1.0000
  H   H144      1.0  0.15509  0.97200  0.35416  1.0000
  H   H145      1.0  0.16431  0.01132  0.34015  1.0000
  H   H146      1.0  0.18805  0.97936  0.32885  1.0000
  Fe  Fe15      1.0  0.22349  0.09975  0.43576  1.0000
  H   H147      1.0  0.14387  0.98893  0.43294  1.0000
  H   H148      1.0  0.16835  0.00945  0.46462  1.0000
  Fe  Fe16      1.0  0.08929  0.94084  0.44705  1.0000
  S   S32       1.0  0.21783  0.00635  0.53010  1.0000
  C   C90       1.0  0.10935  0.91658  0.34375  1.0000
  C   C91       1.0  0.19320  0.96321  0.41497  1.0000
  H   H149      1.0  0.22194  0.00792  0.37200  1.0000
  C   C92       1.0  0.08683  0.93312  0.32895  1.0000
  H   H150      1.0  0.15259  0.02851  0.41906  1.0000
  Fe  Fe17      1.0  0.25201  0.11668  0.52073  1.0000
  S   S33       1.0  0.12220  0.92519  0.39648  1.0000
  C   C93       1.0  0.20522  0.01616  0.39605  1.0000
  H   H151      1.0  0.20968  0.95314  0.39195  1.0000
  C   C94       1.0  0.26818  0.05779  0.35643  1.0000
  H   H152      1.0  0.19811  0.03947  0.38446  1.0000
  Fe  Fe18      1.0  0.21912  0.05758  0.51560  1.0000
  H   H153      1.0  0.18786  0.94930  0.53211  1.0000
  C   C95       1.0  0.25381  0.08109  0.33453  1.0000
  S   S34       1.0  0.18790  0.07938  0.47337  1.0000
  H   H154      1.0  0.06670  0.12072  0.43950  1.0000
  C   C96       1.0  0.17213  0.98883  0.35345  1.0000
  N   N9        1.0  0.18288  0.99348  0.39864  1.0000
  Fe  Fe19      1.0  0.07959  0.96150  0.54483  1.0000
  H   H155      1.0  0.07783  0.95230  0.34924  1.0000
  S   S35       1.0  0.08600  0.91444  0.51118  1.0000
  H   H156      1.0  0.20150  0.96607  0.44899  1.0000
  C   C97       1.0  0.16094  0.00568  0.43017  1.0000
  H   H157      1.0  0.08634  0.12753  0.55813  1.0000
  H   H158      1.0  0.09467  0.13858  0.50149  1.0000
  C   C98       1.0  0.05814  0.10238  0.46186  1.0000
  S   S36       1.0  0.22394  0.14398  0.47818  1.0000
  H   H159      1.0  0.05918  0.06489  0.53266  1.0000
  S   S37       1.0  0.15144  0.14325  0.54781  1.0000
  C   C99       1.0  0.30366  0.05797  0.29705  1.0000
  H   H160      1.0  0.14110  0.93806  0.56080  1.0000
  S   S38       1.0  0.23652  0.71485  0.71579  1.0000
  S   S39       1.0  0.09527  0.77210  0.68076  1.0000
  N   N10       1.0  0.09370  0.67392  0.68935  1.0000
  C   C100      1.0  0.17172  0.78463  0.75806  1.0000
  C   C101      1.0  0.17319  0.77045  0.71513  1.0000
  C   C102      1.0  0.14988  0.76808  0.69031  1.0000
  C   C103      1.0  0.12494  0.77914  0.70897  1.0000
  C   C104      1.0  0.12355  0.79398  0.75151  1.0000
  H   H161      1.0  0.15105  0.75648  0.65755  1.0000
  S   S40       1.0  0.17950  0.69890  0.76920  1.0000
  H   H162      1.0  0.19223  0.76064  0.70140  1.0000
  Fe  Fe20      1.0  0.25559  0.68160  0.76336  1.0000
  Fe  Fe21      1.0  0.20445  0.67843  0.71122  1.0000
  H   H163      1.0  0.10439  0.80258  0.76625  1.0000
  Fe  Fe22      1.0  0.21335  0.73200  0.77815  1.0000
  C   C105      1.0  0.14703  0.79710  0.77583  1.0000
  C   C106      1.0  0.07461  0.85515  0.64896  1.0000
  H   H164      1.0  0.09006  0.83852  0.66142  1.0000
  S   S41       1.0  0.05958  0.75711  0.79792  1.0000
  C   C107      1.0  0.07535  0.69479  0.66525  1.0000
  Fe  Fe23      1.0  0.06078  0.77991  0.73094  1.0000
  S   S42       1.0  0.19944  0.78139  0.79217  1.0000
  H   H165      1.0  0.08675  0.70820  0.63897  1.0000
  H   H166      1.0  0.12750  0.70505  0.68427  1.0000
  H   H167      1.0  0.10577  0.71113  0.73376  1.0000
  C   C108      1.0  0.11481  0.69278  0.71020  1.0000
  H   H168      1.0  0.12887  0.67770  0.72891  1.0000
  H   H169      1.0  0.09822  0.87709  0.72182  1.0000
  S   S43       1.0  0.17896  0.66727  0.65256  1.0000
  H   H170      1.0  0.07303  0.85038  0.61223  1.0000
  S   S44       1.0  0.30065  0.67441  0.75534  1.0000
  H   H171      1.0  0.06497  0.71239  0.68865  1.0000
  H   H172      1.0  0.16398  0.65004  0.56377  1.0000
  C   C109      1.0  0.08334  0.89354  0.70729  1.0000
  H   H173      1.0  0.06715  0.67415  0.74894  1.0000
  H   H174      1.0  0.06332  0.89025  0.72525  1.0000
  C   C110      1.0  0.10685  0.65084  0.65715  1.0000
  C   C111      1.0  0.07789  0.65735  0.72473  1.0000
  H   H175      1.0  0.11874  0.66271  0.62982  1.0000
  C   C112      1.0  0.19837  0.65284  0.60565  1.0000
  H   H176      1.0  0.12445  0.87868  0.64708  1.0000
  N   N11       1.0  0.08168  0.88815  0.65825  1.0000
  H   H177      1.0  0.05939  0.68130  0.64858  1.0000
  H   H178      1.0  0.23624  0.65267  0.63896  1.0000
  C   C113      1.0  0.22640  0.64814  0.60777  1.0000
  H   H179      1.0  0.05474  0.84937  0.66559  1.0000
  C   C114      1.0  0.29189  0.13386  0.60313  1.0000
  S   S45       1.0  0.28694  0.12640  0.75583  1.0000
  C   C115      1.0  0.16987  0.02163  0.57559  1.0000
  C   C116      1.0  0.10823  0.89471  0.63563  1.0000
  H   H180      1.0  0.17744  0.04521  0.57852  1.0000
  H   H181      1.0  0.28474  0.03427  0.62441  1.0000
  H   H182      1.0  0.22815  0.08533  0.66977  1.0000
  C   C117      1.0  0.14390  0.01492  0.59353  1.0000
  H   H183      1.0  0.08970  0.91794  0.71513  1.0000
  C   C118      1.0  0.13352  0.98482  0.58811  1.0000
  S   S46       1.0  0.10015  0.97725  0.60627  1.0000
  H   H184      1.0  0.28832  0.06674  0.66293  1.0000
  H   H185      1.0  0.11457  0.91919  0.64282  1.0000
  H   H186      1.0  0.24292  0.00374  0.62631  1.0000
  C   C119      1.0  0.27347  0.05375  0.64295  1.0000
  C   C120      1.0  0.26218  0.02149  0.70662  1.0000
  C   C121      1.0  0.23232  0.02386  0.64456  1.0000
  H   H187      1.0  0.21843  0.06075  0.71598  1.0000
  N   N12       1.0  0.25099  0.04194  0.67218  1.0000
  C   C122      1.0  0.23603  0.06871  0.69468  1.0000
  H   H188      1.0  0.22338  0.03876  0.61860  1.0000
  H   H189      1.0  0.21515  0.01431  0.66536  1.0000
  H   H190      1.0  0.24580  0.01220  0.72940  1.0000
  H   H191      1.0  0.13151  0.03331  0.61021  1.0000
  H   H192      1.0  0.26596  0.07011  0.61741  1.0000
  H   H193      1.0  0.10753  0.89186  0.59846  1.0000
  H   H194      1.0  0.24929  0.08226  0.71700  1.0000
  H   H195      1.0  0.27369  0.00107  0.69088  1.0000
  H   H196      1.0  0.27633  0.03458  0.72807  1.0000
  C   C123      1.0  0.06050  0.90915  0.64122  1.0000
  S   S47       1.0  0.21891  0.09731  0.56594  1.0000
  H   H197      1.0  0.06501  0.93427  0.64781  1.0000
  C   C124      1.0  0.29002  0.13082  0.69738  1.0000
  H   H198      1.0  0.05859  0.90585  0.60431  1.0000
  H   H199      1.0  0.24818  0.14563  0.69397  1.0000
  C   C125      1.0  0.26780  0.14121  0.62795  1.0000
  C   C126      1.0  0.26697  0.14005  0.67498  1.0000
  C   C127      1.0  0.14926  0.96123  0.56560  1.0000
  C   C128      1.0  0.30310  0.65002  0.84006  1.0000
  H   H200      1.0  0.14581  0.80786  0.80917  1.0000
  Fe  Fe24      1.0  0.20249  0.66626  0.81119  1.0000
  S   S48       1.0  0.23433  0.70145  0.82649  1.0000
  H   H201      1.0  0.08096  0.80756  0.04201  1.0000
  H   H202      1.0  0.28363  0.66136  0.84787  1.0000
  H   H203      1.0  0.16910  0.71461  0.87411  1.0000
  C   C129      1.0  0.05844  0.80999  0.93565  1.0000
  C   C130      1.0  0.07513  0.81515  0.97180  1.0000
  N   N13       1.0  0.12711  0.72892  0.88316  1.0000
  C   C131      1.0  0.06780  0.80382  0.01453  1.0000
  C   C132      1.0  0.12165  0.70741  0.92076  1.0000
  H   H204      1.0  0.12718  0.71813  0.95347  1.0000
  H   H205      1.0  0.11444  0.77502  0.86311  1.0000
  H   H206      1.0  0.13349  0.68496  0.91571  1.0000
  S   S49       1.0  0.06795  0.82472  0.88274  1.0000
  H   H207      1.0  0.12382  0.72922  0.81145  1.0000
  H   H208      1.0  0.08884  0.75376  0.89379  1.0000
  C   C133      1.0  0.15632  0.73623  0.88018  1.0000
  H   H209      1.0  0.09754  0.70818  0.84146  1.0000
  C   C134      1.0  0.11952  0.71372  0.84057  1.0000
  H   H210      1.0  0.13107  0.69123  0.83402  1.0000
  H   H211      1.0  0.09381  0.82783  0.96669  1.0000
  H   H212      1.0  0.16112  0.75237  0.85207  1.0000
  H   H213      1.0  0.11633  0.77064  0.92268  1.0000
  H   H214      1.0  0.09977  0.70141  0.92399  1.0000
  H   H215      1.0  0.16283  0.74790  0.91160  1.0000
  C   C135      1.0  0.11101  0.75829  0.89103  1.0000
  H   H216      1.0  0.06377  0.86909  0.05603  1.0000
  S   S50       1.0  0.49460  0.26220  0.24382  1.0000
  C   C136      1.0  0.46483  0.24264  0.25993  1.0000
  C   C137      1.0  0.44902  0.22967  0.22675  1.0000
  C   C138      1.0  0.42566  0.21303  0.23897  1.0000
  H   H217      1.0  0.45477  0.23250  0.19154  1.0000
  H   H218      1.0  0.41324  0.20395  0.21318  1.0000
  N   N14       1.0  0.50996  0.34715  0.16497  1.0000
  C   C139      1.0  0.41799  0.20920  0.28434  1.0000
  C   C140      1.0  0.52733  0.33985  0.20271  1.0000
  N   N15       1.0  0.53528  0.16750  0.24053  1.0000
  H   H219      1.0  0.54808  0.41090  0.50032  1.0000
  C   C141      1.0  0.51622  0.16272  0.20422  1.0000
  H   H220      1.0  0.50236  0.18349  0.20143  1.0000
  H   H221      1.0  0.54782  0.35020  0.19785  1.0000
  H   H222      1.0  0.53007  0.31406  0.20647  1.0000
  C   C142      1.0  0.52255  0.33384  0.12254  1.0000
  H   H223      1.0  0.52530  0.30792  0.12419  1.0000
  H   H224      1.0  0.54282  0.34413  0.11482  1.0000
  H   H225      1.0  0.52716  0.15864  0.17101  1.0000
  S   S51       1.0  0.39020  0.15388  0.17308  1.0000
  Fe  Fe25      1.0  0.37882  0.15185  0.24684  1.0000
  H   H226      1.0  0.50989  0.33887  0.09338  1.0000
  S   S52       1.0  0.32431  0.15408  0.10979  1.0000
  H   H227      1.0  0.53983  0.21653  0.22725  1.0000
  C   C143      1.0  0.51973  0.17343  0.28365  1.0000
  Fe  Fe26      1.0  0.52116  0.27006  0.30178  1.0000
  H   H228      1.0  0.50650  0.19482  0.28224  1.0000
  H   H229      1.0  0.51827  0.34939  0.23527  1.0000
  C   C144      1.0  0.48291  0.33343  0.17336  1.0000
  H   H230      1.0  0.48431  0.30740  0.17559  1.0000
  H   H231      1.0  0.46908  0.33898  0.14598  1.0000
  H   H232      1.0  0.47310  0.34247  0.20567  1.0000
  S   S53       1.0  0.38913  0.18754  0.29991  1.0000
  H   H233      1.0  0.50637  0.15345  0.29229  1.0000
  C   C145      1.0  0.50703  0.38155  0.16118  1.0000
  H   H234      1.0  0.49394  0.38798  0.13321  1.0000
  H   H235      1.0  0.52706  0.39258  0.15436  1.0000
  C   C146      1.0  0.55124  0.38714  0.29561  1.0000
  H   H236      1.0  0.53350  0.17688  0.31188  1.0000
  C   C147      1.0  0.45700  0.23940  0.30540  1.0000
  H   H237      1.0  0.53406  0.60532  0.11998  1.0000
  Fe  Fe27      1.0  0.36367  0.60190  0.06876  1.0000
  H   H238      1.0  0.53003  0.56884  0.09011  1.0000
  H   H239      1.0  0.47047  0.50217  0.09147  1.0000
  C   C148      1.0  0.54503  0.58703  0.09856  1.0000
  H   H240      1.0  0.49796  0.39266  0.19276  1.0000
  S   S54       1.0  0.50986  0.44936  0.08339  1.0000
  H   H241      1.0  0.42452  0.51593  0.12447  1.0000
  H   H242      1.0  0.51680  0.41763  0.28550  1.0000
  C   C149      1.0  0.42128  0.55932  0.08897  1.0000
  S   S55       1.0  0.38721  0.56640  0.10725  1.0000
  C   C150      1.0  0.43464  0.53173  0.10139  1.0000
  S   S56       1.0  0.33762  0.64066  0.10098  1.0000
  Fe  Fe28      1.0  0.54220  0.45685  0.13292  1.0000
  C   C151      1.0  0.46065  0.52390  0.08268  1.0000
  C   C152      1.0  0.54868  0.42409  0.23475  1.0000
  S   S57       1.0  0.52978  0.45185  0.20606  1.0000
  C   C153      1.0  0.53701  0.41041  0.27325  1.0000
  H   H243      1.0  0.53590  0.37574  0.41267  1.0000
  C   C154      1.0  0.30425  0.16319  0.43197  1.0000
  H   H244      1.0  0.54838  0.33826  0.42952  1.0000
  H   H245      1.0  0.31953  0.15967  0.45790  1.0000
  C   C155      1.0  0.33870  0.16022  0.37142  1.0000
  H   H246      1.0  0.51253  0.23456  0.51910  1.0000
  C   C156      1.0  0.52811  0.29749  0.51351  1.0000
  C   C157      1.0  0.50406  0.21230  0.53216  1.0000
  H   H247      1.0  0.54213  0.37684  0.32534  1.0000
  H   H248      1.0  0.52854  0.36240  0.46886  1.0000
  C   C158      1.0  0.43353  0.22277  0.31758  1.0000
  H   H249      1.0  0.49716  0.32309  0.55334  1.0000
  S   S58       1.0  0.50810  0.29459  0.46651  1.0000
  H   H250      1.0  0.33681  0.18575  0.36461  1.0000
  N   N16       1.0  0.31276  0.14728  0.38884  1.0000
  H   H251      1.0  0.48662  0.20636  0.51132  1.0000
  S   S59       1.0  0.52376  0.31466  0.34214  1.0000
  H   H252      1.0  0.42750  0.22027  0.35274  1.0000
  H   H253      1.0  0.51998  0.19367  0.52617  1.0000
  S   S60       1.0  0.52332  0.23886  0.36113  1.0000
  Fe  Fe29      1.0  0.53046  0.28313  0.40040  1.0000
  H   H254      1.0  0.34583  0.14835  0.33918  1.0000
  H   H255      1.0  0.46872  0.25006  0.33120  1.0000
  H   H256      1.0  0.35509  0.15719  0.39550  1.0000
  C   C159      1.0  0.51733  0.31262  0.55273  1.0000
  C   C160      1.0  0.54450  0.36295  0.44112  1.0000
  C   C161      1.0  0.55240  0.19477  0.23013  1.0000
  Fe  Fe30      1.0  0.50144  0.25807  0.73848  1.0000
  S   S61       1.0  0.50551  0.30596  0.70934  1.0000
  S   S62       1.0  0.47177  0.22307  0.71372  1.0000
  C   C162      1.0  0.43951  0.17888  0.75265  1.0000
  C   C163      1.0  0.45024  0.20893  0.75697  1.0000
  Fe  Fe31      1.0  0.51430  0.32132  0.78001  1.0000
  C   C164      1.0  0.53241  0.31395  0.59146  1.0000
  H   H257      1.0  0.52399  0.32574  0.62159  1.0000
  C   C165      1.0  0.42201  0.16735  0.78665  1.0000
  C   C166      1.0  0.44332  0.22750  0.79526  1.0000
  C   C167      1.0  0.51934  0.22366  0.60661  1.0000
  H   H258      1.0  0.52821  0.24619  0.59568  1.0000
  C   C168      1.0  0.47466  0.24068  0.58664  1.0000
  H   H259      1.0  0.44508  0.16428  0.72335  1.0000
  S   S63       1.0  0.54530  0.24450  0.72676  1.0000
  H   H260      1.0  0.33768  0.16820  0.74001  1.0000
  H   H261      1.0  0.53565  0.20531  0.60288  1.0000
  C   C169      1.0  0.35071  0.18840  0.74839  1.0000
  H   H262      1.0  0.36676  0.17969  0.77026  1.0000
  H   H263      1.0  0.51364  0.22645  0.64314  1.0000
  H   H264      1.0  0.36100  0.19611  0.71652  1.0000
  H   H265      1.0  0.46812  0.24411  0.62280  1.0000
  H   H266      1.0  0.36340  0.24920  0.75114  1.0000
  H   H267      1.0  0.47784  0.18719  0.63262  1.0000
  H   H268      1.0  0.49978  0.16607  0.59242  1.0000
  N   N17       1.0  0.49562  0.21553  0.58042  1.0000
  C   C170      1.0  0.48443  0.18552  0.59630  1.0000
  H   H269      1.0  0.46644  0.17866  0.57741  1.0000
  S   S64       1.0  0.50596  0.27432  0.80974  1.0000
  S   S65       1.0  0.50009  0.36699  0.81332  1.0000
  H   H270      1.0  0.32272  0.23375  0.70878  1.0000
  H   H271      1.0  0.45122  0.25090  0.79847  1.0000
  H   H272      1.0  0.48238  0.26356  0.57459  1.0000
  C   C171      1.0  0.31353  0.22504  0.74095  1.0000
  N   N18       1.0  0.33458  0.21414  0.77108  1.0000
  C   C172      1.0  0.35272  0.24022  0.78195  1.0000
  H   H273      1.0  0.34130  0.26019  0.79903  1.0000
  Fe  Fe32      1.0  0.55035  0.26536  0.79532  1.0000
  H   H274      1.0  0.36866  0.23246  0.80492  1.0000
  C   C173      1.0  0.32143  0.20259  0.81308  1.0000
  Fe  Fe33      1.0  0.54992  0.29366  0.70247  1.0000
  H   H275      1.0  0.30776  0.18266  0.80616  1.0000
  H   H276      1.0  0.45631  0.23525  0.56778  1.0000
  H   H277      1.0  0.35010  0.63923  0.75340  1.0000
  C   C174      1.0  0.34063  0.63765  0.78685  1.0000
  H   H278      1.0  0.30899  0.22132  0.83118  1.0000
  H   H279      1.0  0.33677  0.19417  0.83660  1.0000
  C   C175      1.0  0.41461  0.18612  0.82450  1.0000
  H   H280      1.0  0.31328  0.16345  0.01747  1.0000
  C   C176      1.0  0.42545  0.21611  0.82897  1.0000
  H   H281      1.0  0.41982  0.23072  0.85824  1.0000
  H   H282      1.0  0.50503  0.31950  0.88081  1.0000
  C   C177      1.0  0.50925  0.34202  0.89585  1.0000
  C   C178      1.0  0.51647  0.34390  0.94086  1.0000
  H   H283      1.0  0.51785  0.32269  0.96007  1.0000
  S   S66       1.0  0.39066  0.17324  0.86521  1.0000
  C   C179      1.0  0.50743  0.36924  0.87059  1.0000
  C   C180      1.0  0.52230  0.37294  0.96070  1.0000
  S   S67       1.0  0.53450  0.37407  0.01533  1.0000
  H   H284      1.0  0.36984  0.15253  0.02706  1.0000
  H   H285      1.0  0.42829  0.15413  0.98656  1.0000
  H   H286      1.0  0.39971  0.15774  0.05839  1.0000
  H   H287      1.0  0.54787  0.17659  0.82960  1.0000
  C   C181      1.0  0.51221  0.39846  0.89098  1.0000
  H   H288      1.0  0.39795  0.14945  0.95631  1.0000
  C   C182      1.0  0.55120  0.15223  0.81571  1.0000
  C   C183      1.0  0.47323  0.54360  0.05131  1.0000
  H   H289      1.0  0.42526  0.60175  0.05169  1.0000
  H   H290      1.0  0.37334  0.61005  0.81196  1.0000
  C   C184      1.0  0.35374  0.62113  0.81992  1.0000
  Fe  Fe34      1.0  0.52682  0.49198  0.05018  1.0000
  Fe  Fe35      1.0  0.30694  0.62693  0.05140  1.0000
  H   H291      1.0  0.41567  0.56867  0.91476  1.0000
  H   H292      1.0  0.39449  0.52724  0.01830  1.0000
  C   C185      1.0  0.46049  0.57190  0.04075  1.0000
  C   C186      1.0  0.41682  0.55808  0.94855  1.0000
  H   H293      1.0  0.52479  0.63350  0.05016  1.0000
  H   H294      1.0  0.52178  0.59696  0.01987  1.0000
  C   C187      1.0  0.37974  0.52415  0.93224  1.0000
  S   S68       1.0  0.50382  0.53267  0.02221  1.0000
  H   H295      1.0  0.30765  0.63332  0.90739  1.0000
  Fe  Fe36      1.0  0.54235  0.42261  0.04284  1.0000
  S   S69       1.0  0.38309  0.63287  0.01716  1.0000
  H   H296      1.0  0.43816  0.55969  0.95876  1.0000
  H   H297      1.0  0.52395  0.42285  0.95105  1.0000
  H   H298      1.0  0.42654  0.51469  0.88292  1.0000
  S   S70       1.0  0.36024  0.60152  0.90495  1.0000
  H   H299      1.0  0.37202  0.49977  0.93168  1.0000
  C   C188      1.0  0.51979  0.40030  0.93590  1.0000
  H   H300      1.0  0.36546  0.53882  0.95431  1.0000
  C   C189      1.0  0.31667  0.63424  0.87368  1.0000
  C   C190      1.0  0.34203  0.61985  0.86349  1.0000
  C   C191      1.0  0.42610  0.50590  0.91793  1.0000
  N   N19       1.0  0.40763  0.52524  0.94822  1.0000
  H   H301      1.0  0.41980  0.48094  0.91678  1.0000
  H   H302      1.0  0.37874  0.53347  0.89762  1.0000
  C   C192      1.0  0.40791  0.51293  0.99428  1.0000
  H   H303      1.0  0.42871  0.51320  0.00717  1.0000
  H   H304      1.0  0.47030  0.58753  0.01712  1.0000
  Fe  Fe37      1.0  0.34890  0.61840  0.97507  1.0000
  S   S71       1.0  0.33098  0.58488  0.02458  1.0000
  H   H305      1.0  0.44731  0.50620  0.92939  1.0000
  H   H306      1.0  0.40088  0.48828  0.99556  1.0000
  H   H307      1.0  0.40399  0.57304  0.97248  1.0000
  H   H308      1.0  0.51066  0.41961  0.87167  1.0000
  C   C193      1.0  0.53652  0.61483  0.03058  1.0000
  H   H309      1.0  0.54544  0.62553  0.99958  1.0000
  C   C194      1.0  0.43469  0.57980  0.05974  1.0000
  H   H310      1.0  0.53800  0.14934  0.78656  1.0000
  H   H311      1.0  0.46139  0.87639  0.17092  1.0000
  H   H312      1.0  0.46399  0.87559  0.08759  1.0000
  H   H313      1.0  0.32091  0.72711  0.19596  1.0000
  H   H314      1.0  0.52943  0.88808  0.12244  1.0000
  C   C195      1.0  0.47078  0.89559  0.15311  1.0000
  H   H315      1.0  0.31742  0.74238  0.14050  1.0000
  C   C196      1.0  0.31430  0.72131  0.16157  1.0000
  C   C197      1.0  0.47237  0.89502  0.10592  1.0000
  H   H316      1.0  0.32838  0.70267  0.14696  1.0000
  H   H317      1.0  0.54503  0.85183  0.23129  1.0000
  H   H318      1.0  0.52892  0.83193  0.18592  1.0000
  H   H319      1.0  0.51940  0.87166  0.20133  1.0000
  C   C198      1.0  0.53694  0.85491  0.19733  1.0000
  H   H320      1.0  0.53774  0.84793  0.10795  1.0000
  C   C199      1.0  0.54622  0.87031  0.12064  1.0000
  S   S72       1.0  0.54701  0.78309  0.07751  1.0000
  S   S73       1.0  0.50310  0.97592  0.33210  1.0000
  H   H321      1.0  0.55114  0.91474  0.18548  1.0000
  H   H322      1.0  0.32327  0.10063  0.36429  1.0000
  C   C200      1.0  0.31794  0.09497  0.07347  1.0000
  H   H323      1.0  0.37677  0.12681  0.07215  1.0000
  S   S74       1.0  0.33640  0.13601  0.23684  1.0000
  H   H324      1.0  0.54061  0.11828  0.25271  1.0000
  S   S75       1.0  0.48009  0.91997  0.23625  1.0000
  C   C201      1.0  0.48175  0.92051  0.17719  1.0000
  C   C202      1.0  0.48430  0.91979  0.08260  1.0000
  Fe  Fe38      1.0  0.51295  0.94573  0.27061  1.0000
  H   H325      1.0  0.46428  0.99883  0.21299  1.0000
  C   C203      1.0  0.41924  0.96439  0.20875  1.0000
  H   H326      1.0  0.50361  0.96456  0.08873  1.0000
  C   C204      1.0  0.49447  0.94527  0.10667  1.0000
  C   C205      1.0  0.49349  0.94546  0.15393  1.0000
  H   H327      1.0  0.42444  0.94646  0.23384  1.0000
  H   H328      1.0  0.43349  0.96048  0.17891  1.0000
  H   H329      1.0  0.50143  0.96515  0.17214  1.0000
  Fe  Fe39      1.0  0.35422  0.08717  0.23745  1.0000
  S   S76       1.0  0.36432  0.08343  0.16325  1.0000
  S   S77       1.0  0.39534  0.10315  0.25469  1.0000
  S   S78       1.0  0.44351  0.08693  0.14728  1.0000
  C   C206      1.0  0.40188  0.00091  0.26683  1.0000
  H   H330      1.0  0.45496  0.98456  0.26764  1.0000
  C   C207      1.0  0.50279  0.06982  0.25738  1.0000
  C   C208      1.0  0.48188  0.09220  0.26427  1.0000
  C   C209      1.0  0.46430  0.09845  0.22974  1.0000
  C   C210      1.0  0.46734  0.08204  0.18853  1.0000
  C   C211      1.0  0.48896  0.06068  0.18097  1.0000
  C   C212      1.0  0.50674  0.05470  0.21531  1.0000
  H   H331      1.0  0.44869  0.11638  0.23486  1.0000
  H   H332      1.0  0.49173  0.04835  0.14885  1.0000
  H   H333      1.0  0.52368  0.03871  0.20888  1.0000
  H   H334      1.0  0.40268  0.02511  0.28161  1.0000
  H   H335      1.0  0.45147  0.02578  0.25639  1.0000
  C   C213      1.0  0.41466  0.01947  0.19296  1.0000
  N   N20       1.0  0.42125  0.99660  0.22762  1.0000
  Fe  Fe40      1.0  0.40404  0.10423  0.18018  1.0000
  C   C214      1.0  0.44919  0.00171  0.24186  1.0000
  S   S79       1.0  0.33686  0.04778  0.27789  1.0000
  H   H336      1.0  0.42914  0.01741  0.16310  1.0000
  H   H337      1.0  0.39379  0.01623  0.18116  1.0000
  H   H338      1.0  0.41571  0.04395  0.20636  1.0000
  H   H339      1.0  0.31968  0.08626  0.10702  1.0000
  H   H340      1.0  0.39840  0.95961  0.19792  1.0000
  H   H341      1.0  0.38055  0.99736  0.25724  1.0000
  S   S80       1.0  0.53981  0.98060  0.23658  1.0000
  H   H342      1.0  0.47893  0.10430  0.29652  1.0000
  Fe  Fe41      1.0  0.34926  0.13348  0.16341  1.0000
  H   H343      1.0  0.40625  0.98409  0.29379  1.0000
  Fe  Fe42      1.0  0.53278  0.00909  0.30028  1.0000
  S   S81       1.0  0.54718  0.91938  0.30072  1.0000
  S   S82       1.0  0.52395  0.06105  0.30134  1.0000
  C   C215      1.0  0.55280  0.13926  0.24427  1.0000
  C   C216      1.0  0.31764  0.12731  0.06628  1.0000
  S   S83       1.0  0.54263  0.93506  0.42958  1.0000
  H   H344      1.0  0.50329  0.14203  0.21055  1.0000
  C   C217      1.0  0.31635  0.11327  0.39604  1.0000
  C   C218      1.0  0.54899  0.01897  0.49391  1.0000
  H   H345      1.0  0.33165  0.10861  0.42151  1.0000
  H   H346      1.0  0.46130  0.93001  0.55687  1.0000
  Fe  Fe43      1.0  0.53983  0.95283  0.35947  1.0000
  H   H347      1.0  0.54291  0.04313  0.48897  1.0000
  H   H348      1.0  0.50925  0.97135  0.53950  1.0000
  C   C219      1.0  0.55121  0.96459  0.46790  1.0000
  H   H349      1.0  0.53443  0.00239  0.43043  1.0000
  C   C220      1.0  0.54427  0.99601  0.46077  1.0000
  H   H350      1.0  0.30460  0.02891  0.35535  1.0000
  H   H351      1.0  0.49372  0.91769  0.53188  1.0000
  H   H352      1.0  0.41457  0.08751  0.06320  1.0000
  H   H353      1.0  0.50246  0.87528  0.77205  1.0000
  H   H354      1.0  0.34865  0.71113  0.80283  1.0000
  C   C221      1.0  0.52274  0.87917  0.78309  1.0000
  H   H355      1.0  0.47962  0.89763  0.57989  1.0000
  C   C222      1.0  0.31533  0.65204  0.79676  1.0000
  C   C223      1.0  0.53904  0.90169  0.76212  1.0000
  H   H356      1.0  0.47707  0.92450  0.65542  1.0000
  S   S84       1.0  0.36597  0.11181  0.77350  1.0000
  S   S85       1.0  0.52805  0.01088  0.68484  1.0000
  C   C224      1.0  0.43323  0.03926  0.77923  1.0000
  C   C225      1.0  0.45458  0.01783  0.76936  1.0000
  C   C226      1.0  0.48150  0.02711  0.77317  1.0000
  H   H357      1.0  0.45026  0.99412  0.75850  1.0000
  H   H358      1.0  0.49780  0.01028  0.76617  1.0000
  C   C227      1.0  0.48724  0.05800  0.78607  1.0000
  S   S86       1.0  0.39965  0.02752  0.77324  1.0000
  Fe  Fe44      1.0  0.32190  0.10657  0.79275  1.0000
  C   C228      1.0  0.43889  0.06986  0.79369  1.0000
  C   C229      1.0  0.47921  0.94716  0.63767  1.0000
  N   N21       1.0  0.49551  0.94313  0.59485  1.0000
  C   C230      1.0  0.46589  0.07924  0.79711  1.0000
  Fe  Fe45      1.0  0.37096  0.06431  0.80347  1.0000
  H   H359      1.0  0.47820  0.98498  0.56757  1.0000
  H   H360      1.0  0.45851  0.95668  0.63223  1.0000
  H   H361      1.0  0.48899  0.96360  0.66123  1.0000
  C   C231      1.0  0.49831  0.97384  0.57298  1.0000
  H   H362      1.0  0.50996  0.99058  0.59351  1.0000
  S   S87       1.0  0.52590  0.92468  0.71963  1.0000
  H   H363      1.0  0.33220  0.11675  0.68981  1.0000
  C   C232      1.0  0.31534  0.12591  0.62556  1.0000
  H   H364      1.0  0.42251  0.08655  0.80126  1.0000
  H   H365      1.0  0.53420  0.94696  0.62483  1.0000
  C   C233      1.0  0.52266  0.93027  0.60409  1.0000
  H   H366      1.0  0.52127  0.90798  0.62288  1.0000
  H   H367      1.0  0.53497  0.92516  0.57251  1.0000
  S   S88       1.0  0.52107  0.07013  0.78674  1.0000
  C   C234      1.0  0.31436  0.12407  0.67275  1.0000
  C   C235      1.0  0.31390  0.13844  0.02305  1.0000
  H   H368      1.0  0.33400  0.12014  0.60635  1.0000
  H   H369      1.0  0.47016  0.10316  0.80710  1.0000
  H   H370      1.0  0.49965  0.95318  0.80162  1.0000
  Fe  Fe46      1.0  0.54607  0.03653  0.74227  1.0000
  H   H371      1.0  0.41448  0.14384  0.78361  1.0000
  Fe  Fe47      1.0  0.54963  0.96880  0.71080  1.0000
  H   H372      1.0  0.39596  0.72784  0.81698  1.0000
  H   H373      1.0  0.38302  0.76589  0.83565  1.0000
  H   H374      1.0  0.33609  0.74925  0.82150  1.0000
  C   C236      1.0  0.34175  0.72547  0.83315  1.0000
  H   H375      1.0  0.32291  0.71456  0.84717  1.0000
  S   S89       1.0  0.54210  0.85627  0.99986  1.0000
  S   S90       1.0  0.52626  0.78905  0.95319  1.0000
  H   H376      1.0  0.37660  0.67950  0.85121  1.0000
  H   H377      1.0  0.40376  0.74342  0.87137  1.0000
  C   C237      1.0  0.38746  0.74162  0.84673  1.0000
  H   H378      1.0  0.51981  0.84455  0.83489  1.0000
  H   H379      1.0  0.38635  0.69461  0.90454  1.0000
  H   H380      1.0  0.36832  0.74801  0.93200  1.0000
  Fe  Fe48      1.0  0.35435  0.67034  0.04525  1.0000
  C   C238      1.0  0.39830  0.76638  0.03181  1.0000
  C   C239      1.0  0.36976  0.69472  0.88060  1.0000
  N   N22       1.0  0.36291  0.72690  0.86674  1.0000
  H   H381      1.0  0.43026  0.71465  0.93379  1.0000
  Fe  Fe49      1.0  0.48330  0.80751  0.95562  1.0000
  S   S91       1.0  0.45225  0.77592  0.92613  1.0000
  C   C240      1.0  0.40152  0.71675  0.99076  1.0000
  C   C241      1.0  0.42957  0.76017  0.96655  1.0000
  C   C242      1.0  0.42129  0.72913  0.96106  1.0000
  C   C243      1.0  0.38973  0.73543  0.02585  1.0000
  C   C244      1.0  0.41834  0.77870  0.00233  1.0000
  H   H382      1.0  0.42453  0.80278  0.00655  1.0000
  H   H383      1.0  0.39509  0.69295  0.98597  1.0000
  S   S92       1.0  0.49410  0.85430  0.92661  1.0000
  Fe  Fe50      1.0  0.49807  0.86947  0.99865  1.0000
  S   S93       1.0  0.48343  0.82418  0.02775  1.0000
  C   C245      1.0  0.35264  0.74574  0.90647  1.0000
  H   H384      1.0  0.33460  0.73487  0.92332  1.0000
  Fe  Fe51      1.0  0.52741  0.80969  0.02287  1.0000
  H   H385      1.0  0.34672  0.76998  0.89708  1.0000
  S   S94       1.0  0.32195  0.65916  0.99750  1.0000
  H   H386      1.0  0.35201  0.68336  0.89751  1.0000
  C   C246      1.0  0.53248  0.86193  0.81884  1.0000
  Fe  Fe52      1.0  0.53712  0.83711  0.93026  1.0000
  H   H387      1.0  0.38928  0.78094  0.05895  1.0000
  S   S95       1.0  0.32626  0.05694  0.81592  1.0000
  H   H388      1.0  0.54380  0.13560  0.84173  1.0000
  S   S96       1.0  0.32483  0.12779  0.86173  1.0000
  H   H389      1.0  0.30985  0.12605  0.95333  1.0000
  C   C247      1.0  0.48009  0.95157  0.91267  1.0000
  S   S97       1.0  0.31580  0.05826  0.94760  1.0000
  Fe  Fe53      1.0  0.36935  0.12944  0.84456  1.0000
  C   C248      1.0  0.50328  0.99266  0.87239  1.0000
  N   N23       1.0  0.40171  0.11830  0.01173  1.0000
  H   H390      1.0  0.53916  0.94601  0.84908  1.0000
  Fe  Fe54      1.0  0.33293  0.07888  0.88367  1.0000
  H   H391      1.0  0.39410  0.07740  0.97076  1.0000
  H   H392      1.0  0.43727  0.11887  0.05102  1.0000
  H   H393      1.0  0.43569  0.08598  0.01233  1.0000
  C   C249      1.0  0.38314  0.09488  0.99355  1.0000
  C   C250      1.0  0.31579  0.07378  0.03712  1.0000
  S   S98       1.0  0.37801  0.08238  0.87309  1.0000
  H   H394      1.0  0.42495  0.12094  0.94883  1.0000
  C   C251      1.0  0.52473  0.94155  0.87807  1.0000
  H   H395      1.0  0.52188  0.91570  0.87927  1.0000
  H   H396      1.0  0.53461  0.94867  0.90947  1.0000
  H   H397      1.0  0.37257  0.08168  0.02090  1.0000
  C   C252      1.0  0.42331  0.10196  0.03548  1.0000
  C   C253      1.0  0.31377  0.08492  0.99344  1.0000
  H   H398      1.0  0.48869  0.95924  0.94499  1.0000
  H   H399      1.0  0.51731  0.99872  0.84357  1.0000
  C   C254      1.0  0.48626  0.94813  0.83169  1.0000
  H   H400      1.0  0.46642  0.96031  0.82736  1.0000
  C   C255      1.0  0.31217  0.11727  0.98663  1.0000
  N   N24       1.0  0.49859  0.95849  0.87371  1.0000
  S   S99       1.0  0.48746  0.91851  0.02359  1.0000
  H   H401      1.0  0.31660  0.04876  0.04263  1.0000
  H   H402      1.0  0.48399  0.00613  0.86852  1.0000
  H   H403      1.0  0.48269  0.92239  0.83129  1.0000
  H   H404      1.0  0.47639  0.92593  0.91516  1.0000
  H   H405      1.0  0.36725  0.10628  0.97381  1.0000
  H   H406      1.0  0.51238  0.00138  0.90370  1.0000
  C   C256      1.0  0.41384  0.13648  0.97431  1.0000
  H   H407      1.0  0.46003  0.96365  0.91039  1.0000
  C   C257      1.0  0.38640  0.13980  0.04367  1.0000
  S   S100      1.0  0.36343  0.72077  0.06097  1.0000
  C   C258      1.0  0.48187  0.92112  0.56458  1.0000
  N   N25       1.0  0.73653  0.20254  0.10208  1.0000
  C   C259      1.0  0.71605  0.22795  0.11069  1.0000
  H   H408      1.0  0.70098  0.22831  0.08402  1.0000
  S   S101      1.0  0.69839  0.18782  0.22581  1.0000
  C   C260      1.0  0.66837  0.18939  0.25985  1.0000
  C   C261      1.0  0.72277  0.17200  0.10109  1.0000
  H   H409      1.0  0.71107  0.16783  0.13327  1.0000
  C   C262      1.0  0.75611  0.20286  0.13824  1.0000
  H   H410      1.0  0.74581  0.19928  0.17181  1.0000
  H   H411      1.0  0.70464  0.22487  0.14354  1.0000
  C   C263      1.0  0.65361  0.21764  0.26602  1.0000
  H   H412      1.0  0.77176  0.18382  0.13289  1.0000
  H   H413      1.0  0.66100  0.23876  0.25040  1.0000
  H   H414      1.0  0.72565  0.25137  0.11203  1.0000
  H   H415      1.0  0.76684  0.22557  0.14001  1.0000
  C   C264      1.0  0.62942  0.21869  0.29290  1.0000
  C   C265      1.0  0.57738  0.37783  0.27994  1.0000
  C   C266      1.0  0.65896  0.16228  0.28069  1.0000
  H   H416      1.0  0.70843  0.17046  0.07339  1.0000
  H   H417      1.0  0.60972  0.38523  0.23028  1.0000
  C   C267      1.0  0.58936  0.39211  0.24217  1.0000
  C   C268      1.0  0.61980  0.19137  0.31302  1.0000
  C   C269      1.0  0.63460  0.16322  0.30679  1.0000
  S   S102      1.0  0.56550  0.26697  0.28335  1.0000
  H   H418      1.0  0.73766  0.15232  0.09586  1.0000
  H   H419      1.0  0.61848  0.24070  0.29835  1.0000
  S   S103      1.0  0.59526  0.34848  0.30736  1.0000
  H   H420      1.0  0.78020  0.15073  0.31169  1.0000
  H   H421      1.0  0.56702  0.19906  0.25689  1.0000
  H   H422      1.0  0.56448  0.19111  0.19788  1.0000
  H   H423      1.0  0.71012  0.57668  0.07260  1.0000
  H   H424      1.0  0.72257  0.61775  0.18107  1.0000
  C   C270      1.0  0.64523  0.58531  0.08715  1.0000
  S   S104      1.0  0.65101  0.62390  0.10544  1.0000
  N   N26       1.0  0.72911  0.57779  0.13616  1.0000
  C   C271      1.0  0.57491  0.41498  0.21928  1.0000
  H   H425      1.0  0.58429  0.42599  0.19025  1.0000
  C   C272      1.0  0.63061  0.56535  0.11578  1.0000
  C   C273      1.0  0.62535  0.53449  0.10184  1.0000
  H   H426      1.0  0.62319  0.57379  0.14875  1.0000
  H   H427      1.0  0.61404  0.51916  0.12407  1.0000
  S   S105      1.0  0.57357  0.42671  0.09495  1.0000
  C   C274      1.0  0.71443  0.56105  0.10097  1.0000
  H   H428      1.0  0.69452  0.55239  0.11442  1.0000
  H   H429      1.0  0.76803  0.56906  0.10189  1.0000
  H   H430      1.0  0.74650  0.53544  0.16144  1.0000
  C   C275      1.0  0.75534  0.58881  0.11683  1.0000
  H   H431      1.0  0.76736  0.60061  0.14286  1.0000
  H   H432      1.0  0.74510  0.56823  0.20057  1.0000
  C   C276      1.0  0.73406  0.55630  0.17338  1.0000
  C   C277      1.0  0.71254  0.60503  0.15357  1.0000
  H   H433      1.0  0.70899  0.62217  0.12663  1.0000
  H   H434      1.0  0.69218  0.59776  0.16699  1.0000
  H   H435      1.0  0.71464  0.54762  0.18874  1.0000
  S   S106      1.0  0.55641  0.50201  0.10325  1.0000
  H   H436      1.0  0.75238  0.60611  0.08980  1.0000
  H   H437      1.0  0.72628  0.54040  0.08675  1.0000
  H   H438      1.0  0.59273  0.61514  0.09239  1.0000
  C   C278      1.0  0.57715  0.62484  0.07040  1.0000
  H   H439      1.0  0.56676  0.64478  0.08933  1.0000
  H   H440      1.0  0.56046  0.57560  0.11931  1.0000
  S   S107      1.0  0.58916  0.19171  0.34545  1.0000
  S   S108      1.0  0.57585  0.28064  0.39030  1.0000
  C   C279      1.0  0.80053  0.15943  0.37301  1.0000
  Fe  Fe55      1.0  0.56815  0.23888  0.34573  1.0000
  C   C280      1.0  0.55421  0.28411  0.51286  1.0000
  Fe  Fe56      1.0  0.56863  0.30892  0.32902  1.0000
  H   H441      1.0  0.56242  0.27169  0.48315  1.0000
  N   N27       1.0  0.56959  0.37752  0.45609  1.0000
  H   H442      1.0  0.78582  0.17703  0.38553  1.0000
  H   H443      1.0  0.59893  0.37006  0.50638  1.0000
  C   C281      1.0  0.58033  0.35938  0.49341  1.0000
  H   H444      1.0  0.58954  0.27514  0.55109  1.0000
  C   C282      1.0  0.56948  0.28588  0.55143  1.0000
  H   H445      1.0  0.56512  0.35799  0.52221  1.0000
  H   H446      1.0  0.58252  0.39058  0.38893  1.0000
  H   H447      1.0  0.60925  0.38849  0.42785  1.0000
  H   H448      1.0  0.59519  0.35319  0.40562  1.0000
  C   C283      1.0  0.59003  0.37752  0.41809  1.0000
  H   H449      1.0  0.58576  0.33484  0.48237  1.0000
  H   H450      1.0  0.55526  0.42440  0.44419  1.0000
  H   H451      1.0  0.58196  0.42194  0.48312  1.0000
  C   C284      1.0  0.56346  0.41016  0.47164  1.0000
  H   H452      1.0  0.78161  0.21881  0.75569  1.0000
  C   C285      1.0  0.73492  0.26210  0.70223  1.0000
  H   H453      1.0  0.72243  0.20120  0.68767  1.0000
  H   H454      1.0  0.78366  0.20680  0.67421  1.0000
  H   H455      1.0  0.72212  0.25865  0.67276  1.0000
  C   C286      1.0  0.77039  0.22773  0.66943  1.0000
  H   H456      1.0  0.78397  0.24783  0.66245  1.0000
  C   C287      1.0  0.76846  0.23958  0.74918  1.0000
  N   N28       1.0  0.75209  0.23405  0.70951  1.0000
  C   C288      1.0  0.73455  0.20672  0.71733  1.0000
  H   H457      1.0  0.75882  0.22309  0.63883  1.0000
  H   H458      1.0  0.78194  0.26004  0.74452  1.0000
  H   H459      1.0  0.72002  0.21104  0.74662  1.0000
  H   H460      1.0  0.74668  0.18531  0.72445  1.0000
  S   S109      1.0  0.57673  0.29990  0.64003  1.0000
  H   H461      1.0  0.75529  0.24435  0.78011  1.0000
  H   H462      1.0  0.72095  0.26743  0.73211  1.0000
  H   H463      1.0  0.57673  0.16635  0.73724  1.0000
  S   S110      1.0  0.55925  0.31343  0.77032  1.0000
  H   H464      1.0  0.74742  0.28324  0.69626  1.0000
  H   H465      1.0  0.58827  0.56399  0.04977  1.0000
  H   H466      1.0  0.58666  0.19322  0.78044  1.0000
  C   C289      1.0  0.58895  0.16852  0.76763  1.0000
  H   H467      1.0  0.61069  0.16460  0.75689  1.0000
  C   C290      1.0  0.55842  0.30037  0.59100  1.0000
  H   H468      1.0  0.65800  0.27567  0.77200  1.0000
  H   H469      1.0  0.60781  0.27191  0.78067  1.0000
  C   C291      1.0  0.62045  0.26133  0.80514  1.0000
  C   C292      1.0  0.64884  0.26347  0.80024  1.0000
  S   S111      1.0  0.70089  0.16047  0.80758  1.0000
  C   C293      1.0  0.75991  0.63129  0.80389  1.0000
  H   H470      1.0  0.76602  0.63517  0.76910  1.0000
  H   H471      1.0  0.61185  0.36809  0.96567  1.0000
  H   H472      1.0  0.73754  0.20521  0.02970  1.0000
  C   C294      1.0  0.60866  0.24511  0.84132  1.0000
  S   S112      1.0  0.57346  0.24177  0.84862  1.0000
  S   S113      1.0  0.70075  0.24878  0.82332  1.0000
  H   H473      1.0  0.56449  0.34314  0.87953  1.0000
  H   H474      1.0  0.63957  0.34170  0.87685  1.0000
  H   H475      1.0  0.64237  0.32557  0.93185  1.0000
  H   H476      1.0  0.59473  0.35117  0.84650  1.0000
  C   C295      1.0  0.66530  0.24879  0.83097  1.0000
  H   H477      1.0  0.58530  0.31126  0.85674  1.0000
  C   C296      1.0  0.58587  0.33523  0.87223  1.0000
  S   S114      1.0  0.70692  0.18117  0.91375  1.0000
  C   C297      1.0  0.62511  0.23128  0.87259  1.0000
  C   C298      1.0  0.65334  0.23293  0.86722  1.0000
  H   H478      1.0  0.61607  0.21900  0.90087  1.0000
  H   H479      1.0  0.66580  0.22214  0.89153  1.0000
  Fe  Fe57      1.0  0.71571  0.20190  0.84605  1.0000
  S   S115      1.0  0.75941  0.18628  0.84098  1.0000
  C   C299      1.0  0.58934  0.31290  0.94557  1.0000
  N   N29       1.0  0.60147  0.33528  0.91341  1.0000
  Fe  Fe58      1.0  0.74922  0.16133  0.90521  1.0000
  C   C300      1.0  0.62990  0.32564  0.90165  1.0000
  H   H480      1.0  0.63111  0.30155  0.88634  1.0000
  S   S116      1.0  0.77594  0.15918  0.96385  1.0000
  H   H481      1.0  0.58873  0.28875  0.93043  1.0000
  H   H482      1.0  0.56812  0.31998  0.95602  1.0000
  H   H483      1.0  0.60092  0.31170  0.97668  1.0000
  H   H484      1.0  0.57945  0.37525  0.94283  1.0000
  H   H485      1.0  0.59426  0.17396  0.85724  1.0000
  H   H486      1.0  0.60974  0.38469  0.91074  1.0000
  C   C301      1.0  0.60068  0.36720  0.93403  1.0000
  C   C302      1.0  0.59678  0.14993  0.84205  1.0000
  H   H487      1.0  0.76773  0.18931  0.05211  1.0000
  H   H488      1.0  0.76081  0.23066  0.05691  1.0000
  C   C303      1.0  0.75122  0.20725  0.05833  1.0000
  S   S117      1.0  0.71390  0.63410  0.01893  1.0000
  H   H489      1.0  0.65743  0.53464  0.99811  1.0000
  C   C304      1.0  0.72788  0.64044  0.86768  1.0000
  H   H490      1.0  0.58230  0.58468  0.99932  1.0000
  C   C305      1.0  0.73566  0.64491  0.82240  1.0000
  C   C306      1.0  0.76764  0.60698  0.87508  1.0000
  H   H491      1.0  0.66592  0.58964  0.02220  1.0000
  H   H492      1.0  0.77997  0.59224  0.89550  1.0000
  C   C307      1.0  0.57227  0.57543  0.03047  1.0000
  H   H493      1.0  0.73776  0.61744  0.92870  1.0000
  C   C308      1.0  0.65005  0.54317  0.03106  1.0000
  C   C309      1.0  0.74382  0.62130  0.89394  1.0000
  C   C310      1.0  0.63497  0.52339  0.05937  1.0000
  C   C311      1.0  0.65488  0.57426  0.04468  1.0000
  S   S118      1.0  0.62779  0.48517  0.04099  1.0000
  C   C312      1.0  0.77608  0.61261  0.83041  1.0000
  H   H494      1.0  0.58819  0.63455  0.04043  1.0000
  Fe  Fe59      1.0  0.58512  0.47132  0.06063  1.0000
  N   N30       1.0  0.55775  0.60054  0.05749  1.0000
  S   S119      1.0  0.55667  0.46459  0.00482  1.0000
  H   H495      1.0  0.55826  0.55664  0.02019  1.0000
  C   C313      1.0  0.58077  0.84337  0.16072  1.0000
  H   H496      1.0  0.59038  0.84016  0.19346  1.0000
  H   H497      1.0  0.58478  0.73236  0.08972  1.0000
  S   S120      1.0  0.69996  0.69241  0.09262  1.0000
  C   C314      1.0  0.59599  0.75211  0.07680  1.0000
  H   H498      1.0  0.59684  0.85095  0.13595  1.0000
  H   H499      1.0  0.57380  0.81995  0.14912  1.0000
  C   C315      1.0  0.79395  0.65764  0.21610  1.0000
  C   C316      1.0  0.76271  0.66643  0.15641  1.0000
  H   H500      1.0  0.74224  0.66958  0.14597  1.0000
  H   H501      1.0  0.76554  0.71592  0.29547  1.0000
  H   H502      1.0  0.78170  0.75297  0.30481  1.0000
  C   C317      1.0  0.78445  0.66664  0.12450  1.0000
  N   N31       1.0  0.55798  0.86640  0.16499  1.0000
  H   H503      1.0  0.63449  0.72721  0.07348  1.0000
  H   H504      1.0  0.56165  0.87817  0.09503  1.0000
  C   C318      1.0  0.76743  0.66169  0.20198  1.0000
  C   C319      1.0  0.58230  0.78023  0.06815  1.0000
  S   S121      1.0  0.77880  0.67015  0.06666  1.0000
  H   H505      1.0  0.75048  0.66123  0.22637  1.0000
  H   H506      1.0  0.57734  0.89482  0.21438  1.0000
  S   S122      1.0  0.79888  0.65065  0.27331  1.0000
  C   C320      1.0  0.62409  0.74917  0.06753  1.0000
  H   H507      1.0  0.80131  0.71709  0.30136  1.0000
  H   H508      1.0  0.58366  0.90657  0.15754  1.0000
  C   C321      1.0  0.56793  0.89694  0.18126  1.0000
  S   S123      1.0  0.75318  0.12525  0.18358  1.0000
  Fe  Fe60      1.0  0.57326  0.95734  0.27241  1.0000
  S   S124      1.0  0.61334  0.94950  0.23514  1.0000
  C   C322      1.0  0.63683  0.97438  0.25955  1.0000
  C   C323      1.0  0.65426  0.99217  0.23219  1.0000
  C   C324      1.0  0.67115  0.01437  0.25159  1.0000
  H   H509      1.0  0.65413  0.98948  0.19595  1.0000
  H   H510      1.0  0.68413  0.02849  0.23018  1.0000
  S   S125      1.0  0.69252  0.09705  0.21005  1.0000
  Fe  Fe61      1.0  0.73034  0.08118  0.17083  1.0000
  S   S126      1.0  0.72523  0.06281  0.10058  1.0000
  H   H511      1.0  0.77839  0.09044  0.09381  1.0000
  Fe  Fe62      1.0  0.76731  0.10094  0.24453  1.0000
  S   S127      1.0  0.74775  0.05515  0.22790  1.0000
  Fe  Fe63      1.0  0.71194  0.07516  0.26869  1.0000
  S   S128      1.0  0.73264  0.11899  0.28977  1.0000
  Fe  Fe64      1.0  0.71661  0.13927  0.22737  1.0000
  H   H512      1.0  0.67043  0.14054  0.27680  1.0000
  H   H513      1.0  0.60996  0.08586  0.30780  1.0000
  H   H514      1.0  0.62733  0.14212  0.32214  1.0000
  C   C325      1.0  0.67088  0.01848  0.29840  1.0000
  C   C326      1.0  0.63720  0.97783  0.30642  1.0000
  H   H515      1.0  0.58107  0.06133  0.31768  1.0000
  H   H516      1.0  0.56753  0.14246  0.27123  1.0000
  H   H517      1.0  0.56464  0.13380  0.21223  1.0000
  C   C327      1.0  0.78164  0.72782  0.31418  1.0000
  H   H518      1.0  0.73410  0.72787  0.36218  1.0000
  H   H519      1.0  0.80069  0.76497  0.37974  1.0000
  N   N32       1.0  0.77756  0.72417  0.36337  1.0000
  H   H520      1.0  0.77373  0.68665  0.41056  1.0000
  H   H521      1.0  0.74770  0.73667  0.41595  1.0000
  C   C328      1.0  0.75136  0.73896  0.37893  1.0000
  C   C329      1.0  0.77734  0.69041  0.37386  1.0000
  H   H522      1.0  0.75079  0.76446  0.37144  1.0000
  H   H523      1.0  0.76139  0.67783  0.35569  1.0000
  H   H524      1.0  0.79781  0.73668  0.42371  1.0000
  H   H525      1.0  0.79702  0.67875  0.36336  1.0000
  H   H526      1.0  0.79501  0.65398  0.50712  1.0000
  C   C330      1.0  0.79988  0.73942  0.38655  1.0000
  H   H527      1.0  0.56961  0.93215  0.51235  1.0000
  N   N33       1.0  0.76068  0.06403  0.39692  1.0000
  C   C331      1.0  0.76681  0.05495  0.34927  1.0000
  C   C332      1.0  0.56823  0.97925  0.54059  1.0000
  C   C333      1.0  0.79716  0.14431  0.33140  1.0000
  C   C334      1.0  0.74336  0.09274  0.39943  1.0000
  C   C335      1.0  0.56367  0.95636  0.50736  1.0000
  H   H528      1.0  0.80003  0.04920  0.41776  1.0000
  C   C336      1.0  0.58373  0.10290  0.38639  1.0000
  H   H529      1.0  0.79758  0.08953  0.40248  1.0000
  C   C337      1.0  0.56058  0.01051  0.53415  1.0000
  H   H530      1.0  0.59090  0.05356  0.44065  1.0000
  C   C338      1.0  0.78629  0.07023  0.41916  1.0000
  H   H531      1.0  0.58264  0.10961  0.42279  1.0000
  H   H532      1.0  0.77683  0.07425  0.33075  1.0000
  H   H533      1.0  0.78253  0.07749  0.45509  1.0000
  H   H534      1.0  0.78066  0.03407  0.34582  1.0000
  H   H535      1.0  0.74806  0.04927  0.33165  1.0000
  H   H536      1.0  0.75863  0.01616  0.41802  1.0000
  H   H537      1.0  0.72678  0.03318  0.40330  1.0000
  S   S129      1.0  0.69001  0.04811  0.32283  1.0000
  H   H538      1.0  0.62977  0.08856  0.42656  1.0000
  H   H539      1.0  0.65446  0.00232  0.36207  1.0000
  H   H540      1.0  0.75382  0.11275  0.38295  1.0000
  H   H541      1.0  0.62434  0.96347  0.32770  1.0000
  H   H542      1.0  0.56940  0.04338  0.39579  1.0000
  C   C339      1.0  0.60178  0.06654  0.32876  1.0000
  H   H543      1.0  0.61468  0.04533  0.32064  1.0000
  C   C340      1.0  0.59074  0.04844  0.40379  1.0000
  H   H544      1.0  0.74118  0.04420  0.45567  1.0000
  S   S130      1.0  0.56868  0.98889  0.33343  1.0000
  C   C341      1.0  0.74620  0.03824  0.41960  1.0000
  H   H545      1.0  0.73815  0.10017  0.43490  1.0000
  C   C342      1.0  0.62932  0.08152  0.39038  1.0000
  H   H546      1.0  0.59125  0.12355  0.36761  1.0000
  H   H547      1.0  0.63847  0.10069  0.37025  1.0000
  H   H548      1.0  0.64289  0.06050  0.38476  1.0000
  H   H549      1.0  0.72402  0.08906  0.38232  1.0000
  H   H550      1.0  0.60304  0.02653  0.39687  1.0000
  C   C343      1.0  0.65437  0.99968  0.32585  1.0000
  N   N34       1.0  0.60141  0.07488  0.37730  1.0000
  H   H551      1.0  0.56263  0.09861  0.37614  1.0000
  C   C344      1.0  0.76651  0.09915  0.06687  1.0000
  S   S131      1.0  0.80030  0.66239  0.60183  1.0000
  C   C345      1.0  0.57528  0.88871  0.81138  1.0000
  H   H552      1.0  0.72328  0.65954  0.80190  1.0000
  C   C346      1.0  0.56535  0.90640  0.77621  1.0000
  S   S132      1.0  0.56470  0.99382  0.77133  1.0000
  S   S133      1.0  0.58736  0.97530  0.66702  1.0000
  H   H553      1.0  0.57818  0.92349  0.75980  1.0000
  S   S134      1.0  0.58329  0.04985  0.70170  1.0000
  Fe  Fe65      1.0  0.60058  0.00451  0.72558  1.0000
  S   S135      1.0  0.64312  0.00400  0.74842  1.0000
  H   H554      1.0  0.68876  0.04172  0.76821  1.0000
  Fe  Fe66      1.0  0.56703  0.02005  0.64640  1.0000
  S   S136      1.0  0.76149  0.12111  0.74326  1.0000
  C   C347      1.0  0.64684  0.03440  0.78800  1.0000
  C   C348      1.0  0.67188  0.04905  0.79080  1.0000
  H   H555      1.0  0.57770  0.97270  0.57109  1.0000
  H   H556      1.0  0.57672  0.09610  0.80920  1.0000
  C   C349      1.0  0.58345  0.11366  0.78401  1.0000
  S   S137      1.0  0.56433  0.03910  0.57656  1.0000
  H   H557      1.0  0.57102  0.10997  0.75413  1.0000
  Fe  Fe67      1.0  0.74390  0.14287  0.80779  1.0000
  N   N35       1.0  0.58010  0.14608  0.80237  1.0000
  H   H558      1.0  0.60502  0.10800  0.77374  1.0000
  H   H559      1.0  0.78080  0.12688  0.65210  1.0000
  C   C350      1.0  0.78973  0.14029  0.71993  1.0000
  H   H560      1.0  0.60560  0.03280  0.81494  1.0000
  C   C351      1.0  0.79469  0.13902  0.67327  1.0000
  H   H561      1.0  0.63558  0.77078  0.83778  1.0000
  S   S138      1.0  0.69924  0.66054  0.89169  1.0000
  H   H562      1.0  0.78856  0.69968  0.97298  1.0000
  H   H563      1.0  0.59564  0.89243  0.82221  1.0000
  H   H564      1.0  0.76321  0.68510  0.90558  1.0000
  H   H565      1.0  0.77361  0.72045  0.87862  1.0000
  H   H566      1.0  0.58653  0.82782  0.04615  1.0000
  H   H567      1.0  0.65731  0.80149  0.89675  1.0000
  H   H568      1.0  0.62533  0.81992  0.91431  1.0000
  H   H569      1.0  0.60658  0.74734  0.85189  1.0000
  H   H570      1.0  0.60354  0.78942  0.85395  1.0000
  C   C352      1.0  0.55874  0.86675  0.83314  1.0000
  H   H571      1.0  0.66166  0.74273  0.89494  1.0000
  H   H572      1.0  0.63262  0.71965  0.90996  1.0000
  C   C353      1.0  0.64268  0.74235  0.91669  1.0000
  H   H573      1.0  0.60440  0.76619  0.97381  1.0000
  S   S139      1.0  0.66203  0.68254  0.00500  1.0000
  H   H574      1.0  0.64512  0.79959  0.95424  1.0000
  C   C354      1.0  0.59963  0.76768  0.93780  1.0000
  N   N36       1.0  0.62459  0.76950  0.90855  1.0000
  H   H575      1.0  0.58629  0.78879  0.93440  1.0000
  C   C355      1.0  0.61728  0.76921  0.86091  1.0000
  H   H576      1.0  0.64882  0.74230  0.95228  1.0000
  H   H577      1.0  0.58762  0.74667  0.92944  1.0000
  Fe  Fe68      1.0  0.68755  0.72028  0.03366  1.0000
  C   C356      1.0  0.63870  0.79895  0.91888  1.0000
  S   S140      1.0  0.67319  0.77062  0.03512  1.0000
  S   S141      1.0  0.72490  0.70726  0.99123  1.0000
  Fe  Fe69      1.0  0.73522  0.67562  0.04752  1.0000
  S   S142      1.0  0.57079  0.84617  0.87891  1.0000
  H   H578      1.0  0.63633  0.82317  0.03187  1.0000
  C   C357      1.0  0.63860  0.77467  0.05079  1.0000
  Fe  Fe70      1.0  0.70034  0.66739  0.96655  1.0000
  C   C358      1.0  0.62509  0.80327  0.04420  1.0000
  C   C359      1.0  0.59689  0.80589  0.05211  1.0000
  Fe  Fe71      1.0  0.67770  0.65306  0.06001  1.0000
  C   C360      1.0  0.77970  0.69565  0.88432  1.0000
  H   H579      1.0  0.78044  0.68310  0.85107  1.0000
  H   H580      1.0  0.79836  0.73539  0.94614  1.0000
  H   H581      1.0  0.67871  0.00691  0.01367  1.0000
  C   C361      1.0  0.73995  0.08887  0.06232  1.0000
  Fe  Fe72      1.0  0.69570  0.13824  0.87461  1.0000
  C   C362      1.0  0.62494  0.04416  0.81687  1.0000
  C   C363      1.0  0.70606  0.05535  0.93485  1.0000
  C   C364      1.0  0.77775  0.12063  0.03636  1.0000
  H   H582      1.0  0.59116  0.13291  0.86862  1.0000
  H   H583      1.0  0.65350  0.00493  0.94303  1.0000
  C   C365      1.0  0.70835  0.99880  0.93637  1.0000
  H   H584      1.0  0.67585  0.04890  0.01230  1.0000
  C   C366      1.0  0.68861  0.02830  0.00034  1.0000
  N   N37       1.0  0.69201  0.02698  0.95067  1.0000
  H   H585      1.0  0.66698  0.02364  0.89349  1.0000
  C   C367      1.0  0.73587  0.12150  0.99711  1.0000
  H   H586      1.0  0.61148  0.07514  0.87202  1.0000
  C   C368      1.0  0.76244  0.13167  0.00130  1.0000
  C   C369      1.0  0.72461  0.10029  0.02770  1.0000
  H   H587      1.0  0.69442  0.07712  0.94529  1.0000
  C   C370      1.0  0.62825  0.06814  0.84905  1.0000
  S   S143      1.0  0.73741  0.11636  0.87154  1.0000
  H   H588      1.0  0.72373  0.13036  0.97076  1.0000
  C   C371      1.0  0.65320  0.08308  0.85131  1.0000
  C   C372      1.0  0.66509  0.02553  0.93094  1.0000
  H   H589      1.0  0.70851  0.03033  0.01637  1.0000
  H   H590      1.0  0.65263  0.04707  0.93967  1.0000
  C   C373      1.0  0.67492  0.07375  0.82188  1.0000
  H   H591      1.0  0.69418  0.08534  0.82312  1.0000
  H   H592      1.0  0.71146  0.99728  0.89903  1.0000
  H   H593      1.0  0.70375  0.09346  0.02531  1.0000
  H   H594      1.0  0.72659  0.05722  0.94864  1.0000
  S   S144      1.0  0.65743  0.11259  0.89201  1.0000
  H   H595      1.0  0.69825  0.97691  0.94741  1.0000
  H   H596      1.0  0.70857  0.05534  0.89746  1.0000
  H   H597      1.0  0.72875  0.99917  0.95091  1.0000
  H   H598      1.0  0.79830  0.12853  0.03980  1.0000
  H   H599      1.0  0.61879  0.14612  0.83301  1.0000
  H   H600      1.0  0.79726  0.64843  0.93376  1.0000
  S   S145      1.0  0.88001  0.63052  0.27128  1.0000
  C   C374      1.0  0.96647  0.62760  0.29290  1.0000
  N   N38       1.0  0.97803  0.61433  0.24975  1.0000
  Fe  Fe73      1.0  0.00737  0.48959  0.23247  1.0000
  S   S146      1.0  0.96217  0.48709  0.22859  1.0000
  C   C375      1.0  0.92293  0.52917  0.25995  1.0000
  C   C376      1.0  0.94582  0.51131  0.27025  1.0000
  H   H601      1.0  0.89316  0.56397  0.28397  1.0000
  H   H602      1.0  0.91477  0.52701  0.22692  1.0000
  C   C377      1.0  0.99806  0.63616  0.22999  1.0000
  C   C378      1.0  0.99156  0.58393  0.25780  1.0000
  H   H603      1.0  0.94550  0.63209  0.21134  1.0000
  C   C379      1.0  0.95604  0.60951  0.21838  1.0000
  Fe  Fe74      1.0  0.05117  0.53815  0.22555  1.0000
  H   H604      1.0  0.95136  0.61161  0.30885  1.0000
  S   S147      1.0  0.02633  0.51489  0.17433  1.0000
  S   S148      1.0  0.02964  0.51635  0.28457  1.0000
  H   H605      1.0  0.01491  0.46075  0.11473  1.0000
  C   C380      1.0  0.91085  0.55030  0.29206  1.0000
  H   H606      1.0  0.96404  0.59924  0.18562  1.0000
  H   H607      1.0  0.94047  0.59340  0.23253  1.0000
  H   H608      1.0  0.00761  0.62653  0.19782  1.0000
  H   H609      1.0  0.00046  0.57313  0.22596  1.0000
  S   S149      1.0  0.03696  0.44886  0.22715  1.0000
  H   H610      1.0  0.97712  0.56697  0.27290  1.0000
  H   H611      1.0  0.00837  0.58675  0.28112  1.0000
  H   H612      1.0  0.01483  0.64056  0.25298  1.0000
  C   C381      1.0  0.96466  0.48298  0.10550  1.0000
  H   H613      1.0  0.97506  0.49570  0.13263  1.0000
  H   H614      1.0  0.99404  0.42865  0.09982  1.0000
  H   H615      1.0  0.01080  0.51144  0.07603  1.0000
  H   H616      1.0  0.95421  0.46284  0.12164  1.0000
  H   H617      1.0  0.94885  0.49918  0.09322  1.0000
  C   C382      1.0  0.00399  0.45002  0.08657  1.0000
  N   N39       1.0  0.98414  0.47238  0.06876  1.0000
  H   H618      1.0  0.05264  0.57615  0.31564  1.0000
  C   C383      1.0  0.82290  0.15203  0.39835  1.0000
  H   H619      1.0  0.93875  0.25713  0.51411  1.0000
  S   S150      1.0  0.88222  0.19750  0.52781  1.0000
  H   H620      1.0  0.97241  0.25063  0.44979  1.0000
  H   H621      1.0  0.98682  0.28470  0.42388  1.0000
  C   C384      1.0  0.00501  0.21624  0.52167  1.0000
  Fe  Fe75      1.0  0.86188  0.15841  0.49101  1.0000
  S   S151      1.0  0.96071  0.18917  0.48744  1.0000
  N   N40       1.0  0.95565  0.29477  0.47544  1.0000
  H   H622      1.0  0.01530  0.20993  0.48975  1.0000
  S   S152      1.0  0.02025  0.37724  0.46766  1.0000
  H   H623      1.0  0.97239  0.33797  0.45115  1.0000
  C   C385      1.0  0.96480  0.32724  0.48307  1.0000
  Fe  Fe76      1.0  0.92060  0.16977  0.51115  1.0000
  C   C386      1.0  0.97824  0.20709  0.53059  1.0000
  C   C387      1.0  0.97861  0.27529  0.45625  1.0000
  H   H624      1.0  0.99553  0.27439  0.47964  1.0000
  S   S153      1.0  0.04780  0.30101  0.51077  1.0000
  C   C388      1.0  0.93343  0.29476  0.44380  1.0000
  H   H625      1.0  0.92617  0.27047  0.43745  1.0000
  H   H626      1.0  0.94014  0.30447  0.41073  1.0000
  Fe  Fe77      1.0  0.04776  0.35340  0.51501  1.0000
  C   C389      1.0  0.94582  0.28166  0.51870  1.0000
  H   H627      1.0  0.91570  0.30914  0.45727  1.0000
  S   S154      1.0  0.82557  0.17044  0.45128  1.0000
  H   H628      1.0  0.92853  0.29574  0.53434  1.0000
  H   H629      1.0  0.03884  0.24165  0.54610  1.0000
  C   C390      1.0  0.01815  0.23471  0.55314  1.0000
  H   H630      1.0  0.98174  0.32799  0.50657  1.0000
  H   H631      1.0  0.94812  0.34270  0.49780  1.0000
  H   H632      1.0  0.96216  0.28114  0.54328  1.0000
  H   H633      1.0  0.03938  0.14914  0.55249  1.0000
  H   H634      1.0  0.04799  0.16064  0.49602  1.0000
  H   H635      1.0  0.91545  0.62743  0.55887  1.0000
  H   H636      1.0  0.98251  0.63176  0.31731  1.0000
  C   C391      1.0  0.95617  0.51397  0.31312  1.0000
  H   H637      1.0  0.97360  0.49988  0.32147  1.0000
  C   C392      1.0  0.92130  0.55311  0.33484  1.0000
  H   H638      1.0  0.92732  0.60013  0.51488  1.0000
  C   C393      1.0  0.02565  0.41223  0.39178  1.0000
  H   H639      1.0  0.00570  0.40410  0.38409  1.0000
  H   H640      1.0  0.89914  0.62634  0.45949  1.0000
  C   C394      1.0  0.04016  0.43089  0.36098  1.0000
  C   C395      1.0  0.91088  0.60499  0.54114  1.0000
  C   C396      1.0  0.86292  0.61358  0.55746  1.0000
  H   H641      1.0  0.95181  0.53660  0.37865  1.0000
  H   H642      1.0  0.85833  0.57611  0.48405  1.0000
  H   H643      1.0  0.89398  0.56958  0.47253  1.0000
  N   N41       1.0  0.88394  0.60639  0.52143  1.0000
  C   C397      1.0  0.03719  0.40354  0.43191  1.0000
  H   H644      1.0  0.87828  0.55652  0.52449  1.0000
  H   H645      1.0  0.84218  0.61429  0.54420  1.0000
  C   C398      1.0  0.88362  0.63115  0.48735  1.0000
  H   H646      1.0  0.86358  0.63273  0.47184  1.0000
  C   C399      1.0  0.94375  0.53464  0.34551  1.0000
  C   C400      1.0  0.87837  0.57577  0.49976  1.0000
  H   H647      1.0  0.03134  0.43712  0.32971  1.0000
  S   S155      1.0  0.90696  0.58009  0.37495  1.0000
  S   S156      1.0  0.84725  0.64142  0.36966  1.0000
  Fe  Fe78      1.0  0.88751  0.62187  0.34394  1.0000
  C   C401      1.0  0.00436  0.24465  0.59318  1.0000
  S   S157      1.0  0.01847  0.27336  0.62767  1.0000
  H   H648      1.0  0.84434  0.18293  0.74868  1.0000
  S   S158      1.0  0.86533  0.18522  0.65712  1.0000
  H   H649      1.0  0.96758  0.24107  0.63472  1.0000
  C   C402      1.0  0.97823  0.23372  0.60354  1.0000
  Fe  Fe79      1.0  0.87764  0.16645  0.58750  1.0000
  C   C403      1.0  0.83555  0.16919  0.68085  1.0000
  C   C404      1.0  0.83032  0.17099  0.72754  1.0000
  S   S159      1.0  0.04232  0.35599  0.59035  1.0000
  Fe  Fe80      1.0  0.04650  0.30345  0.58609  1.0000
  H   H650      1.0  0.02304  0.27498  0.72223  1.0000
  C   C405      1.0  0.02954  0.28710  0.75335  1.0000
  H   H651      1.0  0.03280  0.33806  0.80862  1.0000
  H   H652      1.0  0.01116  0.29054  0.77620  1.0000
  N   N42       1.0  0.04248  0.31733  0.74302  1.0000
  H   H653      1.0  0.01642  0.32711  0.68885  1.0000
  H   H654      1.0  0.82034  0.15383  0.61770  1.0000
  H   H655      1.0  0.00451  0.34299  0.74277  1.0000
  C   C406      1.0  0.02303  0.33799  0.72081  1.0000
  H   H656      1.0  0.03220  0.36090  0.71225  1.0000
  C   C407      1.0  0.96515  0.21485  0.57221  1.0000
  H   H657      1.0  0.94447  0.20775  0.57934  1.0000
  H   H658      1.0  0.04374  0.27082  0.76973  1.0000
  C   C408      1.0  0.80737  0.15660  0.74710  1.0000
  C   C409      1.0  0.05062  0.33259  0.78526  1.0000
  C   C410      1.0  0.81733  0.15383  0.65376  1.0000
  H   H659      1.0  0.98538  0.63550  0.81294  1.0000
  H   H660      1.0  0.04076  0.42661  0.73543  1.0000
  S   S160      1.0  0.86926  0.63968  0.76304  1.0000
  S   S161      1.0  0.83570  0.60799  0.68185  1.0000
  Fe  Fe81      1.0  0.87711  0.62727  0.69006  1.0000
  C   C411      1.0  0.94818  0.54474  0.77321  1.0000
  C   C412      1.0  0.96602  0.55486  0.73872  1.0000
  C   C413      1.0  0.95606  0.57268  0.70365  1.0000
  C   C414      1.0  0.92836  0.58054  0.70344  1.0000
  C   C415      1.0  0.91056  0.56980  0.73742  1.0000
  C   C416      1.0  0.92043  0.55179  0.77208  1.0000
  H   H661      1.0  0.96985  0.58097  0.67733  1.0000
  H   H662      1.0  0.88907  0.57522  0.73692  1.0000
  S   S162      1.0  0.91604  0.60510  0.66225  1.0000
  Fe  Fe82      1.0  0.82653  0.62537  0.75284  1.0000
  H   H663      1.0  0.98750  0.54946  0.73953  1.0000
  S   S163      1.0  0.03502  0.50147  0.77128  1.0000
  H   H664      1.0  0.95339  0.62589  0.79003  1.0000
  H   H665      1.0  0.90654  0.54376  0.79848  1.0000
  H   H666      1.0  0.86305  0.59575  0.58432  1.0000
  H   H667      1.0  0.97504  0.59549  0.80988  1.0000
  S   S164      1.0  0.80782  0.59799  0.80972  1.0000
  H   H668      1.0  0.86620  0.63681  0.57395  1.0000
  H   H669      1.0  0.91193  0.58616  0.56650  1.0000
  Fe  Fe83      1.0  0.05122  0.47509  0.82896  1.0000
  H   H670      1.0  0.98423  0.51767  0.03776  1.0000
  S   S165      1.0  0.03082  0.56316  0.84045  1.0000
  C   C417      1.0  0.96754  0.61993  0.81679  1.0000
  H   H671      1.0  0.91779  0.60770  0.89725  1.0000
  H   H672      1.0  0.95458  0.47305  0.01791  1.0000
  Fe  Fe84      1.0  0.04775  0.53199  0.89224  1.0000
  N   N43       1.0  0.95416  0.62318  0.86222  1.0000
  C   C418      1.0  0.96945  0.45672  0.03264  1.0000
  C   C419      1.0  0.99853  0.49976  0.05028  1.0000
  S   S166      1.0  0.96012  0.52586  0.82032  1.0000
  H   H673      1.0  0.99233  0.62379  0.89435  1.0000
  H   H674      1.0  0.01274  0.49272  0.02156  1.0000
  S   S167      1.0  0.01942  0.49265  0.88001  1.0000
  C   C420      1.0  0.92891  0.60495  0.86399  1.0000
  H   H675      1.0  0.96367  0.61384  0.93062  1.0000
  Fe  Fe85      1.0  0.00527  0.52196  0.82376  1.0000
  H   H676      1.0  0.93326  0.57946  0.85830  1.0000
  H   H677      1.0  0.91496  0.61233  0.83758  1.0000
  H   H678      1.0  0.95813  0.43610  0.04546  1.0000
  C   C421      1.0  0.97272  0.61117  0.89577  1.0000
  H   H679      1.0  0.97754  0.58571  0.88967  1.0000
  H   H680      1.0  0.98373  0.44818  0.00469  1.0000
  S   S168      1.0  0.05353  0.55412  0.95982  1.0000
  H   H681      1.0  0.81532  0.64674  0.87987  1.0000
  H   H682      1.0  0.01972  0.44238  0.06030  1.0000
  H   H683      1.0  0.80383  0.15729  0.78325  1.0000
  S   S169      1.0  0.92855  0.69579  0.23230  1.0000
  S   S170      1.0  0.85979  0.70208  0.30502  1.0000
  S   S171      1.0  0.03904  0.81227  0.19383  1.0000
  S   S172      1.0  0.03608  0.75804  0.29605  1.0000
  C   C422      1.0  0.95750  0.71459  0.25120  1.0000
  C   C423      1.0  0.96217  0.71798  0.29710  1.0000
  C   C424      1.0  0.00578  0.74149  0.27894  1.0000
  C   C425      1.0  0.00092  0.73851  0.23313  1.0000
  C   C426      1.0  0.97687  0.72507  0.21933  1.0000
  H   H684      1.0  0.01572  0.74635  0.20809  1.0000
  H   H685      1.0  0.97339  0.72257  0.18377  1.0000
  N   N44       1.0  0.02338  0.87997  0.08309  1.0000
  C   C427      1.0  0.05076  0.86616  0.08722  1.0000
  H   H686      1.0  0.82795  0.66301  0.11423  1.0000
  C   C428      1.0  0.81101  0.66281  0.13869  1.0000
  S   S173      1.0  0.03195  0.77699  0.07565  1.0000
  Fe  Fe86      1.0  0.89900  0.67721  0.28459  1.0000
  H   H687      1.0  0.83634  0.65547  0.19508  1.0000
  H   H688      1.0  0.00437  0.84899  0.13067  1.0000
  H   H689      1.0  0.98846  0.65923  0.22280  1.0000
  C   C429      1.0  0.81580  0.65853  0.18445  1.0000
  H   H690      1.0  0.01670  0.88466  0.15494  1.0000
  C   C430      1.0  0.00691  0.87459  0.12495  1.0000
  H   H691      1.0  0.98626  0.88535  0.12371  1.0000
  H   H692      1.0  0.01748  0.83668  0.30213  1.0000
  H   H693      1.0  0.04286  0.86650  0.30169  1.0000
  H   H694      1.0  0.04957  0.84061  0.09345  1.0000
  Fe  Fe87      1.0  0.84139  0.65454  0.29781  1.0000
  H   H695      1.0  0.95596  0.65045  0.28790  1.0000
  C   C431      1.0  0.81602  0.12151  0.31503  1.0000
  C   C432      1.0  0.02560  0.91406  0.07583  1.0000
  H   H696      1.0  0.00529  0.92537  0.07271  1.0000
  H   H697      1.0  0.03545  0.92594  0.10440  1.0000
  S   S174      1.0  0.81071  0.10043  0.26487  1.0000
  C   C433      1.0  0.98637  0.73125  0.31097  1.0000
  H   H698      1.0  0.94717  0.71051  0.32194  1.0000
  C   C434      1.0  0.81091  0.67073  0.51211  1.0000
  S   S175      1.0  0.90943  0.66662  0.35508  1.0000
  H   H699      1.0  0.82015  0.67609  0.44134  1.0000
  C   C435      1.0  0.03617  0.84457  0.31830  1.0000
  H   H700      1.0  0.99102  0.86821  0.36179  1.0000
  H   H701      1.0  0.00670  0.87886  0.41314  1.0000
  C   C436      1.0  0.01064  0.87449  0.37628  1.0000
  H   H702      1.0  0.03718  0.80057  0.38164  1.0000
  H   H703      1.0  0.00280  0.81206  0.37305  1.0000
  H   H704      1.0  0.01807  0.82294  0.42482  1.0000
  C   C437      1.0  0.02196  0.81997  0.38772  1.0000
  H   H705      1.0  0.98994  0.73370  0.34646  1.0000
  C   C438      1.0  0.85184  0.71411  0.52494  1.0000
  C   C439      1.0  0.84581  0.70463  0.48125  1.0000
  H   H706      1.0  0.86752  0.73111  0.52994  1.0000
  S   S176      1.0  0.86427  0.71984  0.43510  1.0000
  S   S177      1.0  0.02010  0.87098  0.51096  1.0000
  Fe  Fe88      1.0  0.86850  0.68717  0.37479  1.0000
  N   N45       1.0  0.03145  0.84945  0.36743  1.0000
  C   C440      1.0  0.82521  0.68308  0.47487  1.0000
  H   H707      1.0  0.01718  0.89710  0.36142  1.0000
  C   C441      1.0  0.81746  0.67951  0.55585  1.0000
  H   H708      1.0  0.81995  0.72896  0.37532  1.0000
  H   H709      1.0  0.88769  0.65467  0.50235  1.0000
  H   H710      1.0  0.93806  0.99969  0.53653  1.0000
  C   C442      1.0  0.84209  0.12964  0.38167  1.0000
  Fe  Fe89      1.0  0.04240  0.98475  0.47553  1.0000
  S   S178      1.0  0.04487  0.93970  0.43475  1.0000
  S   S179      1.0  0.85492  0.12904  0.55194  1.0000
  C   C443      1.0  0.95247  0.07264  0.49898  1.0000
  H   H711      1.0  0.85941  0.12381  0.40098  1.0000
  Fe  Fe90      1.0  0.89577  0.10779  0.53358  1.0000
  C   C444      1.0  0.97554  0.01229  0.50147  1.0000
  H   H712      1.0  0.03732  0.09729  0.45103  1.0000
  C   C445      1.0  0.04692  0.08699  0.53798  1.0000
  C   C446      1.0  0.94935  0.01838  0.52079  1.0000
  H   H713      1.0  0.02573  0.08134  0.52971  1.0000
  H   H714      1.0  0.98433  0.98892  0.50225  1.0000
  S   S180      1.0  0.90073  0.13341  0.46860  1.0000
  C   C447      1.0  0.83868  0.11445  0.33996  1.0000
  H   H715      1.0  0.94397  0.09609  0.49826  1.0000
  Fe  Fe91      1.0  0.04126  0.91676  0.50194  1.0000
  H   H716      1.0  0.98914  0.08511  0.46237  1.0000
  H   H717      1.0  0.85339  0.09690  0.32731  1.0000
  C   C448      1.0  0.98993  0.03636  0.48029  1.0000
  S   S181      1.0  0.03440  0.96174  0.54193  1.0000
  S   S182      1.0  0.02264  0.02977  0.45578  1.0000
  C   C449      1.0  0.93776  0.04860  0.51939  1.0000
  S   S183      1.0  0.90493  0.05655  0.54278  1.0000
  C   C450      1.0  0.97827  0.06645  0.47893  1.0000
  C   C451      1.0  0.04029  0.14091  0.51667  1.0000
  H   H718      1.0  0.01904  0.13647  0.50722  1.0000
  H   H719      1.0  0.05213  0.82627  0.31046  1.0000
  C   C452      1.0  0.83784  0.70136  0.56223  1.0000
  H   H720      1.0  0.90742  0.78492  0.74566  1.0000
  Fe  Fe92      1.0  0.85576  0.68629  0.73844  1.0000
  S   S184      1.0  0.87092  0.72819  0.77574  1.0000
  H   H721      1.0  0.92627  0.81850  0.72746  1.0000
  S   S185      1.0  0.01823  0.76828  0.71584  1.0000
  H   H722      1.0  0.90868  0.68289  0.73369  1.0000
  Fe  Fe93      1.0  0.01562  0.75062  0.78611  1.0000
  C   C453      1.0  0.90561  0.72121  0.78235  1.0000
  C   C454      1.0  0.91927  0.69710  0.75735  1.0000
  C   C455      1.0  0.94708  0.69182  0.76163  1.0000
  C   C456      1.0  0.96138  0.71085  0.79065  1.0000
  H   H723      1.0  0.95756  0.67337  0.74177  1.0000
  C   C457      1.0  0.92439  0.79262  0.72273  1.0000
  C   C458      1.0  0.89367  0.79799  0.66245  1.0000
  N   N46       1.0  0.91973  0.78398  0.67534  1.0000
  C   C459      1.0  0.91875  0.74943  0.67020  1.0000
  H   H724      1.0  0.96210  0.78642  0.65580  1.0000
  C   C460      1.0  0.94210  0.79593  0.64604  1.0000
  S   S186      1.0  0.98139  0.84975  0.71377  1.0000
  C   C461      1.0  0.99246  0.85584  0.65754  1.0000
  H   H725      1.0  0.00941  0.80925  0.64654  1.0000
  C   C462      1.0  0.00568  0.83172  0.63195  1.0000
  Fe  Fe94      1.0  0.00789  0.81509  0.74818  1.0000
  H   H726      1.0  0.87639  0.78935  0.68405  1.0000
  S   S187      1.0  0.99612  0.70427  0.79558  1.0000
  H   H727      1.0  0.93763  0.73793  0.68151  1.0000
  H   H728      1.0  0.90139  0.73984  0.69051  1.0000
  H   H729      1.0  0.91617  0.74200  0.63460  1.0000
  H   H730      1.0  0.84237  0.70897  0.59585  1.0000
  H   H731      1.0  0.94349  0.78167  0.73415  1.0000
  H   H732      1.0  0.88949  0.79197  0.62687  1.0000
  S   S188      1.0  0.86715  0.67524  0.66603  1.0000
  H   H733      1.0  0.89369  0.82406  0.66609  1.0000
  H   H734      1.0  0.94309  0.82201  0.64856  1.0000
  S   S189      1.0  0.81213  0.67335  0.73383  1.0000
  C   C463      1.0  0.01372  0.83638  0.58680  1.0000
  H   H735      1.0  0.93965  0.78948  0.61004  1.0000
  H   H736      1.0  0.02366  0.81749  0.56710  1.0000
  C   C464      1.0  0.00938  0.86553  0.56733  1.0000
  C   C465      1.0  0.98756  0.88481  0.63774  1.0000
  C   C466      1.0  0.99648  0.88987  0.59293  1.0000
  S   S190      1.0  0.05089  0.82798  0.75840  1.0000
  Fe  Fe95      1.0  0.82483  0.65731  0.66316  1.0000
  C   C467      1.0  0.01043  0.86486  0.04455  1.0000
  H   H737      1.0  0.03803  0.91881  0.04456  1.0000
  H   H738      1.0  0.97717  0.90352  0.65721  1.0000
  H   H739      1.0  0.89514  0.09023  0.62609  1.0000
  H   H740      1.0  0.86511  0.01978  0.67714  1.0000
  H   H741      1.0  0.83384  0.05820  0.71963  1.0000
  H   H742      1.0  0.83793  0.09939  0.71123  1.0000
  N   N47       1.0  0.86379  0.06970  0.66783  1.0000
  C   C468      1.0  0.84907  0.07646  0.71151  1.0000
  C   C469      1.0  0.88305  0.09512  0.65804  1.0000
  C   C470      1.0  0.84414  0.06773  0.63190  1.0000
  C   C471      1.0  0.87894  0.03955  0.66967  1.0000
  H   H743      1.0  0.85462  0.06305  0.59834  1.0000
  H   H744      1.0  0.82942  0.04862  0.63796  1.0000
  H   H745      1.0  0.89009  0.03389  0.63688  1.0000
  H   H746      1.0  0.89424  0.04031  0.69599  1.0000
  H   H747      1.0  0.89763  0.09813  0.68515  1.0000
  H   H748      1.0  0.86320  0.07776  0.73955  1.0000
  H   H749      1.0  0.83225  0.09002  0.62967  1.0000
  H   H750      1.0  0.87232  0.11802  0.65452  1.0000
  H   H751      1.0  0.99278  0.91236  0.57789  1.0000
  H   H752      1.0  0.04027  0.90465  0.65771  1.0000
  H   H753      1.0  0.04677  0.09346  0.57441  1.0000
  S   S191      1.0  0.91818  0.14251  0.57453  1.0000
  C   C472      1.0  0.91993  0.74023  0.81151  1.0000
  C   C473      1.0  0.94787  0.73515  0.81547  1.0000
  H   H754      1.0  0.90948  0.75894  0.83086  1.0000
  C   C474      1.0  0.94751  0.65662  0.87227  1.0000
  H   H755      1.0  0.02293  0.86719  0.01263  1.0000
  H   H756      1.0  0.93785  0.66007  0.90658  1.0000
  S   S192      1.0  0.00125  0.79657  0.81811  1.0000
  H   H757      1.0  0.95886  0.74969  0.83835  1.0000
  H   H758      1.0  0.96606  0.67120  0.87041  1.0000
  H   H759      1.0  0.82259  0.73273  0.86981  1.0000
  C   C475      1.0  0.81318  0.66007  0.91250  1.0000
  H   H760      1.0  0.82918  0.69530  0.84254  1.0000
  H   H761      1.0  0.84756  0.70632  0.89085  1.0000
  C   C476      1.0  0.82728  0.70759  0.87606  1.0000
  H   H762      1.0  0.00783  0.83923  0.04979  1.0000
  C   C477      1.0  0.04337  0.78809  0.02153  1.0000
  N   N48       1.0  0.80610  0.69343  0.90568  1.0000
  H   H763      1.0  0.00796  0.77038  0.99045  1.0000
  C   C478      1.0  0.80414  0.71024  0.94975  1.0000
  C   C479      1.0  0.03451  0.79327  0.94219  1.0000
  H   H764      1.0  0.93323  0.66615  0.84786  1.0000
  H   H765      1.0  0.02159  0.78910  0.91438  1.0000
  C   C480      1.0  0.02685  0.78263  0.98521  1.0000
  H   H766      1.0  0.82372  0.70924  0.96684  1.0000
  H   H767      1.0  0.83269  0.65746  0.92941  1.0000
  Fe  Fe96      1.0  0.04584  0.80457  0.82484  1.0000
  H   H768      1.0  0.98997  0.87521  0.03954  1.0000
