data_image0
_chemical_formula_structural       FeS2CFeSHFeH2FeHFeS2FeSHCHCH6SHSCHCHC6H5FeH2NCHC2HSH2SHCH2SH2NCHC2HCHCH4CS2CH2C6H3C2FeCH2SHCH3NHSH2SH2NH2CH4CHCH2SFeSC2FeSFeS2H3CH2C3H6CSH2C2H8CHFeS2FeS2FeSFeS3H2SHNHCHCH6CH2CFeC6H4C3H2C2H3C4HCH4SC3NC2HNHC2H4CH3CHCH3C2HCSNHSCHFe2SHSFeS2FeS2H4C2HCHC6H8C2HNC2H5NHCNHCH2SHSCHC2HFeHCSHCHSHSCSH3CHCH2FeHCHCHCHCH3FeSHC6H3CFeCHSCHCH9C3H3CHCFeS2FeHSH3CHFeSCFeS2CSC2NCH3SH4CHC2H2C2H3FeS2FeSCFeSFeS3C2HCHNC4H2C2HCHCSH3CH4CHC2HCHCHCH3CHCNHCH2CHC2H6CH12NC2H2FeSHFeS2FeSFeCS2C2NHFeSNCH3C2H2CHC6H4SC2HC2H10CH4CHFeH3C2HC2HCH3NCSCHCSH2CHC2H2SCFe2SHCNC4H2CH4CH7SHNHCH3CH10CHSC2HCH3SFeSCH2CHCHCH2CH5C2HCNC3HCHCH3SHSHC2HFeS2FeS2FeSFeS3CHCHCH2CFeSH4SC6H6CHCHNC4H5CH3FeH3CHFeSHCHSC3H2CN2HCH3CSH3NSFeSFeS2FeSFeS3CHFeCSH3SCSC2HC6H7C3H2NCSHFeHSH2C2H5C2H2C2H2C2FeH2CHCSH4SFeSC5H5SCH2CH3FeCHCHNHCHNH4C2H4CHCH3CSHSCH2CFeCSCSH2CHC2H4CHSH2NHCHCH2C3H2CHFeS2FeSHFeHFeS3HFeHC6H4CHC2SHSCH2CH4SH3C2H2NHCNHCH4FeCH5CH2C2H5C2H2NCHSH3CSC2FeSCFeS2HFeS2H4CH2S2FeH6CS2H3CHC6H7CHCHNC3H3N2H2CHSH2C4H2FeHSH2CH4CSH3SH2CHNHC3HC5H2CH3SHNCNCFeSH2FeSFeSC3HCHCHCH2CH2CHCH2CHC2SC2H5SCH2S2FeSHFeS2FeSFeHS3HCH6CHC6H13CH2C3SHNH2C2H4Fe2CS2HC4HC3NC2H4C2SH3CFeHCHCFeCH7CH2FeS2FeS2FeS2HCHFeHSCSH2FeCNH2C7H5SCFeH3CHC4HSH5CNH3FeHSH2CNC3H11CH3S2CHC4H5SH2CHNC4H2CHC2HCH6NH2CH5CSC2H3CH2Fe2S2FeS2CH2CHCHCHCH2C2H3NFeH2CH2C2FeS2FeS2FeSFeS3C5SCH2SH4CHCHC3H2SC2H2CH2NCH5SCH8C3HC2H3SHC3HCH2FeH2CH3NHCHCFeS2FeSC2SHS2H2SFeSFe2SHCH2CHCHCH3CSHSHCSHC7H4FeH6C2FeHCHC2HCNCH3SC2HCHCHC2N2SFeH2C3H2CH6CSHCH4C2H2C2HCH6SH2FeS2FeSFeHFeS3H3C4HSCNH2C2HCH5CNHCHC3H7CHFeS2FeS2FeSFeS3HCHCH2CHCH2C4HNCH2CH3C2H2C4H2CH4C2HN2H4CH6CH4CHCHC2HCHCH2CH2C2H3CH2CH2FeHSFeS3HSFeS2FeH2SC2NFe2HSH3C6H4C4H2SNC2HNC4H15C3HFeH2S2CHC2SHSCHC2H3S2C6H2CH3FeH4SH2C3NH3C2HC2FeS2FeS2FeH2S2C3H7CH4SH4CH7NC2HFeH2CFeS2FeS2FeSFeS3HNCNHC7H4CHCH5C4H3C3H3SC2H7CH4NCH2C2H5CH
_chemical_formula_sum              "Fe128 S256 C640 H1024 N64"
_cell_length_a       60.6938
_cell_length_b       31.4695
_cell_length_c       39.691
_cell_angle_alpha    91.6586
_cell_angle_beta     91.5526
_cell_angle_gamma    89.4957

_space_group_name_H-M_alt    "P 1"
_space_group_IT_number       1

loop_
  _space_group_symop_operation_xyz
  'x, y, z'

loop_
  _atom_site_type_symbol
  _atom_site_label
  _atom_site_symmetry_multiplicity
  _atom_site_fract_x
  _atom_site_fract_y
  _atom_site_fract_z
  _atom_site_occupancy
  Fe  Fe1       1.0  0.28350  0.29249  0.38428  1.0000
  S   S1        1.0  0.30007  0.23490  0.36194  1.0000
  S   S2        1.0  0.27081  0.34557  0.35220  1.0000
  C   C1        1.0  0.20492  0.52804  0.15771  1.0000
  Fe  Fe2       1.0  0.18743  0.34918  0.11908  1.0000
  S   S3        1.0  0.22034  0.36492  0.14316  1.0000
  H   H1        1.0  0.26371  0.14880  0.50251  1.0000
  Fe  Fe3       1.0  0.32540  0.24522  0.40339  1.0000
  H   H2        1.0  0.26839  0.39336  0.53492  1.0000
  H   H3        1.0  0.19425  0.26430  0.27029  1.0000
  Fe  Fe4       1.0  0.28167  0.19878  0.39987  1.0000
  H   H4        1.0  0.18268  0.26388  0.32983  1.0000
  Fe  Fe5       1.0  0.16291  0.36854  0.18352  1.0000
  S   S4        1.0  0.19363  0.38639  0.21282  1.0000
  S   S5        1.0  0.22005  0.48298  0.16990  1.0000
  Fe  Fe6       1.0  0.20833  0.32914  0.18690  1.0000
  S   S6        1.0  0.22755  0.27921  0.21448  1.0000
  H   H5        1.0  0.26014  0.26106  0.32679  1.0000
  C   C2        1.0  0.16941  0.28719  0.32335  1.0000
  H   H6        1.0  0.16571  0.26852  0.25688  1.0000
  C   C3        1.0  0.18399  0.52432  0.14234  1.0000
  H   H7        1.0  0.21139  0.15673  0.45121  1.0000
  H   H8        1.0  0.14193  0.44866  0.18480  1.0000
  H   H9        1.0  0.14265  0.32777  0.27854  1.0000
  H   H10       1.0  0.22498  0.23909  0.51743  1.0000
  H   H11       1.0  0.18528  0.30637  0.24386  1.0000
  H   H12       1.0  0.35757  0.31291  0.43165  1.0000
  S   S7        1.0  0.17680  0.30845  0.16090  1.0000
  H   H13       1.0  0.15425  0.26890  0.31644  1.0000
  S   S8        1.0  0.36078  0.23691  0.38905  1.0000
  C   C4        1.0  0.11604  0.41434  0.20784  1.0000
  H   H14       1.0  0.28384  0.12976  0.45057  1.0000
  C   C5        1.0  0.31655  0.34344  0.28576  1.0000
  H   H15       1.0  0.34946  0.28607  0.27857  1.0000
  C   C6        1.0  0.25903  0.32707  0.31381  1.0000
  C   C7        1.0  0.25298  0.35603  0.28900  1.0000
  C   C8        1.0  0.24364  0.34151  0.25808  1.0000
  C   C9        1.0  0.24036  0.29799  0.25200  1.0000
  C   C10       1.0  0.24662  0.26905  0.27668  1.0000
  C   C11       1.0  0.25582  0.28358  0.30762  1.0000
  H   H16       1.0  0.25552  0.38972  0.29366  1.0000
  H   H17       1.0  0.23910  0.36397  0.23893  1.0000
  H   H18       1.0  0.24408  0.23536  0.27204  1.0000
  H   H19       1.0  0.23571  0.42312  0.56405  1.0000
  H   H20       1.0  0.20523  0.22288  0.48525  1.0000
  Fe  Fe7       1.0  0.20248  0.42055  0.16641  1.0000
  H   H21       1.0  0.23060  0.57133  0.17417  1.0000
  H   H22       1.0  0.20994  0.31622  0.31218  1.0000
  N   N1        1.0  0.17593  0.31423  0.29554  1.0000
  C   C12       1.0  0.18045  0.28710  0.26543  1.0000
  H   H23       1.0  0.17656  0.49363  0.13859  1.0000
  C   C13       1.0  0.34409  0.29309  0.30472  1.0000
  C   C14       1.0  0.19600  0.33806  0.30587  1.0000
  H   H24       1.0  0.26535  0.19842  0.48176  1.0000
  S   S9        1.0  0.13064  0.36614  0.20968  1.0000
  H   H25       1.0  0.24284  0.47447  0.54967  1.0000
  H   H26       1.0  0.16602  0.30658  0.34658  1.0000
  S   S10       1.0  0.26320  0.13943  0.38454  1.0000
  H   H27       1.0  0.24053  0.45096  0.10801  1.0000
  C   C15       1.0  0.17253  0.56065  0.13175  1.0000
  H   H28       1.0  0.11916  0.51291  0.17531  1.0000
  H   H29       1.0  0.20151  0.35855  0.28538  1.0000
  S   S11       1.0  0.17036  0.40757  0.13900  1.0000
  H   H30       1.0  0.15368  0.36495  0.30979  1.0000
  H   H31       1.0  0.19325  0.35907  0.32843  1.0000
  N   N2        1.0  0.33580  0.33721  0.30879  1.0000
  C   C16       1.0  0.12511  0.44964  0.19290  1.0000
  H   H32       1.0  0.16248  0.36602  0.26711  1.0000
  C   C17       1.0  0.15790  0.34450  0.28752  1.0000
  C   C18       1.0  0.21436  0.56827  0.16243  1.0000
  H   H33       1.0  0.35839  0.28702  0.32205  1.0000
  C   C19       1.0  0.27764  0.42249  0.54294  1.0000
  H   H34       1.0  0.22352  0.16896  0.54356  1.0000
  C   C20       1.0  0.22310  0.22285  0.49223  1.0000
  H   H35       1.0  0.31640  0.32184  0.35095  1.0000
  H   H36       1.0  0.15635  0.55760  0.11988  1.0000
  H   H37       1.0  0.35906  0.36234  0.27474  1.0000
  H   H38       1.0  0.25492  0.48642  0.08180  1.0000
  C   C21       1.0  0.32905  0.34496  0.34390  1.0000
  S   S12       1.0  0.31026  0.30596  0.42313  1.0000
  S   S13       1.0  0.19802  0.37761  0.54005  1.0000
  C   C22       1.0  0.22119  0.15438  0.51780  1.0000
  H   H39       1.0  0.32099  0.33863  0.25891  1.0000
  H   H40       1.0  0.29535  0.41326  0.54543  1.0000
  C   C23       1.0  0.26111  0.30342  0.51842  1.0000
  C   C24       1.0  0.25222  0.30299  0.55055  1.0000
  C   C25       1.0  0.23240  0.32450  0.55700  1.0000
  C   C26       1.0  0.22167  0.34723  0.53155  1.0000
  C   C27       1.0  0.23045  0.34727  0.49929  1.0000
  C   C28       1.0  0.25018  0.32541  0.49272  1.0000
  H   H41       1.0  0.27990  0.50425  0.56508  1.0000
  H   H42       1.0  0.26052  0.28558  0.57038  1.0000
  H   H43       1.0  0.22221  0.36493  0.47955  1.0000
  C   C29       1.0  0.23831  0.47466  0.08784  1.0000
  C   C30       1.0  0.24569  0.45181  0.57037  1.0000
  Fe  Fe8       1.0  0.29101  0.26363  0.45563  1.0000
  C   C31       1.0  0.25624  0.18113  0.50102  1.0000
  H   H44       1.0  0.30936  0.37595  0.28890  1.0000
  H   H45       1.0  0.25715  0.32640  0.46797  1.0000
  S   S14       1.0  0.28566  0.27582  0.51079  1.0000
  H   H46       1.0  0.23156  0.24284  0.47396  1.0000
  C   C32       1.0  0.22914  0.15872  0.45871  1.0000
  H   H47       1.0  0.22889  0.50196  0.09891  1.0000
  H   H48       1.0  0.30317  0.32064  0.29087  1.0000
  H   H49       1.0  0.25947  0.19808  0.52567  1.0000
  N   N3        1.0  0.23241  0.17927  0.49242  1.0000
  H   H50       1.0  0.32179  0.37729  0.34773  1.0000
  S   S15       1.0  0.26268  0.25564  0.41861  1.0000
  H   H51       1.0  0.22775  0.12124  0.51844  1.0000
  H   H52       1.0  0.20314  0.15260  0.51225  1.0000
  S   S16       1.0  0.30856  0.20369  0.43952  1.0000
  H   H53       1.0  0.34771  0.40084  0.30402  1.0000
  H   H54       1.0  0.33124  0.26956  0.31059  1.0000
  N   N4        1.0  0.26929  0.44087  0.57489  1.0000
  H   H55       1.0  0.23749  0.17661  0.43896  1.0000
  H   H56       1.0  0.34321  0.34184  0.36198  1.0000
  C   C33       1.0  0.35342  0.36726  0.30102  1.0000
  H   H57       1.0  0.20679  0.41476  0.08611  1.0000
  H   H58       1.0  0.23608  0.12583  0.45781  1.0000
  H   H59       1.0  0.22461  0.30656  0.08848  1.0000
  H   H60       1.0  0.27589  0.44526  0.52208  1.0000
  C   C34       1.0  0.27964  0.09873  0.44035  1.0000
  H   H61       1.0  0.11470  0.59093  0.19042  1.0000
  C   C35       1.0  0.11226  0.48627  0.18789  1.0000
  H   H62       1.0  0.19471  0.46588  0.07885  1.0000
  H   H63       1.0  0.34556  0.31243  0.77420  1.0000
  S   S17       1.0  0.21958  0.38139  0.63488  1.0000
  Fe  Fe9       1.0  0.21260  0.44742  0.65348  1.0000
  S   S18       1.0  0.24166  0.48960  0.66422  1.0000
  C   C36       1.0  0.20500  0.44014  0.06736  1.0000
  C   C37       1.0  0.20731  0.57880  0.71628  1.0000
  Fe  Fe10      1.0  0.16325  0.43712  0.64495  1.0000
  S   S19       1.0  0.18668  0.42886  0.68931  1.0000
  Fe  Fe11      1.0  0.19156  0.36317  0.66687  1.0000
  S   S20       1.0  0.19805  0.30356  0.69525  1.0000
  S   S21       1.0  0.16586  0.36953  0.62545  1.0000
  H   H64       1.0  0.20659  0.51077  0.70935  1.0000
  H   H65       1.0  0.25738  0.57473  0.65758  1.0000
  H   H66       1.0  0.22098  0.25774  0.74666  1.0000
  C   C38       1.0  0.21476  0.53970  0.70302  1.0000
  H   H67       1.0  0.19339  0.57991  0.73277  1.0000
  H   H68       1.0  0.24456  0.43643  0.81594  1.0000
  C   C39       1.0  0.24720  0.37399  0.74476  1.0000
  C   C40       1.0  0.22359  0.48881  0.03213  1.0000
  C   C41       1.0  0.23285  0.53818  0.68192  1.0000
  H   H69       1.0  0.25750  0.37215  0.72200  1.0000
  H   H70       1.0  0.25545  0.47801  0.76657  1.0000
  H   H71       1.0  0.13033  0.39294  0.67916  1.0000
  H   H72       1.0  0.30347  0.10854  0.89081  1.0000
  H   H73       1.0  0.28965  0.40043  0.60579  1.0000
  H   H74       1.0  0.27993  0.37436  0.79178  1.0000
  C   C42       1.0  0.27715  0.40458  0.77835  1.0000
  S   S22       1.0  0.13113  0.47351  0.64629  1.0000
  H   H75       1.0  0.25648  0.43108  0.03595  1.0000
  H   H76       1.0  0.23893  0.46659  0.59372  1.0000
  C   C43       1.0  0.19880  0.31066  0.73920  1.0000
  C   C44       1.0  0.23988  0.41027  0.79774  1.0000
  H   H77       1.0  0.35058  0.34522  0.92420  1.0000
  H   H78       1.0  0.24277  0.39528  0.06265  1.0000
  H   H79       1.0  0.24876  0.34298  0.75749  1.0000
  H   H80       1.0  0.24149  0.38000  0.81149  1.0000
  H   H81       1.0  0.28824  0.40413  0.75647  1.0000
  H   H82       1.0  0.22212  0.41435  0.79077  1.0000
  H   H83       1.0  0.26114  0.45101  0.72724  1.0000
  H   H84       1.0  0.17654  0.36432  0.73994  1.0000
  C   C45       1.0  0.21205  0.28366  0.75870  1.0000
  H   H85       1.0  0.22973  0.37726  0.73584  1.0000
  Fe  Fe12      1.0  0.23985  0.31310  0.87125  1.0000
  S   S23       1.0  0.26785  0.30124  0.83629  1.0000
  S   S24       1.0  0.20669  0.33545  0.85248  1.0000
  Fe  Fe13      1.0  0.26839  0.30121  0.93426  1.0000
  S   S25       1.0  0.29889  0.28921  0.90488  1.0000
  S   S26       1.0  0.27135  0.29865  0.99062  1.0000
  Fe  Fe14      1.0  0.28684  0.34277  0.87322  1.0000
  S   S27       1.0  0.30689  0.39871  0.85942  1.0000
  Fe  Fe15      1.0  0.27691  0.24851  0.87126  1.0000
  S   S28       1.0  0.28964  0.18350  0.85643  1.0000
  S   S29       1.0  0.25825  0.35862  0.90576  1.0000
  S   S30       1.0  0.24709  0.25660  0.90312  1.0000
  H   H86       1.0  0.26093  0.22155  0.02628  1.0000
  H   H87       1.0  0.17988  0.37614  0.80202  1.0000
  S   S31       1.0  0.18193  0.33458  0.06379  1.0000
  H   H88       1.0  0.13654  0.57222  0.61892  1.0000
  N   N5        1.0  0.22673  0.45601  0.05776  1.0000
  H   H89       1.0  0.27390  0.20606  0.96980  1.0000
  C   C46       1.0  0.35748  0.33412  0.89974  1.0000
  H   H90       1.0  0.35693  0.29877  0.89868  1.0000
  C   C47       1.0  0.28566  0.11035  0.89109  1.0000
  H   H91       1.0  0.16580  0.58881  0.68100  1.0000
  H   H92       1.0  0.16016  0.54129  0.63113  1.0000
  H   H93       1.0  0.26254  0.16298  0.94490  1.0000
  H   H94       1.0  0.21493  0.47565  0.00908  1.0000
  H   H95       1.0  0.23222  0.11879  0.96854  1.0000
  H   H96       1.0  0.31688  0.32430  0.81722  1.0000
  C   C48       1.0  0.27458  0.14441  0.87604  1.0000
  H   H97       1.0  0.27576  0.49412  0.60875  1.0000
  H   H98       1.0  0.24292  0.17299  0.86494  1.0000
  C   C49       1.0  0.11372  0.40093  0.67090  1.0000
  Fe  Fe16      1.0  0.19360  0.39320  0.59518  1.0000
  C   C50       1.0  0.24642  0.30894  0.01054  1.0000
  C   C51       1.0  0.24538  0.30447  0.04541  1.0000
  C   C52       1.0  0.22541  0.31108  0.06169  1.0000
  C   C53       1.0  0.20651  0.32286  0.04324  1.0000
  C   C54       1.0  0.20745  0.32671  0.00824  1.0000
  C   C55       1.0  0.22742  0.31982  0.99186  1.0000
  H   H99       1.0  0.25999  0.29557  0.05986  1.0000
  H   H100      1.0  0.27982  0.15204  0.98095  1.0000
  H   H101      1.0  0.19279  0.33549  0.99384  1.0000
  H   H102      1.0  0.22809  0.32289  0.96481  1.0000
  C   C56       1.0  0.25082  0.45021  0.74999  1.0000
  C   C57       1.0  0.20278  0.32429  0.80925  1.0000
  C   C58       1.0  0.32753  0.35006  0.81078  1.0000
  H   H103      1.0  0.23871  0.19241  0.04312  1.0000
  H   H104      1.0  0.23339  0.45493  0.74128  1.0000
  C   C59       1.0  0.18713  0.34393  0.75483  1.0000
  C   C60       1.0  0.25158  0.14708  0.87697  1.0000
  H   H105      1.0  0.23966  0.50160  0.02436  1.0000
  H   H106      1.0  0.19614  0.57467  0.64072  1.0000
  H   H107      1.0  0.22407  0.12916  0.01096  1.0000
  C   C61       1.0  0.22999  0.20217  0.97762  1.0000
  C   C62       1.0  0.23971  0.11584  0.89309  1.0000
  C   C63       1.0  0.33946  0.42296  0.81893  1.0000
  C   C64       1.0  0.32563  0.38982  0.82723  1.0000
  H   H108      1.0  0.23165  0.40518  0.02127  1.0000
  C   C65       1.0  0.34369  0.34338  0.78643  1.0000
  H   H109      1.0  0.22457  0.19065  0.95194  1.0000
  H   H110      1.0  0.21518  0.20457  0.99352  1.0000
  H   H111      1.0  0.26550  0.16799  0.03903  1.0000
  H   H112      1.0  0.28264  0.43081  0.79599  1.0000
  S   S32       1.0  0.18894  0.46150  0.61105  1.0000
  C   C66       1.0  0.15475  0.56953  0.61670  1.0000
  C   C67       1.0  0.18890  0.35039  0.78992  1.0000
  C   C68       1.0  0.26671  0.17369  0.97114  1.0000
  N   N6        1.0  0.25377  0.40978  0.76770  1.0000
  C   C69       1.0  0.21426  0.29079  0.79364  1.0000
  C   C70       1.0  0.25329  0.18957  0.02675  1.0000
  H   H113      1.0  0.33797  0.45379  0.83154  1.0000
  N   N7        1.0  0.24706  0.17395  0.99236  1.0000
  H   H114      1.0  0.21356  0.51604  0.04200  1.0000
  C   C71       1.0  0.23823  0.13044  0.99382  1.0000
  C   C72       1.0  0.24343  0.57580  0.67400  1.0000
  H   H115      1.0  0.22465  0.27004  0.80854  1.0000
  H   H116      1.0  0.23635  0.23481  0.97499  1.0000
  H   H117      1.0  0.25100  0.10741  0.00267  1.0000
  H   H118      1.0  0.22191  0.11795  0.89373  1.0000
  C   C73       1.0  0.35570  0.41615  0.79501  1.0000
  H   H119      1.0  0.15832  0.56256  0.58974  1.0000
  H   H120      1.0  0.19566  0.42601  0.04528  1.0000
  H   H121      1.0  0.34608  0.34561  0.87951  1.0000
  C   C74       1.0  0.24000  0.42040  0.04377  1.0000
  H   H122      1.0  0.26579  0.42218  0.62613  1.0000
  C   C75       1.0  0.27203  0.40944  0.60168  1.0000
  H   H123      1.0  0.26284  0.37973  0.59515  1.0000
  H   H124      1.0  0.22528  0.32295  0.58153  1.0000
  H   H125      1.0  0.29963  0.47271  0.58825  1.0000
  C   C76       1.0  0.28173  0.47969  0.58462  1.0000
  C   C77       1.0  0.35804  0.37628  0.77904  1.0000
  H   H126      1.0  0.19484  0.59794  0.59996  1.0000
  C   C78       1.0  0.15059  0.94360  0.13325  1.0000
  S   S33       1.0  0.28506  0.81089  0.38699  1.0000
  N   N8        1.0  0.33227  0.85469  0.27784  1.0000
  H   H127      1.0  0.15324  0.86128  0.14650  1.0000
  S   S34       1.0  0.16717  0.64615  0.12454  1.0000
  C   C79       1.0  0.13132  0.66872  0.20338  1.0000
  H   H128      1.0  0.25675  0.05058  0.37023  1.0000
  Fe  Fe17      1.0  0.18222  0.70471  0.14855  1.0000
  Fe  Fe18      1.0  0.27649  0.87585  0.36892  1.0000
  S   S35       1.0  0.26613  0.89046  0.31569  1.0000
  H   H129      1.0  0.23784  0.82077  0.34703  1.0000
  S   S36       1.0  0.30595  0.90788  0.39333  1.0000
  Fe  Fe19      1.0  0.22107  0.74853  0.18348  1.0000
  S   S37       1.0  0.20245  0.80971  0.19102  1.0000
  S   S38       1.0  0.25489  0.74156  0.20682  1.0000
  Fe  Fe20      1.0  0.17499  0.76795  0.20596  1.0000
  S   S39       1.0  0.15750  0.78313  0.25380  1.0000
  S   S40       1.0  0.19433  0.70755  0.20238  1.0000
  H   H130      1.0  0.17732  0.82796  0.35660  1.0000
  H   H131      1.0  0.23023  0.90264  0.50546  1.0000
  H   H132      1.0  0.14846  0.86611  0.19067  1.0000
  H   H133      1.0  0.32524  0.92181  0.28117  1.0000
  C   C80       1.0  0.23513  0.90449  0.57339  1.0000
  C   C81       1.0  0.23957  0.87587  0.51690  1.0000
  H   H134      1.0  0.32937  0.82033  0.23023  1.0000
  C   C82       1.0  0.14178  0.95131  0.19212  1.0000
  H   H135      1.0  0.20297  0.78089  0.38895  1.0000
  C   C83       1.0  0.26330  0.84833  0.28598  1.0000
  C   C84       1.0  0.25583  0.85733  0.25330  1.0000
  C   C85       1.0  0.25362  0.82462  0.22880  1.0000
  C   C86       1.0  0.25887  0.78274  0.23687  1.0000
  C   C87       1.0  0.26677  0.77373  0.26935  1.0000
  C   C88       1.0  0.26881  0.80647  0.29398  1.0000
  H   H136      1.0  0.25178  0.88971  0.24684  1.0000
  H   H137      1.0  0.24815  0.83189  0.20345  1.0000
  H   H138      1.0  0.27093  0.74131  0.27558  1.0000
  H   H139      1.0  0.27476  0.79910  0.31893  1.0000
  H   H140      1.0  0.25273  0.82691  0.56871  1.0000
  H   H141      1.0  0.21023  0.63564  0.15604  1.0000
  H   H142      1.0  0.12832  0.60875  0.15383  1.0000
  H   H143      1.0  0.21992  0.85455  0.32288  1.0000
  C   C89       1.0  0.26980  0.09449  0.40816  1.0000
  C   C90       1.0  0.26436  0.05401  0.39511  1.0000
  H   H144      1.0  0.19645  0.73746  0.35994  1.0000
  N   N9        1.0  0.20557  0.79529  0.33647  1.0000
  C   C91       1.0  0.21180  0.77339  0.30460  1.0000
  C   C92       1.0  0.14529  0.88151  0.16616  1.0000
  H   H145      1.0  0.21600  0.84921  0.36729  1.0000
  H   H146      1.0  0.25123  0.86357  0.49773  1.0000
  H   H147      1.0  0.27927  0.91333  0.52305  1.0000
  H   H148      1.0  0.17092  0.78451  0.32764  1.0000
  H   H149      1.0  0.20022  0.74717  0.29745  1.0000
  N   N10       1.0  0.15384  0.92532  0.16693  1.0000
  H   H150      1.0  0.22461  0.75305  0.36778  1.0000
  C   C93       1.0  0.32521  0.81715  0.25717  1.0000
  N   N11       1.0  0.25131  0.88939  0.54847  1.0000
  H   H151      1.0  0.13065  0.70211  0.21340  1.0000
  C   C94       1.0  0.20742  0.76531  0.36445  1.0000
  H   H152      1.0  0.22865  0.75936  0.30657  1.0000
  H   H153      1.0  0.15678  0.97675  0.13286  1.0000
  S   S41       1.0  0.23869  0.78930  0.45273  1.0000
  H   H154      1.0  0.12721  0.88094  0.16066  1.0000
  S   S42       1.0  0.21107  0.73942  0.12881  1.0000
  C   C95       1.0  0.22044  0.83155  0.34371  1.0000
  H   H155      1.0  0.36090  0.86477  0.24838  1.0000
  C   C96       1.0  0.18263  0.81104  0.33315  1.0000
  C   C97       1.0  0.35628  0.86034  0.27496  1.0000
  H   H156      1.0  0.29132  0.06607  0.48452  1.0000
  Fe  Fe21      1.0  0.19013  0.79746  0.13798  1.0000
  H   H157      1.0  0.18071  0.83340  0.31200  1.0000
  C   C98       1.0  0.13282  0.85464  0.26447  1.0000
  S   S43       1.0  0.16032  0.76209  0.15368  1.0000
  H   H158      1.0  0.15954  0.92465  0.11370  1.0000
  C   C99       1.0  0.17760  0.92466  0.17625  1.0000
  H   H159      1.0  0.23158  0.82757  0.11981  1.0000
  S   S44       1.0  0.28395  0.97724  0.47052  1.0000
  H   H160      1.0  0.21157  0.79558  0.28319  1.0000
  S   S45       1.0  0.25410  0.89209  0.41148  1.0000
  C   C100      1.0  0.12068  0.80798  0.21815  1.0000
  S   S46       1.0  0.29377  0.85648  0.46187  1.0000
  H   H161      1.0  0.30709  0.81275  0.25783  1.0000
  H   H162      1.0  0.14398  0.86160  0.28556  1.0000
  H   H163      1.0  0.18464  0.95720  0.17709  1.0000
  C   C101      1.0  0.13517  0.81691  0.24540  1.0000
  H   H164      1.0  0.33193  0.87632  0.32969  1.0000
  C   C102      1.0  0.28376  0.06267  0.45960  1.0000
  H   H165      1.0  0.33572  0.81994  0.32373  1.0000
  H   H166      1.0  0.33315  0.78744  0.26633  1.0000
  Fe  Fe22      1.0  0.26513  0.82954  0.43175  1.0000
  H   H167      1.0  0.25790  0.95171  0.53025  1.0000
  C   C103      1.0  0.32706  0.84834  0.31351  1.0000
  H   H168      1.0  0.13303  0.64754  0.22529  1.0000
  C   C104      1.0  0.23184  0.84976  0.09952  1.0000
  H   H169      1.0  0.12374  0.95218  0.18600  1.0000
  C   C105      1.0  0.11659  0.88439  0.25536  1.0000
  H   H170      1.0  0.18717  0.90523  0.15776  1.0000
  C   C106      1.0  0.32055  0.89298  0.26577  1.0000
  H   H171      1.0  0.12502  0.68459  0.13786  1.0000
  H   H172      1.0  0.26507  0.98664  0.40349  1.0000
  H   H173      1.0  0.28193  0.76745  0.47942  1.0000
  Fe  Fe23      1.0  0.31288  0.84408  0.41498  1.0000
  S   S47       1.0  0.34643  0.81349  0.41570  1.0000
  H   H174      1.0  0.35524  0.89851  0.39306  1.0000
  C   C107      1.0  0.24750  0.76797  0.49126  1.0000
  C   C108      1.0  0.23208  0.75964  0.51581  1.0000
  C   C109      1.0  0.23918  0.74689  0.54797  1.0000
  C   C110      1.0  0.26169  0.74131  0.55529  1.0000
  C   C111      1.0  0.27702  0.74789  0.53026  1.0000
  C   C112      1.0  0.26996  0.76174  0.49844  1.0000
  H   H175      1.0  0.21468  0.76439  0.51035  1.0000
  H   H176      1.0  0.22726  0.74184  0.56716  1.0000
  H   H177      1.0  0.29444  0.74350  0.53581  1.0000
  C   C113      1.0  0.18188  0.60086  0.13694  1.0000
  Fe  Fe24      1.0  0.28436  0.91785  0.43788  1.0000
  C   C114      1.0  0.26905  0.01781  0.41395  1.0000
  H   H178      1.0  0.14376  0.93812  0.21776  1.0000
  S   S48       1.0  0.18662  0.84913  0.10022  1.0000
  C   C115      1.0  0.27862  0.02215  0.44630  1.0000
  H   H179      1.0  0.18061  0.91065  0.20142  1.0000
  C   C116      1.0  0.26667  0.92402  0.54143  1.0000
  H   H180      1.0  0.22769  0.84995  0.52122  1.0000
  H   H181      1.0  0.30912  0.84387  0.31668  1.0000
  H   H182      1.0  0.14668  0.66509  0.18881  1.0000
  H   H183      1.0  0.13283  0.94409  0.12542  1.0000
  H   H184      1.0  0.27572  0.83974  0.54357  1.0000
  H   H185      1.0  0.32411  0.89896  0.23898  1.0000
  H   H186      1.0  0.30237  0.88969  0.26749  1.0000
  H   H187      1.0  0.27565  0.93555  0.56467  1.0000
  H   H188      1.0  0.12249  0.77889  0.20335  1.0000
  C   C117      1.0  0.26388  0.85305  0.56215  1.0000
  C   C118      1.0  0.20281  0.60469  0.15226  1.0000
  C   C119      1.0  0.21210  0.86611  0.08604  1.0000
  H   H189      1.0  0.26728  0.84835  0.09642  1.0000
  H   H190      1.0  0.14769  0.98468  0.19349  1.0000
  H   H191      1.0  0.22544  0.93212  0.56401  1.0000
  C   C120      1.0  0.25205  0.86162  0.08633  1.0000
  H   H192      1.0  0.11517  0.91416  0.26952  1.0000
  C   C121      1.0  0.11346  0.61357  0.16939  1.0000
  Fe  Fe25      1.0  0.21960  0.71982  0.69359  1.0000
  S   S49       1.0  0.21255  0.72352  0.63811  1.0000
  S   S50       1.0  0.20653  0.66526  0.72176  1.0000
  Fe  Fe26      1.0  0.24694  0.74819  0.63584  1.0000
  H   H193      1.0  0.26816  0.98918  0.82412  1.0000
  S   S51       1.0  0.25511  0.73786  0.69049  1.0000
  H   H194      1.0  0.16870  0.74803  0.67175  1.0000
  H   H195      1.0  0.12970  0.80849  0.70289  1.0000
  H   H196      1.0  0.26203  0.03357  0.79790  1.0000
  C   C122      1.0  0.31001  0.01137  0.84038  1.0000
  H   H197      1.0  0.24338  0.64416  0.67952  1.0000
  Fe  Fe27      1.0  0.24267  0.80457  0.69841  1.0000
  S   S52       1.0  0.23730  0.81661  0.64330  1.0000
  C   C123      1.0  0.31799  0.80637  0.76474  1.0000
  Fe  Fe28      1.0  0.20343  0.79115  0.65053  1.0000
  S   S53       1.0  0.17261  0.81778  0.62682  1.0000
  S   S54       1.0  0.20769  0.78579  0.70642  1.0000
  C   C124      1.0  0.13135  0.78555  0.61428  1.0000
  S   S55       1.0  0.27110  0.72953  0.59620  1.0000
  C   C125      1.0  0.15116  0.78207  0.63288  1.0000
  C   C126      1.0  0.15355  0.75072  0.65703  1.0000
  N   N12       1.0  0.29641  0.02572  0.81133  1.0000
  C   C127      1.0  0.13609  0.72328  0.66285  1.0000
  H   H198      1.0  0.31550  0.82050  0.79036  1.0000
  H   H199      1.0  0.28612  0.71933  0.77423  1.0000
  H   H200      1.0  0.13782  0.69992  0.68221  1.0000
  S   S56       1.0  0.26257  0.85054  0.73102  1.0000
  H   H201      1.0  0.31175  0.70909  0.72641  1.0000
  H   H202      1.0  0.16921  0.64484  0.67612  1.0000
  H   H203      1.0  0.30713  0.82413  0.74692  1.0000
  H   H204      1.0  0.31941  0.07405  0.79855  1.0000
  C   C128      1.0  0.13005  0.84375  0.70123  1.0000
  H   H205      1.0  0.33541  0.81247  0.75831  1.0000
  C   C129      1.0  0.27279  0.02252  0.81909  1.0000
  C   C130      1.0  0.19008  0.60275  0.62667  1.0000
  H   H206      1.0  0.30645  0.03019  0.86381  1.0000
  H   H207      1.0  0.13932  0.85109  0.67827  1.0000
  C   C131      1.0  0.30116  0.99846  0.78140  1.0000
  C   C132      1.0  0.23553  0.61507  0.68642  1.0000
  H   H208      1.0  0.24339  0.91437  0.59772  1.0000
  H   H209      1.0  0.22320  0.87902  0.57898  1.0000
  H   H210      1.0  0.29168  0.08238  0.78273  1.0000
  Fe  Fe29      1.0  0.30229  0.94916  0.92901  1.0000
  S   S57       1.0  0.29332  0.88571  0.94857  1.0000
  S   S58       1.0  0.33548  0.96309  0.90856  1.0000
  Fe  Fe30      1.0  0.25690  0.98602  0.93818  1.0000
  S   S59       1.0  0.24345  0.92572  0.95780  1.0000
  C   C133      1.0  0.16065  0.61614  0.66535  1.0000
  Fe  Fe31      1.0  0.27517  0.92336  0.98802  1.0000
  S   S60       1.0  0.27783  0.90091  0.04131  1.0000
  Fe  Fe32      1.0  0.26256  0.89324  0.91685  1.0000
  S   S61       1.0  0.24794  0.83761  0.88757  1.0000
  S   S62       1.0  0.28726  0.98658  0.97164  1.0000
  S   S63       1.0  0.27287  0.95398  0.89417  1.0000
  C   C134      1.0  0.25252  0.81033  0.98275  1.0000
  C   C135      1.0  0.21440  0.82923  0.97195  1.0000
  H   H211      1.0  0.20677  0.76944  0.01685  1.0000
  C   C136      1.0  0.26866  0.86689  0.83214  1.0000
  H   H212      1.0  0.28409  0.89068  0.78828  1.0000
  N   N13       1.0  0.31308  0.76040  0.76340  1.0000
  C   C137      1.0  0.22408  0.78068  0.01606  1.0000
  C   C138      1.0  0.34326  0.92283  0.87978  1.0000
  C   C139      1.0  0.32957  0.88789  0.87317  1.0000
  C   C140      1.0  0.30171  0.07036  0.80438  1.0000
  H   H213      1.0  0.31347  0.88692  0.88395  1.0000
  H   H214      1.0  0.22586  0.80714  0.03510  1.0000
  C   C141      1.0  0.25256  0.88972  0.05963  1.0000
  C   C142      1.0  0.11396  0.75770  0.61982  1.0000
  H   H215      1.0  0.30431  0.76026  0.71055  1.0000
  C   C143      1.0  0.11628  0.72675  0.64428  1.0000
  H   H216      1.0  0.29729  0.96457  0.78581  1.0000
  C   C144      1.0  0.23284  0.90702  0.04690  1.0000
  S   S64       1.0  0.23592  0.04357  0.92897  1.0000
  H   H217      1.0  0.21556  0.85700  0.98991  1.0000
  H   H218      1.0  0.19915  0.63093  0.63723  1.0000
  H   H219      1.0  0.23315  0.92980  0.02712  1.0000
  C   C145      1.0  0.27153  0.87010  0.79738  1.0000
  H   H220      1.0  0.21048  0.74592  0.95640  1.0000
  H   H221      1.0  0.23512  0.75443  0.02454  1.0000
  H   H222      1.0  0.21821  0.84070  0.94645  1.0000
  H   H223      1.0  0.19697  0.81860  0.97113  1.0000
  C   C146      1.0  0.31561  0.74360  0.72853  1.0000
  H   H224      1.0  0.26447  0.78562  0.99126  1.0000
  C   C147      1.0  0.25248  0.84024  0.84411  1.0000
  C   C148      1.0  0.23975  0.81556  0.82117  1.0000
  H   H225      1.0  0.25744  0.82021  0.95736  1.0000
  C   C149      1.0  0.33704  0.85323  0.85351  1.0000
  H   H226      1.0  0.25455  0.83839  0.00017  1.0000
  C   C150      1.0  0.24268  0.81864  0.78636  1.0000
  H   H227      1.0  0.27915  0.88465  0.84962  1.0000
  C   C151      1.0  0.21746  0.61654  0.70757  1.0000
  H   H228      1.0  0.23154  0.76850  0.93163  1.0000
  H   H229      1.0  0.32667  0.82568  0.84954  1.0000
  H   H230      1.0  0.34592  0.74182  0.77888  1.0000
  C   C152      1.0  0.22754  0.75863  0.95754  1.0000
  H   H231      1.0  0.28738  0.76774  0.79953  1.0000
  C   C153      1.0  0.15855  0.64515  0.60972  1.0000
  N   N14       1.0  0.22963  0.79468  0.98210  1.0000
  H   H232      1.0  0.23897  0.73215  0.96419  1.0000
  C   C154      1.0  0.25835  0.84642  0.77441  1.0000
  H   H233      1.0  0.22737  0.79452  0.83027  1.0000
  H   H234      1.0  0.32796  0.01431  0.83595  1.0000
  C   C155      1.0  0.32851  0.73799  0.78637  1.0000
  H   H235      1.0  0.32509  0.70333  0.78656  1.0000
  C   C156      1.0  0.21264  0.89520  0.06005  1.0000
  C   C157      1.0  0.35824  0.85345  0.84051  1.0000
  H   H236      1.0  0.19742  0.90827  0.04981  1.0000
  H   H237      1.0  0.12951  0.80952  0.59537  1.0000
  H   H238      1.0  0.33272  0.74790  0.71989  1.0000
  H   H239      1.0  0.23273  0.79959  0.76887  1.0000
  H   H240      1.0  0.32745  0.75084  0.81274  1.0000
  H   H241      1.0  0.27816  0.76878  0.75627  1.0000
  C   C158      1.0  0.29022  0.75371  0.77389  1.0000
  H   H242      1.0  0.29120  0.00829  0.75893  1.0000
  H   H243      1.0  0.31887  0.99987  0.77495  1.0000
  H   H244      1.0  0.13974  0.85645  0.72342  1.0000
  H   H245      1.0  0.16699  0.67488  0.61862  1.0000
  H   H246      1.0  0.30696  0.97741  0.84566  1.0000
  H   H247      1.0  0.28247  0.05306  0.91891  1.0000
  H   H248      1.0  0.27345  0.86220  0.58551  1.0000
  H   H249      1.0  0.14048  0.65080  0.61179  1.0000
  H   H250      1.0  0.26864  0.04230  0.84179  1.0000
  H   H251      1.0  0.14263  0.62116  0.66846  1.0000
  H   H252      1.0  0.11772  0.92362  0.71877  1.0000
  H   H253      1.0  0.11728  0.91730  0.67357  1.0000
  N   N15       1.0  0.16600  0.60842  0.62958  1.0000
  C   C159      1.0  0.27379  0.07905  0.90708  1.0000
  C   C160      1.0  0.25081  0.08181  0.90812  1.0000
  H   H254      1.0  0.29833  0.09187  0.82640  1.0000
  H   H255      1.0  0.16209  0.64030  0.58251  1.0000
  Fe  Fe33      1.0  0.43314  0.41298  0.34340  1.0000
  S   S65       1.0  0.46077  0.36564  0.33901  1.0000
  H   H256      1.0  0.43287  0.41452  0.16810  1.0000
  Fe  Fe34      1.0  0.44770  0.46312  0.28396  1.0000
  S   S66       1.0  0.47681  0.42091  0.27483  1.0000
  S   S67       1.0  0.44367  0.51766  0.24928  1.0000
  Fe  Fe35      1.0  0.45318  0.36804  0.28335  1.0000
  S   S68       1.0  0.44995  0.31271  0.24655  1.0000
  Fe  Fe36      1.0  0.48155  0.42290  0.33096  1.0000
  C   C161      1.0  0.39291  0.28945  0.36861  1.0000
  S   S69       1.0  0.42350  0.41051  0.28839  1.0000
  S   S70       1.0  0.45447  0.47007  0.33952  1.0000
  C   C162      1.0  0.46849  0.41587  0.48084  1.0000
  C   C163      1.0  0.50454  0.55220  0.36348  1.0000
  N   N16       1.0  0.51274  0.18937  0.15278  1.0000
  H   H257      1.0  0.39738  0.26367  0.35141  1.0000
  Fe  Fe37      1.0  0.51623  0.33080  0.08620  1.0000
  S   S71       1.0  0.52431  0.33564  0.14159  1.0000
  N   N17       1.0  0.60875  0.36240  0.50141  1.0000
  C   C164      1.0  0.42609  0.55874  0.30391  1.0000
  H   H258      1.0  0.49082  0.52973  0.36742  1.0000
  H   H259      1.0  0.51028  0.56450  0.38873  1.0000
  H   H260      1.0  0.48274  0.16665  0.12884  1.0000
  C   C165      1.0  0.52367  0.14730  0.14968  1.0000
  C   C166      1.0  0.40345  0.32873  0.36710  1.0000
  H   H261      1.0  0.43828  0.48287  0.13925  1.0000
  H   H262      1.0  0.42571  0.41395  0.46052  1.0000
  C   C167      1.0  0.45329  0.48807  0.15554  1.0000
  H   H263      1.0  0.42102  0.52781  0.31182  1.0000
  C   C168      1.0  0.47105  0.31475  0.21758  1.0000
  C   C169      1.0  0.49165  0.33044  0.22795  1.0000
  C   C170      1.0  0.50795  0.33608  0.20433  1.0000
  C   C171      1.0  0.50363  0.32654  0.17019  1.0000
  C   C172      1.0  0.48316  0.30997  0.15972  1.0000
  C   C173      1.0  0.46692  0.30363  0.18355  1.0000
  H   H264      1.0  0.49505  0.33814  0.25431  1.0000
  H   H265      1.0  0.52386  0.34848  0.21251  1.0000
  H   H266      1.0  0.47975  0.30258  0.13333  1.0000
  H   H267      1.0  0.45089  0.29167  0.17552  1.0000
  S   S72       1.0  0.51282  0.43913  0.35960  1.0000
  C   C174      1.0  0.53670  0.15741  0.54531  1.0000
  C   C175      1.0  0.59168  0.14084  0.57480  1.0000
  H   H268      1.0  0.41602  0.33308  0.34877  1.0000
  C   C176      1.0  0.51774  0.32584  0.40462  1.0000
  C   C177      1.0  0.39739  0.36234  0.38880  1.0000
  H   H269      1.0  0.48329  0.16478  0.17379  1.0000
  H   H270      1.0  0.46213  0.34034  0.50874  1.0000
  H   H271      1.0  0.47575  0.54750  0.31066  1.0000
  H   H272      1.0  0.59635  0.29879  0.50417  1.0000
  H   H273      1.0  0.60523  0.32246  0.54394  1.0000
  H   H274      1.0  0.53784  0.21662  0.18588  1.0000
  H   H275      1.0  0.48876  0.09988  0.43383  1.0000
  H   H276      1.0  0.48189  0.44173  0.11917  1.0000
  H   H277      1.0  0.44251  0.43954  0.20691  1.0000
  H   H278      1.0  0.50811  0.34814  0.35550  1.0000
  C   C178      1.0  0.48857  0.18376  0.15226  1.0000
  H   H279      1.0  0.45534  0.39155  0.19181  1.0000
  H   H280      1.0  0.49156  0.42553  0.19459  1.0000
  H   H281      1.0  0.49595  0.47416  0.17323  1.0000
  H   H282      1.0  0.45420  0.40699  0.41683  1.0000
  C   C179      1.0  0.51857  0.39970  0.38887  1.0000
  H   H283      1.0  0.44814  0.50692  0.17823  1.0000
  Fe  Fe38      1.0  0.54404  0.38038  0.57579  1.0000
  H   H284      1.0  0.46479  0.50810  0.14162  1.0000
  H   H285      1.0  0.47854  0.39295  0.14031  1.0000
  H   H286      1.0  0.51452  0.19992  0.09965  1.0000
  C   C180      1.0  0.48350  0.45571  0.18660  1.0000
  C   C181      1.0  0.44790  0.42212  0.18368  1.0000
  H   H287      1.0  0.42279  0.35749  0.46113  1.0000
  C   C182      1.0  0.47018  0.42339  0.13411  1.0000
  C   C183      1.0  0.43606  0.56299  0.27286  1.0000
  H   H288      1.0  0.45563  0.41563  0.11743  1.0000
  C   C184      1.0  0.37029  0.31729  0.41358  1.0000
  H   H289      1.0  0.37647  0.38235  0.42940  1.0000
  H   H290      1.0  0.51426  0.29290  0.39811  1.0000
  H   H291      1.0  0.47921  0.47423  0.20990  1.0000
  N   N18       1.0  0.46371  0.44731  0.16496  1.0000
  C   C185      1.0  0.49007  0.56894  0.30818  1.0000
  S   S73       1.0  0.40985  0.41198  0.38623  1.0000
  C   C186      1.0  0.51978  0.21074  0.18490  1.0000
  H   H292      1.0  0.53654  0.22498  0.55484  1.0000
  C   C187      1.0  0.53499  0.19416  0.56580  1.0000
  S   S74       1.0  0.50042  0.29498  0.55340  1.0000
  H   H293      1.0  0.60445  0.34913  0.10295  1.0000
  H   H294      1.0  0.46665  0.41802  0.50873  1.0000
  C   C188      1.0  0.51414  0.35709  0.38058  1.0000
  H   H295      1.0  0.45574  0.31137  0.47001  1.0000
  C   C189      1.0  0.53474  0.11733  0.55917  1.0000
  C   C190      1.0  0.51893  0.21566  0.12429  1.0000
  H   H296      1.0  0.51874  0.13046  0.12560  1.0000
  H   H297      1.0  0.58555  0.41313  0.49196  1.0000
  S   S75       1.0  0.51812  0.38969  0.53527  1.0000
  C   C191      1.0  0.38108  0.35644  0.41242  1.0000
  Fe  Fe39      1.0  0.52592  0.32214  0.52065  1.0000
  Fe  Fe40      1.0  0.49526  0.36202  0.57175  1.0000
  S   S76       1.0  0.52858  0.29787  0.46732  1.0000
  H   H298      1.0  0.53695  0.22187  0.12452  1.0000
  C   C192      1.0  0.43251  0.38462  0.47215  1.0000
  N   N19       1.0  0.45627  0.37930  0.46574  1.0000
  C   C193      1.0  0.52539  0.33723  0.43718  1.0000
  C   C194      1.0  0.53009  0.37979  0.44536  1.0000
  C   C195      1.0  0.52686  0.41098  0.42112  1.0000
  C   C196      1.0  0.46449  0.33967  0.48097  1.0000
  H   H299      1.0  0.53645  0.38871  0.47017  1.0000
  H   H300      1.0  0.53038  0.44392  0.42754  1.0000
  C   C197      1.0  0.37589  0.28407  0.39118  1.0000
  H   H301      1.0  0.47728  0.37190  0.42318  1.0000
  H   H302      1.0  0.51142  0.24213  0.18829  1.0000
  H   H303      1.0  0.58269  0.13531  0.55026  1.0000
  H   H304      1.0  0.54193  0.15022  0.15006  1.0000
  C   C198      1.0  0.45963  0.37707  0.42899  1.0000
  H   H305      1.0  0.42938  0.38684  0.49969  1.0000
  H   H306      1.0  0.45005  0.35070  0.41654  1.0000
  H   H307      1.0  0.48642  0.41317  0.47584  1.0000
  H   H308      1.0  0.53963  0.16015  0.51868  1.0000
  H   H309      1.0  0.48242  0.33477  0.47670  1.0000
  H   H310      1.0  0.46245  0.44638  0.47036  1.0000
  H   H311      1.0  0.47973  0.21488  0.15364  1.0000
  S   S77       1.0  0.55378  0.31461  0.55818  1.0000
  H   H312      1.0  0.51043  0.24709  0.12510  1.0000
  N   N20       1.0  0.49748  0.58702  0.34131  1.0000
  H   H313      1.0  0.41551  0.59105  0.34935  1.0000
  C   C199      1.0  0.60890  0.32006  0.51660  1.0000
  H   H314      1.0  0.51573  0.19149  0.20695  1.0000
  H   H315      1.0  0.60362  0.33677  0.45104  1.0000
  H   H316      1.0  0.58117  0.38507  0.52970  1.0000
  C   C200      1.0  0.58637  0.38112  0.50313  1.0000
  H   H317      1.0  0.51914  0.12630  0.17043  1.0000
  H   H318      1.0  0.51825  0.53310  0.35244  1.0000
  H   H319      1.0  0.50333  0.54994  0.29594  1.0000
  H   H320      1.0  0.47078  0.11842  0.50414  1.0000
  H   H321      1.0  0.57393  0.36066  0.48953  1.0000
  H   H322      1.0  0.46455  0.59046  0.36008  1.0000
  H   H323      1.0  0.48480  0.59433  0.29067  1.0000
  H   H324      1.0  0.36810  0.36330  0.31823  1.0000
  H   H325      1.0  0.49938  0.11182  0.49418  1.0000
  H   H326      1.0  0.60245  0.16900  0.57229  1.0000
  C   C201      1.0  0.42282  0.59453  0.32502  1.0000
  H   H327      1.0  0.46017  0.10616  0.44371  1.0000
  S   S78       1.0  0.52986  0.23714  0.62589  1.0000
  C   C202      1.0  0.53154  0.19095  0.60032  1.0000
  C   C203      1.0  0.48103  0.36152  0.69492  1.0000
  H   H328      1.0  0.57144  0.37401  0.07107  1.0000
  C   C204      1.0  0.60677  0.45443  0.61570  1.0000
  H   H329      1.0  0.58033  0.20129  0.00395  1.0000
  H   H330      1.0  0.37819  0.34735  0.84137  1.0000
  H   H331      1.0  0.59846  0.26368  0.98028  1.0000
  S   S79       1.0  0.52041  0.35864  0.61396  1.0000
  Fe  Fe41      1.0  0.52754  0.29346  0.59262  1.0000
  S   S80       1.0  0.51168  0.38927  0.05570  1.0000
  C   C205      1.0  0.60611  0.27019  0.00568  1.0000
  H   H332      1.0  0.50315  0.29039  0.71300  1.0000
  H   H333      1.0  0.46619  0.15299  0.07153  1.0000
  C   C206      1.0  0.45932  0.30161  0.71037  1.0000
  H   H334      1.0  0.47678  0.32599  0.63267  1.0000
  C   C207      1.0  0.48136  0.46744  0.65407  1.0000
  H   H335      1.0  0.42981  0.44990  0.68205  1.0000
  C   C208      1.0  0.46118  0.42021  0.61521  1.0000
  H   H336      1.0  0.42783  0.40676  0.62860  1.0000
  H   H337      1.0  0.49460  0.44020  0.60845  1.0000
  C   C209      1.0  0.37982  0.39694  0.89706  1.0000
  H   H338      1.0  0.48911  0.36453  0.72037  1.0000
  H   H339      1.0  0.49242  0.37485  0.67648  1.0000
  H   H340      1.0  0.49637  0.48417  0.66117  1.0000
  H   H341      1.0  0.39668  0.41003  0.89487  1.0000
  H   H342      1.0  0.44377  0.32074  0.70963  1.0000
  C   C210      1.0  0.48041  0.44233  0.62433  1.0000
  C   C211      1.0  0.44388  0.44811  0.66585  1.0000
  H   H343      1.0  0.45486  0.26786  0.70481  1.0000
  C   C212      1.0  0.46526  0.31458  0.65169  1.0000
  N   N21       1.0  0.47527  0.31697  0.68606  1.0000
  C   C213      1.0  0.46327  0.46972  0.67517  1.0000
  C   C214      1.0  0.60601  0.35996  0.07751  1.0000
  C   C215      1.0  0.52956  0.15079  0.61425  1.0000
  H   H344      1.0  0.49191  0.25661  0.67957  1.0000
  C   C216      1.0  0.49542  0.29025  0.68727  1.0000
  H   H345      1.0  0.50800  0.30169  0.66984  1.0000
  C   C217      1.0  0.44275  0.42377  0.63563  1.0000
  H   H346      1.0  0.42589  0.58160  0.74259  1.0000
  H   H347      1.0  0.46613  0.38224  0.69518  1.0000
  H   H348      1.0  0.46612  0.30388  0.73671  1.0000
  S   S81       1.0  0.54393  0.30463  0.05582  1.0000
  H   H349      1.0  0.52679  0.14825  0.64093  1.0000
  S   S82       1.0  0.49018  0.29288  0.05805  1.0000
  H   H350      1.0  0.46072  0.28143  0.64408  1.0000
  C   C218      1.0  0.58727  0.37346  0.05929  1.0000
  C   C219      1.0  0.41416  0.59091  0.84769  1.0000
  H   H351      1.0  0.45009  0.33462  0.64973  1.0000
  Fe  Fe42      1.0  0.40625  0.41369  0.76911  1.0000
  S   S83       1.0  0.44204  0.40026  0.76136  1.0000
  S   S84       1.0  0.38027  0.36691  0.75257  1.0000
  Fe  Fe43      1.0  0.41514  0.49434  0.81025  1.0000
  S   S85       1.0  0.45186  0.48770  0.80696  1.0000
  S   S86       1.0  0.39704  0.54852  0.83516  1.0000
  Fe  Fe44      1.0  0.44434  0.47010  0.75277  1.0000
  S   S87       1.0  0.46562  0.49774  0.71389  1.0000
  Fe  Fe45      1.0  0.44611  0.41878  0.81605  1.0000
  S   S88       1.0  0.46718  0.37584  0.84768  1.0000
  S   S89       1.0  0.40800  0.48207  0.75513  1.0000
  S   S90       1.0  0.41013  0.42698  0.82463  1.0000
  C   C220      1.0  0.43628  0.58381  0.85671  1.0000
  H   H352      1.0  0.53788  0.38151  0.93762  1.0000
  C   C221      1.0  0.51324  0.16755  0.02850  1.0000
  H   H353      1.0  0.50016  0.49088  0.90934  1.0000
  C   C222      1.0  0.49243  0.17620  0.04155  1.0000
  H   H354      1.0  0.44265  0.55176  0.85802  1.0000
  H   H355      1.0  0.51131  0.37506  0.91710  1.0000
  C   C223      1.0  0.38838  0.33471  0.86267  1.0000
  Fe  Fe46      1.0  0.48811  0.34912  0.02419  1.0000
  S   S91       1.0  0.56521  0.39626  0.00154  1.0000
  H   H356      1.0  0.39510  0.29862  0.92288  1.0000
  H   H357      1.0  0.44193  0.57739  0.78090  1.0000
  H   H358      1.0  0.54907  0.46598  0.90666  1.0000
  H   H359      1.0  0.53405  0.39372  0.89386  1.0000
  S   S92       1.0  0.45669  0.37914  0.00433  1.0000
  C   C224      1.0  0.45996  0.37329  0.89000  1.0000
  C   C225      1.0  0.44798  0.40612  0.90577  1.0000
  C   C226      1.0  0.44578  0.40675  0.94098  1.0000
  C   C227      1.0  0.45535  0.37435  0.96016  1.0000
  C   C228      1.0  0.46572  0.34002  0.94391  1.0000
  C   C229      1.0  0.46826  0.33973  0.90898  1.0000
  H   H360      1.0  0.44161  0.43227  0.89119  1.0000
  H   H361      1.0  0.41198  0.34481  0.92027  1.0000
  H   H362      1.0  0.47214  0.31389  0.95836  1.0000
  H   H363      1.0  0.47724  0.31396  0.89679  1.0000
  H   H364      1.0  0.55243  0.45340  0.95028  1.0000
  H   H365      1.0  0.40568  0.34488  0.85915  1.0000
  C   C230      1.0  0.59934  0.37925  0.60815  1.0000
  H   H366      1.0  0.48418  0.20592  0.03637  1.0000
  C   C231      1.0  0.48223  0.14618  0.06131  1.0000
  H   H367      1.0  0.53671  0.49943  0.93863  1.0000
  N   N22       1.0  0.52032  0.43991  0.92859  1.0000
  C   C232      1.0  0.50503  0.45753  0.90283  1.0000
  C   C233      1.0  0.50957  0.44056  0.96160  1.0000
  C   C234      1.0  0.54050  0.46588  0.93109  1.0000
  C   C235      1.0  0.52617  0.39562  0.91885  1.0000
  H   H368      1.0  0.48967  0.43868  0.90031  1.0000
  H   H369      1.0  0.51247  0.45708  0.87749  1.0000
  H   H370      1.0  0.49449  0.42066  0.96080  1.0000
  H   H371      1.0  0.52079  0.42795  0.98168  1.0000
  H   H372      1.0  0.50458  0.47332  0.96963  1.0000
  C   C236      1.0  0.52339  0.12826  0.03395  1.0000
  H   H373      1.0  0.59479  0.29216  0.01951  1.0000
  H   H374      1.0  0.60156  0.48721  0.61333  1.0000
  H   H375      1.0  0.53938  0.12123  0.02360  1.0000
  Fe  Fe47      1.0  0.53756  0.36015  0.02313  1.0000
  H   H376      1.0  0.36935  0.41007  0.87624  1.0000
  H   H377      1.0  0.36652  0.44186  0.78910  1.0000
  H   H378      1.0  0.58835  0.35380  0.60048  1.0000
  C   C237      1.0  0.59260  0.42163  0.60497  1.0000
  H   H379      1.0  0.60987  0.26316  0.07255  1.0000
  Fe  Fe48      1.0  0.51782  0.27199  0.02458  1.0000
  S   S93       1.0  0.51393  0.32517  0.98871  1.0000
  H   H380      1.0  0.37311  0.40959  0.92120  1.0000
  C   C238      1.0  0.58905  0.38628  0.02603  1.0000
  H   H381      1.0  0.43767  0.43337  0.95348  1.0000
  S   S94       1.0  0.52751  0.20634  0.00740  1.0000
  C   C239      1.0  0.53098  0.11390  0.59360  1.0000
  C   C240      1.0  0.60981  0.38813  0.01170  1.0000
  C   C241      1.0  0.49285  0.10756  0.06796  1.0000
  H   H382      1.0  0.57916  0.14939  0.59391  1.0000
  H   H383      1.0  0.38922  0.34549  0.94819  1.0000
  C   C242      1.0  0.39470  0.33399  0.92296  1.0000
  N   N23       1.0  0.60465  0.10290  0.58444  1.0000
  N   N24       1.0  0.38009  0.34993  0.89561  1.0000
  H   H384      1.0  0.38808  0.29941  0.86016  1.0000
  C   C243      1.0  0.51324  0.09838  0.05369  1.0000
  H   H385      1.0  0.57720  0.22938  0.04332  1.0000
  H   H386      1.0  0.47557  0.58413  0.74736  1.0000
  H   H387      1.0  0.60452  0.11893  0.63747  1.0000
  C   C244      1.0  0.58879  0.20901  0.02861  1.0000
  S   S95       1.0  0.56713  0.43464  0.58600  1.0000
  H   H388      1.0  0.45930  0.59057  0.70960  1.0000
  H   H389      1.0  0.61129  0.39845  0.98609  1.0000
  H   H390      1.0  0.59110  0.17866  0.04205  1.0000
  N   N25       1.0  0.61004  0.23056  0.02413  1.0000
  S   S96       1.0  0.46081  0.38552  0.57979  1.0000
  Fe  Fe49      1.0  0.48351  0.79385  0.34132  1.0000
  S   S97       1.0  0.53502  0.00324  0.10226  1.0000
  Fe  Fe50      1.0  0.47125  0.77386  0.26867  1.0000
  S   S98       1.0  0.43516  0.76858  0.27859  1.0000
  S   S99       1.0  0.48158  0.76428  0.21513  1.0000
  Fe  Fe51      1.0  0.44041  0.82669  0.31141  1.0000
  S   S100      1.0  0.41515  0.87913  0.31326  1.0000
  Fe  Fe52      1.0  0.44647  0.73311  0.32402  1.0000
  S   S101      1.0  0.42898  0.67748  0.34410  1.0000
  S   S102      1.0  0.47559  0.83560  0.29779  1.0000
  S   S103      1.0  0.48220  0.73244  0.31121  1.0000
  C   C245      1.0  0.45818  0.03944  0.48430  1.0000
  H   H391      1.0  0.42461  0.93584  0.24558  1.0000
  Fe  Fe53      1.0  0.52594  0.93798  0.11765  1.0000
  C   C246      1.0  0.44435  0.86516  0.22176  1.0000
  S   S104      1.0  0.53946  0.91550  0.16715  1.0000
  H   H392      1.0  0.42367  0.84728  0.40870  1.0000
  H   H393      1.0  0.43199  0.85460  0.20216  1.0000
  H   H394      1.0  0.48767  0.07998  0.52550  1.0000
  S   S105      1.0  0.48960  0.94681  0.10798  1.0000
  C   C247      1.0  0.43202  0.93813  0.22027  1.0000
  S   S106      1.0  0.44874  0.79075  0.35790  1.0000
  C   C248      1.0  0.37762  0.80365  0.36825  1.0000
  C   C249      1.0  0.60444  0.96175  0.10744  1.0000
  H   H395      1.0  0.47531  0.89198  0.18028  1.0000
  C   C250      1.0  0.49901  0.80427  0.20174  1.0000
  C   C251      1.0  0.51185  0.82805  0.22507  1.0000
  C   C252      1.0  0.52475  0.86155  0.21421  1.0000
  C   C253      1.0  0.52454  0.87172  0.18010  1.0000
  C   C254      1.0  0.51186  0.84771  0.15671  1.0000
  C   C255      1.0  0.49926  0.81375  0.16750  1.0000
  H   H396      1.0  0.51209  0.82027  0.25143  1.0000
  H   H397      1.0  0.53467  0.87989  0.23232  1.0000
  H   H398      1.0  0.51172  0.85526  0.13028  1.0000
  H   H399      1.0  0.48938  0.79533  0.14938  1.0000
  H   H400      1.0  0.44852  0.90380  0.16286  1.0000
  H   H401      1.0  0.38250  0.92430  0.35282  1.0000
  H   H402      1.0  0.43666  0.97189  0.21703  1.0000
  C   C256      1.0  0.43909  0.63899  0.28371  1.0000
  C   C257      1.0  0.42977  0.63447  0.31526  1.0000
  C   C258      1.0  0.38100  0.89059  0.35685  1.0000
  H   H403      1.0  0.44447  0.66984  0.27604  1.0000
  H   H404      1.0  0.45856  0.84275  0.22015  1.0000
  N   N26       1.0  0.45130  0.90944  0.21705  1.0000
  C   C259      1.0  0.39497  0.86162  0.34034  1.0000
  S   S107      1.0  0.50994  0.80710  0.38045  1.0000
  H   H405      1.0  0.47362  0.63790  0.34090  1.0000
  Fe  Fe54      1.0  0.49926  0.00979  0.08803  1.0000
  H   H406      1.0  0.46607  0.94606  0.17871  1.0000
  S   S108      1.0  0.49146  0.00060  0.56637  1.0000
  H   H407      1.0  0.40326  0.79538  0.33245  1.0000
  H   H408      1.0  0.41896  0.93008  0.20097  1.0000
  C   C260      1.0  0.46064  0.91306  0.18325  1.0000
  C   C261      1.0  0.46822  0.92134  0.24303  1.0000
  H   H409      1.0  0.37637  0.76991  0.37247  1.0000
  H   H410      1.0  0.43696  0.86134  0.24686  1.0000
  H   H411      1.0  0.48291  0.89992  0.24155  1.0000
  H   H412      1.0  0.47411  0.95434  0.23994  1.0000
  H   H413      1.0  0.46168  0.91935  0.26890  1.0000
  C   C262      1.0  0.39300  0.81814  0.34573  1.0000
  C   C263      1.0  0.41674  0.85134  0.43431  1.0000
  H   H414      1.0  0.47347  0.86655  0.37934  1.0000
  H   H415      1.0  0.61111  0.88002  0.08773  1.0000
  C   C264      1.0  0.48123  0.86789  0.40417  1.0000
  C   C265      1.0  0.36549  0.87600  0.37944  1.0000
  H   H416      1.0  0.36564  0.83224  0.28433  1.0000
  H   H417      1.0  0.44776  0.77570  0.47316  1.0000
  C   C266      1.0  0.49999  0.84310  0.41104  1.0000
  C   C267      1.0  0.48420  0.09451  0.50065  1.0000
  Fe  Fe55      1.0  0.54027  0.92082  0.56915  1.0000
  H   H418      1.0  0.51207  0.04681  0.46396  1.0000
  H   H419      1.0  0.59126  0.95014  0.08949  1.0000
  C   C268      1.0  0.44434  0.80501  0.45885  1.0000
  H   H420      1.0  0.60148  0.88134  0.16253  1.0000
  C   C269      1.0  0.59166  0.94629  0.55386  1.0000
  S   S109      1.0  0.48156  0.07197  0.09588  1.0000
  H   H421      1.0  0.48395  0.62483  0.38202  1.0000
  H   H422      1.0  0.39173  0.78046  0.43431  1.0000
  H   H423      1.0  0.46943  0.05890  0.42163  1.0000
  H   H424      1.0  0.39885  0.85856  0.43093  1.0000
  S   S110      1.0  0.53093  0.95433  0.52181  1.0000
  Fe  Fe56      1.0  0.49610  0.94102  0.53500  1.0000
  S   S111      1.0  0.47102  0.92864  0.49337  1.0000
  C   C270      1.0  0.59544  0.90794  0.14678  1.0000
  C   C271      1.0  0.51040  0.84608  0.44290  1.0000
  C   C272      1.0  0.50173  0.87294  0.46815  1.0000
  C   C273      1.0  0.48274  0.89705  0.46144  1.0000
  C   C274      1.0  0.47260  0.89485  0.42936  1.0000
  H   H425      1.0  0.52490  0.82694  0.44827  1.0000
  H   H426      1.0  0.50951  0.87418  0.49299  1.0000
  H   H427      1.0  0.45811  0.91394  0.42393  1.0000
  H   H428      1.0  0.45262  0.83182  0.47289  1.0000
  H   H429      1.0  0.58221  0.89512  0.12940  1.0000
  S   S112      1.0  0.53807  0.07209  0.53314  1.0000
  C   C275      1.0  0.49653  0.03106  0.47086  1.0000
  H   H430      1.0  0.57578  0.95745  0.54487  1.0000
  H   H431      1.0  0.41286  0.74624  0.45095  1.0000
  C   C276      1.0  0.41054  0.81988  0.48785  1.0000
  H   H432      1.0  0.45346  0.01406  0.46537  1.0000
  H   H433      1.0  0.41296  0.79163  0.50381  1.0000
  H   H434      1.0  0.50002  0.01484  0.49488  1.0000
  Fe  Fe57      1.0  0.52689  0.01176  0.55561  1.0000
  C   C277      1.0  0.40992  0.77598  0.43697  1.0000
  H   H435      1.0  0.58124  0.05809  0.56310  1.0000
  C   C278      1.0  0.47913  0.61103  0.35681  1.0000
  H   H436      1.0  0.39245  0.82601  0.48534  1.0000
  N   N27       1.0  0.42041  0.81301  0.45446  1.0000
  H   H437      1.0  0.45248  0.80110  0.43412  1.0000
  C   C279      1.0  0.51613  0.61600  0.33670  1.0000
  H   H438      1.0  0.41803  0.84772  0.50171  1.0000
  N   N28       1.0  0.47820  0.06194  0.47445  1.0000
  H   H439      1.0  0.41635  0.77063  0.41117  1.0000
  H   H440      1.0  0.58746  0.93181  0.16387  1.0000
  H   H441      1.0  0.46083  0.02346  0.50876  1.0000
  H   H442      1.0  0.52203  0.63051  0.36118  1.0000
  C   C280      1.0  0.44199  0.60325  0.26231  1.0000
  C   C281      1.0  0.36399  0.83248  0.38537  1.0000
  H   H443      1.0  0.42462  0.87975  0.44671  1.0000
  H   H444      1.0  0.49262  0.00571  0.45150  1.0000
  H   H445      1.0  0.44390  0.06156  0.48704  1.0000
  H   H446      1.0  0.51128  0.64258  0.31999  1.0000
  C   C282      1.0  0.59345  0.90826  0.57111  1.0000
  H   H447      1.0  0.59706  0.98751  0.12339  1.0000
  C   C283      1.0  0.47394  0.08265  0.44194  1.0000
  H   H448      1.0  0.44971  0.60662  0.23828  1.0000
  H   H449      1.0  0.60905  0.99834  0.53321  1.0000
  H   H450      1.0  0.53031  0.59897  0.32508  1.0000
  C   C284      1.0  0.61052  0.96959  0.54742  1.0000
  S   S113      1.0  0.56973  0.87890  0.57834  1.0000
  H   H451      1.0  0.36216  0.88865  0.28998  1.0000
  S   S114      1.0  0.50572  0.90060  0.57873  1.0000
  C   C285      1.0  0.46664  0.84693  0.70817  1.0000
  H   H452      1.0  0.57286  0.89253  0.65130  1.0000
  H   H453      1.0  0.46653  0.82039  0.65756  1.0000
  C   C286      1.0  0.53115  0.86536  0.65233  1.0000
  Fe  Fe58      1.0  0.50421  0.96174  0.60928  1.0000
  C   C287      1.0  0.46675  0.60817  0.73181  1.0000
  S   S115      1.0  0.49225  0.96785  0.66243  1.0000
  C   C288      1.0  0.53952  0.96779  0.90472  1.0000
  S   S116      1.0  0.53942  0.97975  0.60196  1.0000
  H   H454      1.0  0.52039  0.86473  0.71686  1.0000
  H   H455      1.0  0.54499  0.80614  0.69544  1.0000
  C   C289      1.0  0.46964  0.84838  0.67339  1.0000
  H   H456      1.0  0.52587  0.91840  0.70606  1.0000
  C   C290      1.0  0.48085  0.92213  0.67931  1.0000
  C   C291      1.0  0.47643  0.88607  0.65895  1.0000
  H   H457      1.0  0.48063  0.94886  0.72992  1.0000
  H   H458      1.0  0.47822  0.88707  0.63208  1.0000
  H   H459      1.0  0.56669  0.81808  0.66734  1.0000
  H   H460      1.0  0.56907  0.83405  0.71114  1.0000
  C   C292      1.0  0.55729  0.83062  0.68928  1.0000
  H   H461      1.0  0.57504  0.90882  0.69505  1.0000
  S   S117      1.0  0.45903  0.79895  0.72584  1.0000
  H   H462      1.0  0.51815  0.84182  0.65736  1.0000
  H   H463      1.0  0.53995  0.85386  0.62951  1.0000
  N   N29       1.0  0.54641  0.87153  0.68160  1.0000
  H   H464      1.0  0.54463  0.89109  0.73390  1.0000
  C   C293      1.0  0.53384  0.88705  0.71097  1.0000
  H   H465      1.0  0.52273  0.89573  0.64607  1.0000
  C   C294      1.0  0.56320  0.90317  0.67355  1.0000
  H   H466      1.0  0.37451  0.95127  0.86990  1.0000
  H   H467      1.0  0.55542  0.93426  0.66730  1.0000
  C   C295      1.0  0.47744  0.92092  0.71406  1.0000
  C   C296      1.0  0.47028  0.88340  0.72849  1.0000
  C   C297      1.0  0.37164  0.88900  0.84624  1.0000
  H   H468      1.0  0.44967  0.68635  0.72044  1.0000
  H   H469      1.0  0.42033  0.83656  0.94402  1.0000
  C   C298      1.0  0.37705  0.85235  0.93398  1.0000
  H   H470      1.0  0.46789  0.88252  0.75537  1.0000
  Fe  Fe59      1.0  0.44529  0.85644  0.84541  1.0000
  S   S118      1.0  0.42376  0.80851  0.86865  1.0000
  S   S119      1.0  0.45505  0.91434  0.87649  1.0000
  Fe  Fe60      1.0  0.44679  0.80785  0.77847  1.0000
  S   S120      1.0  0.42515  0.75612  0.79601  1.0000
  H   H471      1.0  0.56032  0.89646  0.92590  1.0000
  Fe  Fe61      1.0  0.40522  0.80906  0.81910  1.0000
  H   H472      1.0  0.38445  0.83952  0.91036  1.0000
  Fe  Fe62      1.0  0.44584  0.76068  0.84349  1.0000
  S   S121      1.0  0.46008  0.70273  0.86764  1.0000
  S   S122      1.0  0.42503  0.86090  0.79736  1.0000
  S   S123      1.0  0.46918  0.80855  0.82433  1.0000
  H   H473      1.0  0.54453  0.89125  0.96327  1.0000
  Fe  Fe63      1.0  0.53815  0.97338  0.05073  1.0000
  H   H474      1.0  0.52791  0.98255  0.96853  1.0000
  C   C299      1.0  0.46044  0.90208  0.91868  1.0000
  C   C300      1.0  0.46134  0.93479  0.94330  1.0000
  C   C301      1.0  0.46612  0.92554  0.97707  1.0000
  C   C302      1.0  0.47032  0.88359  0.98622  1.0000
  C   C303      1.0  0.46915  0.85081  0.96163  1.0000
  C   C304      1.0  0.46430  0.86005  0.92786  1.0000
  H   H475      1.0  0.45820  0.96732  0.93627  1.0000
  H   H476      1.0  0.46628  0.95082  0.99608  1.0000
  H   H477      1.0  0.47225  0.81826  0.96866  1.0000
  H   H478      1.0  0.46393  0.83465  0.90890  1.0000
  C   C305      1.0  0.51808  0.95813  0.95406  1.0000
  H   H479      1.0  0.51196  0.93529  0.97248  1.0000
  C   C306      1.0  0.41973  0.66702  0.85432  1.0000
  C   C307      1.0  0.44196  0.65993  0.86270  1.0000
  S   S124      1.0  0.47655  0.87147  0.02824  1.0000
  H   H480      1.0  0.41330  0.69912  0.85324  1.0000
  S   S125      1.0  0.50303  0.98507  0.03517  1.0000
  C   C308      1.0  0.40146  0.91260  0.93371  1.0000
  H   H481      1.0  0.54966  0.95244  0.88478  1.0000
  H   H482      1.0  0.37514  0.87236  0.00003  1.0000
  C   C309      1.0  0.40578  0.63248  0.84718  1.0000
  H   H483      1.0  0.59892  0.03752  0.59580  1.0000
  H   H484      1.0  0.56117  0.93733  0.95837  1.0000
  H   H485      1.0  0.57293  0.90618  0.02237  1.0000
  H   H486      1.0  0.51061  0.88104  0.92634  1.0000
  S   S126      1.0  0.56385  0.99639  0.01636  1.0000
  H   H487      1.0  0.42507  0.67953  0.74355  1.0000
  H   H488      1.0  0.60822  0.86543  0.02047  1.0000
  H   H489      1.0  0.50320  0.92038  0.89616  1.0000
  C   C310      1.0  0.41150  0.85104  0.96578  1.0000
  C   C311      1.0  0.55017  0.91426  0.94455  1.0000
  H   H490      1.0  0.54992  0.99210  0.91840  1.0000
  H   H491      1.0  0.52563  0.98495  0.89201  1.0000
  N   N30       1.0  0.53132  0.93619  0.92809  1.0000
  H   H492      1.0  0.52690  0.88702  0.88967  1.0000
  C   C312      1.0  0.51745  0.90476  0.90922  1.0000
  N   N31       1.0  0.39297  0.87828  0.95434  1.0000
  H   H493      1.0  0.40578  0.82462  0.98130  1.0000
  C   C313      1.0  0.36402  0.92395  0.86541  1.0000
  H   H494      1.0  0.37113  0.82490  0.94817  1.0000
  H   H495      1.0  0.47924  0.63021  0.72233  1.0000
  H   H496      1.0  0.41415  0.93174  0.94788  1.0000
  H   H497      1.0  0.38796  0.88957  0.83612  1.0000
  Fe  Fe64      1.0  0.49692  0.92117  0.05603  1.0000
  C   C314      1.0  0.58829  0.92262  0.01933  1.0000
  H   H498      1.0  0.60826  0.02203  0.00916  1.0000
  H   H499      1.0  0.57669  0.07344  0.60617  1.0000
  H   H500      1.0  0.52938  0.08293  0.60439  1.0000
  H   H501      1.0  0.50349  0.97461  0.94274  1.0000
  H   H502      1.0  0.40924  0.89971  0.91037  1.0000
  C   C315      1.0  0.58835  0.96680  0.01610  1.0000
  H   H503      1.0  0.52153  0.06865  0.05834  1.0000
  H   H504      1.0  0.44808  0.67210  0.79539  1.0000
  C   C316      1.0  0.46042  0.65420  0.78033  1.0000
  C   C317      1.0  0.38185  0.89727  0.98391  1.0000
  H   H505      1.0  0.46913  0.63206  0.79766  1.0000
  H   H506      1.0  0.36779  0.91817  0.97601  1.0000
  H   H507      1.0  0.38862  0.63800  0.84042  1.0000
  H   H508      1.0  0.39341  0.91707  0.99983  1.0000
  H   H509      1.0  0.43021  0.64591  0.70718  1.0000
  C   C318      1.0  0.43381  0.60044  0.76371  1.0000
  C   C319      1.0  0.43818  0.66204  0.72961  1.0000
  H   H510      1.0  0.42377  0.86953  0.98141  1.0000
  H   H511      1.0  0.38804  0.93485  0.92594  1.0000
  N   N32       1.0  0.44979  0.63120  0.75135  1.0000
  C   C320      1.0  0.45015  0.61832  0.86449  1.0000
  H   H512      1.0  0.42050  0.61666  0.77808  1.0000
  S   S127      1.0  0.53269  0.90699  0.06732  1.0000
  H   H513      1.0  0.46733  0.61285  0.87109  1.0000
  H   H514      1.0  0.47261  0.67773  0.77209  1.0000
  H   H515      1.0  0.36231  0.87143  0.92654  1.0000
  C   C321      1.0  0.58974  0.06639  0.58759  1.0000
  S   S128      1.0  0.36818  0.80857  0.81841  1.0000
  C   C322      1.0  0.60819  0.98787  0.01176  1.0000
  C   C323      1.0  0.60819  0.89959  0.01804  1.0000
  Fe  Fe65      1.0  0.80144  0.43760  0.31928  1.0000
  S   S129      1.0  0.79286  0.36851  0.31820  1.0000
  C   C324      1.0  0.77425  0.14349  0.55475  1.0000
  Fe  Fe66      1.0  0.75394  0.46608  0.32555  1.0000
  S   S130      1.0  0.74107  0.39953  0.32458  1.0000
  S   S131      1.0  0.73117  0.52192  0.33287  1.0000
  H   H516      1.0  0.65117  0.36283  0.15426  1.0000
  Fe  Fe67      1.0  0.76515  0.38841  0.28309  1.0000
  S   S132      1.0  0.75580  0.34701  0.23776  1.0000
  S   S133      1.0  0.77559  0.45658  0.28113  1.0000
  H   H517      1.0  0.69132  0.41600  0.21349  1.0000
  H   H518      1.0  0.72489  0.36366  0.38580  1.0000
  H   H519      1.0  0.75266  0.54192  0.44221  1.0000
  H   H520      1.0  0.68122  0.39302  0.12177  1.0000
  C   C325      1.0  0.66054  0.37219  0.17778  1.0000
  H   H521      1.0  0.69324  0.36097  0.22469  1.0000
  H   H522      1.0  0.81822  0.33467  0.41661  1.0000
  S   S134      1.0  0.78077  0.45355  0.36372  1.0000
  S   S135      1.0  0.74849  0.42647  0.09384  1.0000
  Fe  Fe68      1.0  0.76977  0.38604  0.35955  1.0000
  H   H523      1.0  0.65477  0.40458  0.18553  1.0000
  H   H524      1.0  0.72315  0.17625  0.52891  1.0000
  H   H525      1.0  0.83366  0.38226  0.28335  1.0000
  H   H526      1.0  0.65590  0.34988  0.19760  1.0000
  H   H527      1.0  0.75745  0.44443  0.43036  1.0000
  H   H528      1.0  0.85949  0.40992  0.38720  1.0000
  C   C326      1.0  0.85002  0.38593  0.29444  1.0000
  S   S136      1.0  0.83587  0.46278  0.32078  1.0000
  S   S137      1.0  0.70643  0.26364  0.55166  1.0000
  H   H529      1.0  0.68792  0.30427  0.18141  1.0000
  H   H530      1.0  0.70942  0.32607  0.15730  1.0000
  H   H531      1.0  0.86106  0.33953  0.46019  1.0000
  C   C327      1.0  0.68999  0.40124  0.14604  1.0000
  H   H532      1.0  0.77791  0.53706  0.33112  1.0000
  C   C328      1.0  0.75361  0.40407  0.13335  1.0000
  C   C329      1.0  0.75272  0.36007  0.13694  1.0000
  C   C330      1.0  0.75454  0.34274  0.16906  1.0000
  C   C331      1.0  0.75729  0.36927  0.19776  1.0000
  C   C332      1.0  0.75881  0.41324  0.19408  1.0000
  C   C333      1.0  0.75710  0.43059  0.16190  1.0000
  H   H533      1.0  0.75072  0.33930  0.11497  1.0000
  H   H534      1.0  0.75346  0.30869  0.17173  1.0000
  H   H535      1.0  0.76053  0.43403  0.21599  1.0000
  H   H536      1.0  0.75777  0.46467  0.15926  1.0000
  H   H537      1.0  0.68535  0.43445  0.15328  1.0000
  H   H538      1.0  0.70503  0.47819  0.46886  1.0000
  H   H539      1.0  0.70795  0.40083  0.14106  1.0000
  C   C334      1.0  0.69630  0.38366  0.20436  1.0000
  H   H540      1.0  0.71438  0.38415  0.20105  1.0000
  C   C335      1.0  0.69142  0.32778  0.16189  1.0000
  H   H541      1.0  0.68270  0.31723  0.13808  1.0000
  N   N33       1.0  0.68456  0.37122  0.17252  1.0000
  C   C336      1.0  0.74654  0.56867  0.33722  1.0000
  C   C337      1.0  0.76950  0.56707  0.33534  1.0000
  C   C338      1.0  0.86073  0.32228  0.43528  1.0000
  H   H542      1.0  0.73209  0.54939  0.40933  1.0000
  H   H543      1.0  0.82826  0.38087  0.43963  1.0000
  H   H544      1.0  0.61511  0.38926  0.45348  1.0000
  N   N34       1.0  0.85213  0.34959  0.40816  1.0000
  N   N35       1.0  0.75059  0.15326  0.55876  1.0000
  H   H545      1.0  0.72968  0.45529  0.38594  1.0000
  H   H546      1.0  0.73674  0.43094  0.45940  1.0000
  C   C339      1.0  0.82923  0.36268  0.41526  1.0000
  H   H547      1.0  0.72348  0.52061  0.48105  1.0000
  S   S138      1.0  0.68056  0.34299  0.48525  1.0000
  H   H548      1.0  0.74910  0.20005  0.52025  1.0000
  H   H549      1.0  0.75504  0.51494  0.40203  1.0000
  C   C340      1.0  0.70526  0.35448  0.42947  1.0000
  C   C341      1.0  0.70542  0.34458  0.46366  1.0000
  C   C342      1.0  0.72548  0.33644  0.48052  1.0000
  C   C343      1.0  0.74530  0.33797  0.46321  1.0000
  H   H550      1.0  0.72580  0.32914  0.50697  1.0000
  H   H551      1.0  0.76077  0.33176  0.47643  1.0000
  Fe  Fe69      1.0  0.68669  0.32170  0.53830  1.0000
  H   H552      1.0  0.75585  0.47271  0.47018  1.0000
  S   S139      1.0  0.77040  0.35210  0.40872  1.0000
  H   H553      1.0  0.62029  0.39451  0.54709  1.0000
  H   H554      1.0  0.63252  0.11965  0.55538  1.0000
  C   C344      1.0  0.61515  0.35795  0.46580  1.0000
  H   H555      1.0  0.70716  0.49151  0.39198  1.0000
  H   H556      1.0  0.85059  0.29327  0.43749  1.0000
  H   H557      1.0  0.82218  0.38320  0.39516  1.0000
  H   H558      1.0  0.62526  0.30415  0.51419  1.0000
  C   C345      1.0  0.73889  0.11415  0.56730  1.0000
  S   S140      1.0  0.64961  0.33982  0.08467  1.0000
  H   H559      1.0  0.70295  0.52825  0.44820  1.0000
  H   H560      1.0  0.70800  0.44201  0.41352  1.0000
  H   H561      1.0  0.84258  0.29615  0.37613  1.0000
  S   S141      1.0  0.65819  0.30632  0.57044  1.0000
  H   H562      1.0  0.62495  0.42257  0.50935  1.0000
  H   H563      1.0  0.68977  0.36043  0.41626  1.0000
  C   C346      1.0  0.62460  0.39035  0.52011  1.0000
  H   H564      1.0  0.77682  0.11895  0.53443  1.0000
  N   N36       1.0  0.73053  0.48925  0.43369  1.0000
  H   H565      1.0  0.72096  0.12034  0.57050  1.0000
  C   C347      1.0  0.74313  0.52546  0.42144  1.0000
  C   C348      1.0  0.74116  0.16973  0.52692  1.0000
  C   C349      1.0  0.72513  0.35637  0.41221  1.0000
  H   H566      1.0  0.64165  0.37704  0.51947  1.0000
  C   C350      1.0  0.71826  0.46859  0.40511  1.0000
  C   C351      1.0  0.85248  0.32570  0.37556  1.0000
  C   C352      1.0  0.74582  0.45807  0.44912  1.0000
  C   C353      1.0  0.74519  0.34815  0.42909  1.0000
  C   C354      1.0  0.71479  0.50480  0.45910  1.0000
  H   H567      1.0  0.78357  0.17234  0.54823  1.0000
  H   H568      1.0  0.86098  0.32340  0.27817  1.0000
  C   C355      1.0  0.85566  0.42342  0.31229  1.0000
  H   H569      1.0  0.84546  0.34508  0.35483  1.0000
  H   H570      1.0  0.63207  0.34417  0.46368  1.0000
  H   H571      1.0  0.74329  0.14655  0.50552  1.0000
  S   S142      1.0  0.70311  0.36408  0.57742  1.0000
  H   H572      1.0  0.78182  0.13115  0.57845  1.0000
  N   N37       1.0  0.75328  0.58310  0.73386  1.0000
  C   C356      1.0  0.71441  0.13361  0.64612  1.0000
  N   N38       1.0  0.71034  0.36313  0.72355  1.0000
  C   C357      1.0  0.67776  0.10710  0.60708  1.0000
  Fe  Fe70      1.0  0.67924  0.25156  0.58717  1.0000
  S   S143      1.0  0.69498  0.28732  0.63077  1.0000
  H   H573      1.0  0.76692  0.45882  0.91797  1.0000
  H   H574      1.0  0.74546  0.10084  0.59130  1.0000
  Fe  Fe71      1.0  0.72045  0.30479  0.59403  1.0000
  S   S144      1.0  0.75555  0.30075  0.61304  1.0000
  Fe  Fe72      1.0  0.67649  0.34338  0.61104  1.0000
  S   S145      1.0  0.66159  0.39161  0.64623  1.0000
  C   C358      1.0  0.74085  0.54317  0.72865  1.0000
  C   C359      1.0  0.68181  0.15046  0.61183  1.0000
  C   C360      1.0  0.69992  0.16380  0.63197  1.0000
  H   H575      1.0  0.70298  0.19726  0.63623  1.0000
  C   C361      1.0  0.63472  0.40278  0.63162  1.0000
  H   H576      1.0  0.63860  0.47053  0.63756  1.0000
  C   C362      1.0  0.76296  0.34572  0.63802  1.0000
  H   H577      1.0  0.78770  0.31233  0.66708  1.0000
  C   C363      1.0  0.77919  0.34229  0.66357  1.0000
  H   H578      1.0  0.74039  0.38824  0.61304  1.0000
  H   H579      1.0  0.75711  0.21538  0.58088  1.0000
  C   C364      1.0  0.68865  0.34262  0.71827  1.0000
  H   H580      1.0  0.68755  0.31298  0.73272  1.0000
  H   H581      1.0  0.73014  0.38882  0.76486  1.0000
  C   C365      1.0  0.78412  0.37737  0.68507  1.0000
  H   H582      1.0  0.74413  0.52802  0.70354  1.0000
  C   C366      1.0  0.62769  0.44502  0.62944  1.0000
  H   H583      1.0  0.72874  0.14390  0.66087  1.0000
  H   H584      1.0  0.74910  0.45002  0.65061  1.0000
  C   C367      1.0  0.71364  0.37459  0.75969  1.0000
  H   H585      1.0  0.72793  0.30369  0.72730  1.0000
  C   C368      1.0  0.77301  0.41608  0.68082  1.0000
  C   C369      1.0  0.75748  0.42000  0.65440  1.0000
  S   S146      1.0  0.77744  0.45927  0.70914  1.0000
  C   C370      1.0  0.72802  0.33347  0.71285  1.0000
  C   C371      1.0  0.75232  0.38480  0.63331  1.0000
  H   H586      1.0  0.71266  0.34613  0.77562  1.0000
  H   H587      1.0  0.79673  0.37453  0.70457  1.0000
  H   H588      1.0  0.74458  0.34799  0.71683  1.0000
  H   H589      1.0  0.63657  0.25683  0.05487  1.0000
  H   H590      1.0  0.70099  0.39782  0.76856  1.0000
  S   S147      1.0  0.71221  0.32288  0.07412  1.0000
  C   C372      1.0  0.62056  0.36983  0.62101  1.0000
  H   H591      1.0  0.78815  0.50151  0.98195  1.0000
  H   H592      1.0  0.83883  0.39221  0.87930  1.0000
  S   S148      1.0  0.85219  0.36727  0.81169  1.0000
  S   S149      1.0  0.69292  0.41423  0.04692  1.0000
  Fe  Fe73      1.0  0.81864  0.39827  0.81097  1.0000
  S   S150      1.0  0.79287  0.37059  0.77533  1.0000
  H   H593      1.0  0.78290  0.52596  0.94215  1.0000
  Fe  Fe74      1.0  0.78931  0.47123  0.83379  1.0000
  S   S151      1.0  0.76123  0.45033  0.79983  1.0000
  S   S152      1.0  0.78289  0.52687  0.86924  1.0000
  Fe  Fe75      1.0  0.76963  0.38492  0.81687  1.0000
  S   S153      1.0  0.74440  0.33781  0.83149  1.0000
  Fe  Fe76      1.0  0.78673  0.43808  0.76113  1.0000
  H   H594      1.0  0.68543  0.33416  0.69124  1.0000
  S   S154      1.0  0.79573  0.40640  0.85424  1.0000
  S   S155      1.0  0.81443  0.46508  0.79328  1.0000
  S   S156      1.0  0.69469  0.42914  0.95014  1.0000
  H   H595      1.0  0.75681  0.21584  0.94109  1.0000
  C   C373      1.0  0.77180  0.26705  0.89367  1.0000
  H   H596      1.0  0.64108  0.21757  0.00074  1.0000
  H   H597      1.0  0.78329  0.24455  0.88082  1.0000
  H   H598      1.0  0.77339  0.29848  0.88178  1.0000
  H   H599      1.0  0.80823  0.55045  0.81234  1.0000
  H   H600      1.0  0.80343  0.28785  0.96413  1.0000
  H   H601      1.0  0.78542  0.20394  0.93410  1.0000
  C   C374      1.0  0.74594  0.48412  0.99470  1.0000
  H   H602      1.0  0.74521  0.52443  0.91603  1.0000
  C   C375      1.0  0.72783  0.36196  0.86209  1.0000
  C   C376      1.0  0.72319  0.40551  0.86123  1.0000
  C   C377      1.0  0.71173  0.42563  0.88739  1.0000
  C   C378      1.0  0.70552  0.40244  0.91503  1.0000
  C   C379      1.0  0.70966  0.35865  0.91556  1.0000
  C   C380      1.0  0.72034  0.33824  0.88865  1.0000
  H   H603      1.0  0.72828  0.42379  0.84037  1.0000
  H   H604      1.0  0.70832  0.45939  0.88669  1.0000
  H   H605      1.0  0.70466  0.34050  0.93670  1.0000
  H   H606      1.0  0.72331  0.30436  0.88892  1.0000
  H   H607      1.0  0.76427  0.30395  0.97387  1.0000
  H   H608      1.0  0.67495  0.36422  0.72605  1.0000
  H   H609      1.0  0.78131  0.55850  0.70723  1.0000
  H   H610      1.0  0.81156  0.26282  0.92512  1.0000
  H   H611      1.0  0.70934  0.39402  0.67589  1.0000
  H   H612      1.0  0.76188  0.33256  0.93514  1.0000
  H   H613      1.0  0.77324  0.43437  0.95759  1.0000
  H   H614      1.0  0.75472  0.25580  0.88800  1.0000
  H   H615      1.0  0.72327  0.49955  0.93741  1.0000
  C   C381      1.0  0.68049  0.18004  0.04229  1.0000
  H   H616      1.0  0.74362  0.28953  0.94291  1.0000
  H   H617      1.0  0.77702  0.22927  0.97300  1.0000
  C   C382      1.0  0.79934  0.28508  0.93663  1.0000
  C   C383      1.0  0.77392  0.22790  0.94517  1.0000
  C   C384      1.0  0.76096  0.30055  0.94619  1.0000
  S   S157      1.0  0.73166  0.24220  0.00363  1.0000
  H   H618      1.0  0.80184  0.31686  0.92572  1.0000
  N   N39       1.0  0.77652  0.27012  0.93039  1.0000
  H   H619      1.0  0.62750  0.13932  0.61565  1.0000
  H   H620      1.0  0.68978  0.24507  0.03620  1.0000
  C   C385      1.0  0.78664  0.57586  0.85010  1.0000
  C   C386      1.0  0.69445  0.21220  0.03211  1.0000
  H   H621      1.0  0.77203  0.54962  0.97992  1.0000
  H   H622      1.0  0.74186  0.51382  0.00918  1.0000
  H   H623      1.0  0.64459  0.37634  0.01879  1.0000
  H   H624      1.0  0.75436  0.17407  0.61077  1.0000
  Fe  Fe77      1.0  0.71741  0.30524  0.01979  1.0000
  Fe  Fe78      1.0  0.69977  0.38875  0.99507  1.0000
  C   C387      1.0  0.62864  0.37527  0.03013  1.0000
  S   S158      1.0  0.73395  0.36638  0.00822  1.0000
  S   S159      1.0  0.68378  0.32579  0.00174  1.0000
  H   H625      1.0  0.69733  0.42419  0.70966  1.0000
  C   C388      1.0  0.71105  0.40187  0.70342  1.0000
  C   C389      1.0  0.62665  0.36022  0.06274  1.0000
  C   C390      1.0  0.61630  0.11160  0.61707  1.0000
  C   C391      1.0  0.77547  0.51871  0.96669  1.0000
  H   H626      1.0  0.73045  0.46551  0.99169  1.0000
  C   C392      1.0  0.71441  0.20174  0.01696  1.0000
  C   C393      1.0  0.68651  0.13728  0.03772  1.0000
  C   C394      1.0  0.72049  0.15894  0.01241  1.0000
  N   N40       1.0  0.75521  0.49333  0.96161  1.0000
  C   C395      1.0  0.70660  0.12669  0.02300  1.0000
  C   C396      1.0  0.85404  0.37446  0.88109  1.0000
  H   H627      1.0  0.62852  0.17212  0.01827  1.0000
  H   H628      1.0  0.72688  0.41901  0.70776  1.0000
  H   H629      1.0  0.73048  0.19483  0.58915  1.0000
  H   H630      1.0  0.73597  0.15068  0.00094  1.0000
  C   C397      1.0  0.76055  0.45298  0.94352  1.0000
  C   C398      1.0  0.62493  0.20215  0.00480  1.0000
  S   S160      1.0  0.66452  0.18679  0.59096  1.0000
  H   H631      1.0  0.72628  0.32452  0.68555  1.0000
  H   H632      1.0  0.75764  0.46529  0.01056  1.0000
  H   H633      1.0  0.74573  0.51960  0.74794  1.0000
  C   C399      1.0  0.73888  0.51755  0.94138  1.0000
  Fe  Fe79      1.0  0.67998  0.34912  0.05516  1.0000
  H   H634      1.0  0.74572  0.43266  0.94006  1.0000
  C   C400      1.0  0.79954  0.57818  0.82161  1.0000
  H   H635      1.0  0.62583  0.33709  0.62323  1.0000
  C   C401      1.0  0.62038  0.24099  0.05746  1.0000
  Fe  Fe80      1.0  0.72578  0.38617  0.06107  1.0000
  C   C402      1.0  0.77714  0.57388  0.73191  1.0000
  H   H636      1.0  0.73463  0.54845  0.95399  1.0000
  H   H637      1.0  0.78278  0.55170  0.75182  1.0000
  H   H638      1.0  0.62342  0.21193  0.07231  1.0000
  H   H639      1.0  0.85594  0.37890  0.93547  1.0000
  H   H640      1.0  0.75418  0.58120  0.78810  1.0000
  H   H641      1.0  0.66521  0.18825  0.05428  1.0000
  H   H642      1.0  0.72277  0.54873  0.73015  1.0000
  C   C403      1.0  0.74805  0.18573  0.58608  1.0000
  H   H643      1.0  0.61763  0.19322  0.97960  1.0000
  H   H644      1.0  0.62174  0.28767  0.00227  1.0000
  Fe  Fe81      1.0  0.77557  0.84430  0.32151  1.0000
  S   S161      1.0  0.74001  0.85891  0.31032  1.0000
  S   S162      1.0  0.80119  0.89469  0.31942  1.0000
  Fe  Fe82      1.0  0.76757  0.75075  0.33216  1.0000
  S   S163      1.0  0.73122  0.75666  0.32164  1.0000
  S   S164      1.0  0.78656  0.69052  0.34148  1.0000
  Fe  Fe83      1.0  0.74063  0.79802  0.27935  1.0000
  S   S165      1.0  0.72906  0.78742  0.22549  1.0000
  S   S166      1.0  0.77683  0.78712  0.28713  1.0000
  H   H645      1.0  0.78531  0.68023  0.20317  1.0000
  C   C404      1.0  0.83187  0.93515  0.43103  1.0000
  H   H646      1.0  0.63571  0.94351  0.48699  1.0000
  Fe  Fe84      1.0  0.69805  0.96766  0.10646  1.0000
  H   H647      1.0  0.64761  0.85037  0.50139  1.0000
  S   S167      1.0  0.69551  0.95894  0.16240  1.0000
  C   C405      1.0  0.63038  0.94390  0.15230  1.0000
  S   S168      1.0  0.76972  0.80726  0.36763  1.0000
  H   H648      1.0  0.80260  0.94220  0.25729  1.0000
  H   H649      1.0  0.75593  0.69210  0.28358  1.0000
  Fe  Fe85      1.0  0.68587  0.96162  0.57385  1.0000
  C   C406      1.0  0.84802  0.81491  0.35587  1.0000
  N   N41       1.0  0.65874  0.89740  0.46753  1.0000
  H   H650      1.0  0.84296  0.93413  0.33428  1.0000
  H   H651      1.0  0.64429  0.95851  0.13923  1.0000
  C   C407      1.0  0.66033  0.86696  0.43861  1.0000
  C   C408      1.0  0.71787  0.83348  0.20753  1.0000
  C   C409      1.0  0.71829  0.83824  0.17257  1.0000
  C   C410      1.0  0.71095  0.87631  0.15824  1.0000
  C   C411      1.0  0.70301  0.90953  0.17884  1.0000
  C   C412      1.0  0.70208  0.90426  0.21368  1.0000
  C   C413      1.0  0.70952  0.86636  0.22800  1.0000
  H   H652      1.0  0.72472  0.81285  0.15661  1.0000
  H   H653      1.0  0.71176  0.88009  0.13138  1.0000
  H   H654      1.0  0.69582  0.92978  0.22970  1.0000
  H   H655      1.0  0.70860  0.86250  0.25487  1.0000
  H   H656      1.0  0.63091  0.86773  0.12058  1.0000
  S   S169      1.0  0.71510  0.00238  0.56580  1.0000
  C   C414      1.0  0.77104  0.64387  0.34248  1.0000
  Fe  Fe86      1.0  0.73361  0.94154  0.55749  1.0000
  H   H657      1.0  0.83928  0.92639  0.40646  1.0000
  H   H658      1.0  0.78348  0.87345  0.25269  1.0000
  H   H659      1.0  0.75963  0.86696  0.22546  1.0000
  C   C415      1.0  0.74805  0.63638  0.20996  1.0000
  H   H660      1.0  0.79333  0.98575  0.23217  1.0000
  C   C416      1.0  0.79477  0.95048  0.23257  1.0000
  C   C417      1.0  0.84439  0.90076  0.33994  1.0000
  C   C418      1.0  0.82652  0.87371  0.33362  1.0000
  C   C419      1.0  0.82840  0.83068  0.34134  1.0000
  H   H661      1.0  0.81469  0.80950  0.33654  1.0000
  S   S170      1.0  0.71086  0.83023  0.39548  1.0000
  H   H662      1.0  0.75874  0.62237  0.19010  1.0000
  H   H663      1.0  0.63092  0.06420  0.56462  1.0000
  H   H664      1.0  0.66001  0.88339  0.41414  1.0000
  H   H665      1.0  0.67552  0.94715  0.44264  1.0000
  H   H666      1.0  0.80632  0.94013  0.21258  1.0000
  C   C420      1.0  0.83103  0.86175  0.44692  1.0000
  N   N42       1.0  0.61346  0.92695  0.12808  1.0000
  H   H667      1.0  0.73982  0.67546  0.34947  1.0000
  H   H668      1.0  0.62329  0.89682  0.46817  1.0000
  H   H669      1.0  0.78694  0.64208  0.27325  1.0000
  Fe  Fe87      1.0  0.73405  0.81648  0.35360  1.0000
  H   H670      1.0  0.75578  0.97954  0.25497  1.0000
  S   S171      1.0  0.71618  0.02199  0.08468  1.0000
  H   H671      1.0  0.78641  0.87124  0.20782  1.0000
  H   H672      1.0  0.84934  0.78170  0.36207  1.0000
  C   C421      1.0  0.74812  0.64538  0.34530  1.0000
  N   N43       1.0  0.77302  0.93009  0.22762  1.0000
  C   C422      1.0  0.76317  0.94196  0.19469  1.0000
  C   C423      1.0  0.75837  0.94449  0.25491  1.0000
  C   C424      1.0  0.77576  0.88340  0.22839  1.0000
  H   H673      1.0  0.74691  0.92659  0.19003  1.0000
  H   H674      1.0  0.77384  0.93204  0.17346  1.0000
  H   H675      1.0  0.76038  0.97691  0.19339  1.0000
  H   H676      1.0  0.74188  0.92944  0.25214  1.0000
  H   H677      1.0  0.76540  0.93624  0.28014  1.0000
  H   H678      1.0  0.84470  0.86676  0.46583  1.0000
  H   H679      1.0  0.79018  0.92185  0.41188  1.0000
  H   H680      1.0  0.73980  0.90230  0.39505  1.0000
  H   H681      1.0  0.80629  0.88014  0.39327  1.0000
  H   H682      1.0  0.82105  0.92061  0.49496  1.0000
  H   H683      1.0  0.84575  0.94204  0.44926  1.0000
  C   C425      1.0  0.79975  0.89249  0.41751  1.0000
  H   H684      1.0  0.82241  0.96522  0.42750  1.0000
  H   H685      1.0  0.66003  0.89622  0.52157  1.0000
  H   H686      1.0  0.63470  0.93640  0.44198  1.0000
  S   S172      1.0  0.66627  0.98377  0.07995  1.0000
  S   S173      1.0  0.75645  0.93811  0.51375  1.0000
  C   C426      1.0  0.72496  0.85824  0.42804  1.0000
  H   H687      1.0  0.79714  0.88895  0.48476  1.0000
  C   C427      1.0  0.74780  0.91747  0.44735  1.0000
  C   C428      1.0  0.74503  0.90631  0.48084  1.0000
  C   C429      1.0  0.73279  0.87033  0.48782  1.0000
  C   C430      1.0  0.72257  0.84655  0.46148  1.0000
  H   H688      1.0  0.67598  0.84836  0.43990  1.0000
  H   H689      1.0  0.75704  0.94557  0.44191  1.0000
  H   H690      1.0  0.73141  0.86045  0.51351  1.0000
  H   H691      1.0  0.71298  0.81890  0.46700  1.0000
  H   H692      1.0  0.76317  0.71716  0.21191  1.0000
  S   S174      1.0  0.65446  0.98477  0.54932  1.0000
  H   H693      1.0  0.64661  0.84371  0.43796  1.0000
  H   H694      1.0  0.69309  0.91361  0.46743  1.0000
  C   C431      1.0  0.66093  0.87414  0.49927  1.0000
  H   H695      1.0  0.67703  0.85698  0.50116  1.0000
  N   N44       1.0  0.81769  0.90086  0.44269  1.0000
  C   C432      1.0  0.77417  0.69240  0.22310  1.0000
  C   C433      1.0  0.80806  0.91396  0.47524  1.0000
  C   C434      1.0  0.73795  0.89320  0.42091  1.0000
  C   C435      1.0  0.63715  0.91947  0.46603  1.0000
  H   H696      1.0  0.61269  0.08621  0.53327  1.0000
  H   H697      1.0  0.82079  0.83501  0.45523  1.0000
  C   C436      1.0  0.67656  0.92903  0.46629  1.0000
  H   H698      1.0  0.83866  0.85131  0.42279  1.0000
  C   C437      1.0  0.62090  0.09283  0.55826  1.0000
  C   C438      1.0  0.74640  0.67577  0.26280  1.0000
  H   H699      1.0  0.63765  0.91843  0.16813  1.0000
  C   C439      1.0  0.62352  0.89408  0.10585  1.0000
  H   H700      1.0  0.67591  0.95234  0.48792  1.0000
  H   H701      1.0  0.63686  0.90750  0.09074  1.0000
  H   H702      1.0  0.73475  0.69958  0.25190  1.0000
  H   H703      1.0  0.78802  0.86843  0.42631  1.0000
  H   H704      1.0  0.78461  0.70853  0.24306  1.0000
  H   H705      1.0  0.79776  0.94325  0.47284  1.0000
  N   N45       1.0  0.76128  0.65775  0.23717  1.0000
  H   H706      1.0  0.73640  0.65913  0.19767  1.0000
  H   H707      1.0  0.62341  0.96876  0.16953  1.0000
  C   C440      1.0  0.77644  0.62666  0.25299  1.0000
  H   H708      1.0  0.73812  0.61016  0.21992  1.0000
  H   H709      1.0  0.73646  0.65064  0.27424  1.0000
  H   H710      1.0  0.74047  0.08886  0.54729  1.0000
  H   H711      1.0  0.78769  0.61169  0.23434  1.0000
  H   H712      1.0  0.61740  0.97623  0.09220  1.0000
  C   C441      1.0  0.78173  0.60459  0.33822  1.0000
  S   S175      1.0  0.70360  0.90102  0.56066  1.0000
  C   C442      1.0  0.63120  0.95562  0.55905  1.0000
  C   C443      1.0  0.73586  0.60777  0.34261  1.0000
  H   H713      1.0  0.71811  0.60905  0.34443  1.0000
  H   H714      1.0  0.79948  0.60324  0.33617  1.0000
  H   H715      1.0  0.76726  0.60072  0.26483  1.0000
  C   C444      1.0  0.63307  0.91803  0.57695  1.0000
  H   H716      1.0  0.74018  0.91539  0.76676  1.0000
  H   H717      1.0  0.69154  0.90592  0.74868  1.0000
  Fe  Fe88      1.0  0.72385  0.97502  0.04278  1.0000
  Fe  Fe89      1.0  0.71253  0.89989  0.61592  1.0000
  S   S176      1.0  0.74397  0.93645  0.61193  1.0000
  S   S177      1.0  0.71367  0.83757  0.64199  1.0000
  Fe  Fe90      1.0  0.72224  0.99351  0.62073  1.0000
  S   S178      1.0  0.73052  0.05197  0.65210  1.0000
  S   S179      1.0  0.69161  0.95659  0.62961  1.0000
  C   C445      1.0  0.69951  0.87880  0.73669  1.0000
  H   H718      1.0  0.81678  0.81901  0.92678  1.0000
  H   H719      1.0  0.79772  0.94102  0.74672  1.0000
  C   C446      1.0  0.76595  0.89491  0.71471  1.0000
  H   H720      1.0  0.68884  0.04389  0.61669  1.0000
  C   C447      1.0  0.75622  0.93218  0.76628  1.0000
  H   H721      1.0  0.79112  0.96308  0.70629  1.0000
  C   C448      1.0  0.72017  0.80886  0.70562  1.0000
  H   H722      1.0  0.66396  0.09638  0.59150  1.0000
  C   C449      1.0  0.70055  0.87586  0.70140  1.0000
  H   H723      1.0  0.85468  0.94710  0.82642  1.0000
  H   H724      1.0  0.75028  0.87691  0.71474  1.0000
  C   C450      1.0  0.78496  0.95917  0.73218  1.0000
  C   C451      1.0  0.71100  0.84098  0.68585  1.0000
  H   H725      1.0  0.78370  0.99135  0.74440  1.0000
  H   H726      1.0  0.75681  0.63327  0.77143  1.0000
  H   H727      1.0  0.72822  0.78180  0.69366  1.0000
  N   N46       1.0  0.76351  0.93724  0.73139  1.0000
  Fe  Fe91      1.0  0.67786  0.93983  0.03890  1.0000
  H   H728      1.0  0.75414  0.96344  0.77965  1.0000
  H   H729      1.0  0.69315  0.90039  0.68628  1.0000
  C   C452      1.0  0.61418  0.89406  0.58265  1.0000
  H   H730      1.0  0.74445  0.99462  0.72437  1.0000
  H   H731      1.0  0.75204  0.96752  0.68609  1.0000
  C   C453      1.0  0.82867  0.83694  0.94356  1.0000
  C   C454      1.0  0.74696  0.96256  0.71243  1.0000
  Fe  Fe92      1.0  0.79036  0.85146  0.82659  1.0000
  S   S180      1.0  0.76103  0.86690  0.85757  1.0000
  S   S181      1.0  0.81304  0.90501  0.81599  1.0000
  Fe  Fe93      1.0  0.77812  0.75867  0.81768  1.0000
  S   S182      1.0  0.74742  0.76600  0.84774  1.0000
  S   S183      1.0  0.78997  0.69839  0.79209  1.0000
  Fe  Fe94      1.0  0.74249  0.82633  0.81967  1.0000
  S   S184      1.0  0.71056  0.85379  0.80047  1.0000
  Fe  Fe95      1.0  0.76883  0.80586  0.88300  1.0000
  S   S185      1.0  0.76796  0.79885  0.93909  1.0000
  S   S186      1.0  0.77130  0.81581  0.78624  1.0000
  S   S187      1.0  0.79999  0.79359  0.85535  1.0000
  C   C455      1.0  0.71076  0.09014  0.64000  1.0000
  C   C456      1.0  0.76744  0.84707  0.96228  1.0000
  C   C457      1.0  0.77290  0.88513  0.94736  1.0000
  C   C458      1.0  0.77055  0.92387  0.96528  1.0000
  C   C459      1.0  0.76240  0.92461  0.99795  1.0000
  S   S188      1.0  0.65323  0.89346  0.01673  1.0000
  C   C460      1.0  0.76063  0.84761  0.99570  1.0000
  H   H732      1.0  0.77885  0.88484  0.92203  1.0000
  H   H733      1.0  0.77430  0.95341  0.95345  1.0000
  S   S189      1.0  0.70841  0.91936  0.06711  1.0000
  H   H734      1.0  0.75669  0.81813  0.00748  1.0000
  H   H735      1.0  0.78701  0.60346  0.73510  1.0000
  H   H736      1.0  0.72406  0.84254  0.91543  1.0000
  H   H737      1.0  0.67780  0.92048  0.90738  1.0000
  C   C461      1.0  0.74845  0.60212  0.76738  1.0000
  H   H738      1.0  0.76839  0.91337  0.78130  1.0000
  C   C462      1.0  0.71479  0.87297  0.91229  1.0000
  H   H739      1.0  0.67267  0.92410  0.95183  1.0000
  C   C463      1.0  0.62810  0.92102  0.01474  1.0000
  C   C464      1.0  0.79021  0.65299  0.81677  1.0000
  C   C465      1.0  0.77782  0.65118  0.84591  1.0000
  H   H740      1.0  0.76621  0.61110  0.88484  1.0000
  H   H741      1.0  0.76913  0.67914  0.85508  1.0000
  S   S190      1.0  0.69400  0.99118  0.01072  1.0000
  C   C466      1.0  0.84021  0.88586  0.81510  1.0000
  C   C467      1.0  0.84431  0.84255  0.80921  1.0000
  H   H742      1.0  0.77064  0.89742  0.68792  1.0000
  H   H743      1.0  0.83083  0.82113  0.80328  1.0000
  C   C468      1.0  0.82945  0.89471  0.90493  1.0000
  H   H744      1.0  0.81957  0.91561  0.92198  1.0000
  H   H745      1.0  0.67362  0.84195  0.90849  1.0000
  N   N47       1.0  0.69752  0.87835  0.93769  1.0000
  C   C469      1.0  0.75780  0.88643  0.01339  1.0000
  H   H746      1.0  0.64338  0.98187  0.00897  1.0000
  H   H747      1.0  0.75023  0.60009  0.68184  1.0000
  H   H748      1.0  0.81151  0.61827  0.78315  1.0000
  H   H749      1.0  0.75187  0.88686  0.03885  1.0000
  H   H750      1.0  0.69007  0.81174  0.93773  1.0000
  S   S191      1.0  0.66850  0.09774  0.05019  1.0000
  C   C470      1.0  0.68171  0.84296  0.93400  1.0000
  H   H751      1.0  0.66851  0.84614  0.95296  1.0000
  H   H752      1.0  0.64907  0.90713  0.58600  1.0000
  H   H753      1.0  0.71707  0.84814  0.97616  1.0000
  H   H754      1.0  0.69724  0.94656  0.93587  1.0000
  H   H755      1.0  0.72706  0.89906  0.91459  1.0000
  H   H756      1.0  0.72882  0.62111  0.70821  1.0000
  H   H757      1.0  0.73067  0.94653  0.71094  1.0000
  H   H758      1.0  0.71137  0.09366  0.01958  1.0000
  C   C471      1.0  0.70786  0.87827  0.97178  1.0000
  C   C472      1.0  0.62807  0.96511  0.01163  1.0000
  C   C473      1.0  0.71965  0.81235  0.74087  1.0000
  H   H759      1.0  0.69542  0.88154  0.99170  1.0000
  C   C474      1.0  0.68578  0.91918  0.93290  1.0000
  C   C475      1.0  0.77612  0.61262  0.86267  1.0000
  H   H760      1.0  0.70768  0.87273  0.88609  1.0000
  H   H761      1.0  0.72715  0.78782  0.75602  1.0000
  H   H762      1.0  0.71952  0.90514  0.97567  1.0000
  S   S192      1.0  0.75680  0.97347  0.01821  1.0000
  H   H763      1.0  0.62663  0.08392  0.62480  1.0000
  C   C476      1.0  0.80145  0.61668  0.80515  1.0000
  C   C477      1.0  0.70940  0.84739  0.75644  1.0000
  C   C478      1.0  0.85781  0.91353  0.82201  1.0000
  H   H764      1.0  0.77876  0.87534  0.72776  1.0000
  C   C479      1.0  0.69211  0.07715  0.62116  1.0000
  H   H765      1.0  0.81771  0.87809  0.88713  1.0000
  H   H766      1.0  0.75586  0.64382  0.71086  1.0000
  Fe  Fe96      1.0  0.68507  0.03385  0.05457  1.0000
  H   H767      1.0  0.73050  0.60804  0.77028  1.0000
  H   H768      1.0  0.61562  0.86471  0.59610  1.0000
  C   C480      1.0  0.74673  0.61331  0.70749  1.0000
  H   H769      1.0  0.83834  0.81320  0.95816  1.0000
  H   H770      1.0  0.81875  0.85611  0.96177  1.0000
  H   H771      1.0  0.84509  0.81986  0.88183  1.0000
  N   N48       1.0  0.84312  0.86411  0.92406  1.0000
  H   H772      1.0  0.83976  0.91549  0.88961  1.0000
  C   C481      1.0  0.85599  0.83733  0.90038  1.0000
  H   H773      1.0  0.84930  0.90817  0.96564  1.0000
  C   C482      1.0  0.85841  0.88759  0.94735  1.0000
  Fe  Fe97      1.0  0.96945  0.34161  0.38621  1.0000
  S   S193      1.0  0.96116  0.28624  0.35149  1.0000
  S   S194      1.0  0.00006  0.38000  0.38069  1.0000
  Fe  Fe98      1.0  0.92661  0.31202  0.35286  1.0000
  S   S195      1.0  0.90483  0.31358  0.30614  1.0000
  C   C483      1.0  0.94913  0.11074  0.42529  1.0000
  C   C484      1.0  0.92652  0.15156  0.38663  1.0000
  S   S196      1.0  0.93571  0.37037  0.38354  1.0000
  H   H774      1.0  0.99846  0.36679  0.45552  1.0000
  S   S197      1.0  0.99063  0.39407  0.14509  1.0000
  S   S198      1.0  0.01413  0.56906  0.20675  1.0000
  H   H775      1.0  0.92066  0.35113  0.24617  1.0000
  H   H776      1.0  0.97845  0.42759  0.24615  1.0000
  S   S199      1.0  0.01998  0.46514  0.21296  1.0000
  Fe  Fe99      1.0  0.99521  0.51528  0.22728  1.0000
  S   S200      1.0  0.97761  0.52211  0.27614  1.0000
  Fe  Fe100     1.0  0.03736  0.51834  0.18828  1.0000
  Fe  Fe101     1.0  0.00035  0.45945  0.16440  1.0000
  S   S201      1.0  0.97402  0.50526  0.18070  1.0000
  H   H777      1.0  0.94513  0.33031  0.22726  1.0000
  C   C485      1.0  0.94513  0.14826  0.40803  1.0000
  H   H778      1.0  0.96564  0.34351  0.28039  1.0000
  H   H779      1.0  0.94204  0.36680  0.30019  1.0000
  C   C486      1.0  0.93539  0.43033  0.25822  1.0000
  H   H780      1.0  0.01426  0.42543  0.53525  1.0000
  C   C487      1.0  0.93289  0.35963  0.56753  1.0000
  H   H781      1.0  0.93021  0.44569  0.23436  1.0000
  C   C488      1.0  0.08173  0.45337  0.21477  1.0000
  H   H782      1.0  0.94468  0.45442  0.27383  1.0000
  H   H783      1.0  0.06519  0.45491  0.22390  1.0000
  H   H784      1.0  0.92345  0.18038  0.37301  1.0000
  C   C489      1.0  0.89245  0.39534  0.32269  1.0000
  S   S202      1.0  0.01991  0.50815  0.13818  1.0000
  H   H785      1.0  0.90887  0.39969  0.33299  1.0000
  S   S203      1.0  0.07374  0.53181  0.18825  1.0000
  H   H786      1.0  0.08751  0.38957  0.23149  1.0000
  C   C490      1.0  0.87712  0.42868  0.32530  1.0000
  S   S204      1.0  0.96355  0.30688  0.43338  1.0000
  H   H787      1.0  0.05508  0.39537  0.16948  1.0000
  C   C491      1.0  0.86606  0.38773  0.40645  1.0000
  C   C492      1.0  0.99503  0.42241  0.35379  1.0000
  C   C493      1.0  0.97584  0.44700  0.35666  1.0000
  C   C494      1.0  0.97106  0.47875  0.33344  1.0000
  C   C495      1.0  0.98531  0.48561  0.30701  1.0000
  C   C496      1.0  0.00483  0.46187  0.30470  1.0000
  C   C497      1.0  0.00977  0.43049  0.32824  1.0000
  H   H788      1.0  0.96469  0.44170  0.37684  1.0000
  H   H789      1.0  0.95606  0.49736  0.33552  1.0000
  H   H790      1.0  0.01619  0.46775  0.28495  1.0000
  H   H791      1.0  0.02474  0.41177  0.32617  1.0000
  Fe  Fe102     1.0  0.95223  0.25360  0.39864  1.0000
  H   H792      1.0  0.92022  0.42287  0.27195  1.0000
  H   H793      1.0  0.96347  0.41595  0.20745  1.0000
  H   H794      1.0  0.03968  0.34852  0.10334  1.0000
  H   H795      1.0  0.98672  0.44145  0.54501  1.0000
  H   H796      1.0  0.97919  0.37487  0.22753  1.0000
  H   H797      1.0  0.96710  0.39601  0.29881  1.0000
  C   C498      1.0  0.88652  0.35697  0.30645  1.0000
  C   C499      1.0  0.95623  0.37370  0.28416  1.0000
  Fe  Fe103     1.0  0.99520  0.55459  0.15875  1.0000
  H   H798      1.0  0.09083  0.36190  0.15653  1.0000
  C   C500      1.0  0.96835  0.40299  0.23237  1.0000
  H   H799      1.0  0.92984  0.37250  0.20754  1.0000
  C   C501      1.0  0.09039  0.48783  0.19819  1.0000
  C   C502      1.0  0.86554  0.35280  0.29127  1.0000
  H   H800      1.0  0.88166  0.45802  0.33851  1.0000
  C   C503      1.0  0.00351  0.41256  0.08128  1.0000
  N   N49       1.0  0.94888  0.39175  0.25174  1.0000
  C   C504      1.0  0.93555  0.36004  0.23225  1.0000
  H   H801      1.0  0.88327  0.37909  0.39976  1.0000
  H   H802      1.0  0.03762  0.41541  0.13642  1.0000
  H   H803      1.0  0.97923  0.32104  0.10373  1.0000
  S   S205      1.0  0.91677  0.27449  0.39725  1.0000
  C   C505      1.0  0.99380  0.38311  0.10187  1.0000
  C   C506      1.0  0.99802  0.43458  0.52383  1.0000
  H   H804      1.0  0.06220  0.44345  0.14913  1.0000
  C   C507      1.0  0.05691  0.34456  0.11330  1.0000
  H   H805      1.0  0.96011  0.10039  0.35372  1.0000
  C   C508      1.0  0.06811  0.40944  0.08782  1.0000
  H   H806      1.0  0.00884  0.44288  0.09164  1.0000
  C   C509      1.0  0.91244  0.11659  0.38156  1.0000
  C   C510      1.0  0.98672  0.36130  0.51984  1.0000
  N   N50       1.0  0.06765  0.38613  0.11960  1.0000
  N   N51       1.0  0.98916  0.40067  0.50088  1.0000
  S   S206      1.0  0.96484  0.18858  0.41098  1.0000
  Fe  Fe104     1.0  0.92889  0.33091  0.42788  1.0000
  H   H807      1.0  0.96868  0.44329  0.47208  1.0000
  H   H808      1.0  0.10054  0.36084  0.11422  1.0000
  C   C511      1.0  0.92222  0.34553  0.50884  1.0000
  C   C512      1.0  0.93162  0.30492  0.51061  1.0000
  C   C513      1.0  0.94130  0.29139  0.54098  1.0000
  H   H809      1.0  0.86702  0.40549  0.43110  1.0000
  H   H810      1.0  0.00287  0.34952  0.52990  1.0000
  C   C514      1.0  0.92253  0.37264  0.53745  1.0000
  H   H811      1.0  0.94853  0.25988  0.54228  1.0000
  H   H812      1.0  0.91527  0.40409  0.53612  1.0000
  H   H813      1.0  0.00019  0.46483  0.51051  1.0000
  H   H814      1.0  0.97928  0.33531  0.50380  1.0000
  H   H815      1.0  0.02114  0.38336  0.48243  1.0000
  H   H816      1.0  0.95558  0.42092  0.50748  1.0000
  C   C515      1.0  0.00444  0.39278  0.47295  1.0000
  S   S207      1.0  0.91122  0.36340  0.47044  1.0000
  H   H817      1.0  0.97589  0.36659  0.54174  1.0000
  C   C516      1.0  0.96741  0.41411  0.48706  1.0000
  H   H818      1.0  0.93130  0.28368  0.48867  1.0000
  H   H819      1.0  0.95994  0.38901  0.47019  1.0000
  H   H820      1.0  0.00624  0.42143  0.45745  1.0000
  H   H821      1.0  0.89846  0.11863  0.36417  1.0000
  C   C517      1.0  0.09449  0.41656  0.21942  1.0000
  C   C518      1.0  0.98664  0.34409  0.08787  1.0000
  H   H822      1.0  0.98721  0.10826  0.33859  1.0000
  H   H823      1.0  0.09896  0.41025  0.13780  1.0000
  C   C519      1.0  0.05511  0.41118  0.14475  1.0000
  C   C520      1.0  0.09046  0.37945  0.13253  1.0000
  H   H824      1.0  0.07606  0.44103  0.09177  1.0000
  C   C521      1.0  0.94224  0.31891  0.56931  1.0000
  H   H825      1.0  0.87795  0.31179  0.43059  1.0000
  H   H826      1.0  0.06598  0.32466  0.09454  1.0000
  H   H827      1.0  0.05610  0.32640  0.13690  1.0000
  H   H828      1.0  0.86958  0.31640  0.36868  1.0000
  H   H829      1.0  0.96335  0.10834  0.44221  1.0000
  H   H830      1.0  0.89861  0.41199  0.00132  1.0000
  S   S208      1.0  0.95585  0.30242  0.60625  1.0000
  H   H831      1.0  0.98118  0.51711  0.67101  1.0000
  H   H832      1.0  0.09964  0.34441  0.69054  1.0000
  Fe  Fe105     1.0  0.99090  0.44415  0.63301  1.0000
  S   S209      1.0  0.00882  0.44003  0.68298  1.0000
  S   S210      1.0  0.99166  0.50139  0.60094  1.0000
  Fe  Fe106     1.0  0.97435  0.35467  0.63364  1.0000
  S   S211      1.0  0.99082  0.34180  0.68346  1.0000
  Fe  Fe107     1.0  0.97848  0.40645  0.69877  1.0000
  H   H833      1.0  0.08494  0.47671  0.62877  1.0000
  Fe  Fe108     1.0  0.01964  0.37595  0.66356  1.0000
  S   S212      1.0  0.05319  0.34958  0.67616  1.0000
  S   S213      1.0  0.95935  0.41676  0.65053  1.0000
  S   S214      1.0  0.00446  0.38275  0.61194  1.0000
  H   H834      1.0  0.95836  0.38781  0.00124  1.0000
  H   H835      1.0  0.96053  0.33083  0.73408  1.0000
  H   H836      1.0  0.89334  0.41555  0.79437  1.0000
  C   C522      1.0  0.98784  0.54839  0.62480  1.0000
  C   C523      1.0  0.07474  0.38385  0.66713  1.0000
  C   C524      1.0  0.07055  0.42137  0.64993  1.0000
  C   C525      1.0  0.08800  0.44862  0.64320  1.0000
  H   H837      1.0  0.05396  0.42887  0.64126  1.0000
  S   S215      1.0  0.96487  0.42088  0.75000  1.0000
  C   C526      1.0  0.94252  0.40501  0.99676  1.0000
  N   N52       1.0  0.89636  0.40792  0.74059  1.0000
  H   H838      1.0  0.99339  0.58857  0.58290  1.0000
  H   H839      1.0  0.94611  0.46772  0.04396  1.0000
  C   C527      1.0  0.94263  0.43550  0.05326  1.0000
  C   C528      1.0  0.04675  0.53773  0.66643  1.0000
  H   H840      1.0  0.90386  0.38786  0.68981  1.0000
  C   C529      1.0  0.09632  0.37358  0.67747  1.0000
  H   H841      1.0  0.94156  0.35033  0.04747  1.0000
  H   H842      1.0  0.03232  0.37743  0.73563  1.0000
  H   H843      1.0  0.03017  0.29948  0.72284  1.0000
  H   H844      1.0  0.94651  0.43636  0.98631  1.0000
  H   H845      1.0  0.03338  0.28957  0.81583  1.0000
  C   C530      1.0  0.00629  0.40285  0.04694  1.0000
  N   N53       1.0  0.05920  0.57708  0.66128  1.0000
  H   H846      1.0  0.91103  0.46290  0.00980  1.0000
  C   C531      1.0  0.90243  0.39595  0.77539  1.0000
  H   H847      1.0  0.90378  0.34580  0.71954  1.0000
  C   C532      1.0  0.98366  0.54720  0.65928  1.0000
  C   C533      1.0  0.98909  0.33463  0.05339  1.0000
  C   C534      1.0  0.02718  0.37083  0.76164  1.0000
  H   H848      1.0  0.06494  0.33130  0.74476  1.0000
  H   H849      1.0  0.98377  0.30426  0.04283  1.0000
  H   H850      1.0  0.08488  0.56097  0.69724  1.0000
  H   H851      1.0  0.91629  0.34689  0.02294  1.0000
  H   H852      1.0  0.09025  0.54467  0.65459  1.0000
  H   H853      1.0  0.06371  0.56294  0.60856  1.0000
  H   H854      1.0  0.92430  0.22088  0.84605  1.0000
  C   C535      1.0  0.05924  0.32627  0.77080  1.0000
  H   H855      1.0  0.06570  0.29471  0.77855  1.0000
  Fe  Fe109     1.0  0.97711  0.30853  0.96549  1.0000
  S   S216      1.0  0.94899  0.28056  0.99265  1.0000
  S   S217      1.0  0.00190  0.35350  0.98962  1.0000
  Fe  Fe110     1.0  0.96174  0.27199  0.89723  1.0000
  S   S218      1.0  0.93232  0.24106  0.91866  1.0000
  S   S219      1.0  0.96692  0.26041  0.84171  1.0000
  Fe  Fe111     1.0  0.92839  0.30185  0.94853  1.0000
  S   S220      1.0  0.89607  0.33586  0.95519  1.0000
  Fe  Fe112     1.0  0.95560  0.22236  0.96035  1.0000
  S   S221      1.0  0.95268  0.15583  0.97846  1.0000
  S   S222      1.0  0.95585  0.33468  0.92375  1.0000
  S   S223      1.0  0.98564  0.24834  0.93671  1.0000
  H   H856      1.0  0.89222  0.32532  0.83200  1.0000
  C   C536      1.0  0.88389  0.34506  0.91543  1.0000
  H   H857      1.0  0.89869  0.14023  0.85380  1.0000
  C   C537      1.0  0.02805  0.32144  0.80706  1.0000
  H   H858      1.0  0.90978  0.31377  0.88783  1.0000
  H   H859      1.0  0.92033  0.40026  0.78093  1.0000
  C   C538      1.0  0.95337  0.12071  0.94345  1.0000
  H   H860      1.0  0.00981  0.32316  0.80893  1.0000
  C   C539      1.0  0.96574  0.13071  0.91562  1.0000
  H   H861      1.0  0.97700  0.10946  0.86697  1.0000
  H   H862      1.0  0.97475  0.16016  0.91555  1.0000
  C   C540      1.0  0.05712  0.58856  0.62548  1.0000
  C   C541      1.0  0.91449  0.13845  0.79057  1.0000
  C   C542      1.0  0.89418  0.33039  0.88615  1.0000
  C   C543      1.0  0.94861  0.15649  0.81977  1.0000
  H   H863      1.0  0.96763  0.35091  0.85806  1.0000
  N   N54       1.0  0.92434  0.15937  0.82115  1.0000
  C   C544      1.0  0.90858  0.43093  0.02032  1.0000
  H   H864      1.0  0.01380  0.42576  0.03108  1.0000
  H   H865      1.0  0.02891  0.54228  0.66044  1.0000
  C   C545      1.0  0.02523  0.29530  0.74937  1.0000
  H   H866      1.0  0.89430  0.47459  0.75365  1.0000
  H   H867      1.0  0.86694  0.37025  0.73903  1.0000
  H   H868      1.0  0.89617  0.13979  0.79074  1.0000
  C   C546      1.0  0.91687  0.13782  0.85138  1.0000
  C   C547      1.0  0.88427  0.33723  0.85444  1.0000
  H   H869      1.0  0.05251  0.51114  0.64980  1.0000
  H   H870      1.0  0.03066  0.26290  0.75665  1.0000
  C   C548      1.0  0.90802  0.37976  0.71636  1.0000
  C   C549      1.0  0.10954  0.43862  0.65395  1.0000
  C   C550      1.0  0.96581  0.34637  0.83114  1.0000
  C   C551      1.0  0.96541  0.38181  0.81051  1.0000
  H   H871      1.0  0.89844  0.36215  0.77974  1.0000
  H   H872      1.0  0.89847  0.46265  0.70963  1.0000
  C   C552      1.0  0.96292  0.29990  0.78165  1.0000
  H   H873      1.0  0.89922  0.20814  0.82322  1.0000
  H   H874      1.0  0.93312  0.38673  0.97684  1.0000
  H   H875      1.0  0.93348  0.38092  0.58938  1.0000
  H   H876      1.0  0.91989  0.15385  0.76730  1.0000
  C   C553      1.0  0.96242  0.33533  0.76104  1.0000
  C   C554      1.0  0.99895  0.36402  0.03290  1.0000
  H   H877      1.0  0.92622  0.38248  0.71978  1.0000
  N   N55       1.0  0.92988  0.40971  0.02797  1.0000
  N   N56       1.0  0.03493  0.32846  0.77222  1.0000
  H   H878      1.0  0.00690  0.29623  0.74957  1.0000
  H   H879      1.0  0.86704  0.41206  0.70903  1.0000
  H   H880      1.0  0.00890  0.37339  0.76171  1.0000
  H   H881      1.0  0.03509  0.34576  0.82509  1.0000
  C   C555      1.0  0.92582  0.36728  0.04147  1.0000
  H   H882      1.0  0.95659  0.17101  0.84288  1.0000
  H   H883      1.0  0.03388  0.39663  0.77858  1.0000
  H   H884      1.0  0.98113  0.58393  0.70581  1.0000
  H   H885      1.0  0.04834  0.52733  0.69294  1.0000
  H   H886      1.0  0.95433  0.12279  0.81757  1.0000
  H   H887      1.0  0.96201  0.26822  0.77036  1.0000
  C   C556      1.0  0.90272  0.45251  0.73565  1.0000
  H   H888      1.0  0.95497  0.17364  0.79796  1.0000
  H   H889      1.0  0.06716  0.35102  0.78754  1.0000
  H   H890      1.0  0.96661  0.41348  0.82176  1.0000
  H   H891      1.0  0.89856  0.43502  0.04327  1.0000
  C   C557      1.0  0.86417  0.35922  0.85183  1.0000
  H   H892      1.0  0.92459  0.15188  0.87489  1.0000
  C   C558      1.0  0.91746  0.20456  0.82287  1.0000
  H   H893      1.0  0.92355  0.22224  0.80111  1.0000
  C   C559      1.0  0.96474  0.30536  0.81674  1.0000
  C   C560      1.0  0.96409  0.37629  0.77542  1.0000
  H   H894      1.0  0.92082  0.45688  0.73969  1.0000
  C   C561      1.0  0.96692  0.10212  0.88804  1.0000
  H   H895      1.0  0.92135  0.10341  0.85045  1.0000
  C   C562      1.0  0.87229  0.40346  0.73504  1.0000
  H   H896      1.0  0.95877  0.42019  0.05939  1.0000
  H   H897      1.0  0.07743  0.39143  0.06821  1.0000
  C   C563      1.0  0.08271  0.57029  0.67051  1.0000
  H   H898      1.0  0.91949  0.10428  0.78864  1.0000
  H   H899      1.0  0.91627  0.36953  0.06499  1.0000
  C   C564      1.0  0.99051  0.58749  0.60965  1.0000
  C   C565      1.0  0.98346  0.58502  0.67892  1.0000
  H   H900      1.0  0.03955  0.59397  0.61772  1.0000
  H   H901      1.0  0.05117  0.41509  0.07738  1.0000
  H   H902      1.0  0.86299  0.42417  0.75304  1.0000
  C   C566      1.0  0.86383  0.36717  0.91289  1.0000
  H   H903      1.0  0.00979  0.09869  0.00498  1.0000
  H   H904      1.0  0.93370  0.43953  0.07728  1.0000
  C   C567      1.0  0.94328  0.75453  0.50724  1.0000
  H   H905      1.0  0.95916  0.98411  0.33686  1.0000
  H   H906      1.0  0.09218  0.64110  0.22416  1.0000
  Fe  Fe113     1.0  0.91312  0.87659  0.39355  1.0000
  H   H907      1.0  0.98489  0.03201  0.28655  1.0000
  S   S224      1.0  0.88952  0.82307  0.38368  1.0000
  Fe  Fe114     1.0  0.95711  0.91542  0.37926  1.0000
  S   S225      1.0  0.98823  0.91467  0.34988  1.0000
  S   S226      1.0  0.92328  0.92482  0.35660  1.0000
  S   S227      1.0  0.05822  0.74126  0.12299  1.0000
  H   H908      1.0  0.07650  0.65497  0.18716  1.0000
  S   S228      1.0  0.02796  0.92176  0.16358  1.0000
  Fe  Fe115     1.0  0.01136  0.85954  0.17185  1.0000
  S   S229      1.0  0.06692  0.86390  0.12657  1.0000
  S   S230      1.0  0.97945  0.85046  0.19782  1.0000
  Fe  Fe116     1.0  0.04663  0.80715  0.13738  1.0000
  H   H909      1.0  0.97992  0.86264  0.46683  1.0000
  H   H910      1.0  0.09565  0.67923  0.13652  1.0000
  S   S231      1.0  0.04165  0.82622  0.19133  1.0000
  C   C568      1.0  0.99218  0.02806  0.31230  1.0000
  C   C569      1.0  0.10241  0.87595  0.22768  1.0000
  N   N57       1.0  0.93271  0.76157  0.47383  1.0000
  Fe  Fe117     1.0  0.05871  0.88628  0.17877  1.0000
  Fe  Fe118     1.0  0.03467  0.89426  0.11207  1.0000
  H   H911      1.0  0.00798  0.04573  0.31408  1.0000
  S   S232      1.0  0.01487  0.83571  0.11857  1.0000
  H   H912      1.0  0.01088  0.75015  0.11509  1.0000
  H   H913      1.0  0.09313  0.83062  0.18817  1.0000
  H   H914      1.0  0.93300  0.82959  0.47979  1.0000
  C   C570      1.0  0.98169  0.86889  0.23992  1.0000
  C   C571      1.0  0.00158  0.88554  0.25277  1.0000
  C   C572      1.0  0.00345  0.89929  0.28663  1.0000
  C   C573      1.0  0.98545  0.89650  0.30775  1.0000
  C   C574      1.0  0.96555  0.87977  0.29494  1.0000
  C   C575      1.0  0.96366  0.86605  0.26101  1.0000
  H   H915      1.0  0.01558  0.88791  0.23668  1.0000
  H   H916      1.0  0.01891  0.91206  0.29647  1.0000
  H   H917      1.0  0.95167  0.87706  0.31116  1.0000
  H   H918      1.0  0.94823  0.85323  0.25115  1.0000
  C   C576      1.0  0.01485  0.71733  0.11883  1.0000
  C   C577      1.0  0.03681  0.70428  0.12311  1.0000
  C   C578      1.0  0.04170  0.66131  0.12769  1.0000
  C   C579      1.0  0.00269  0.64503  0.12527  1.0000
  H   H919      1.0  0.97593  0.04669  0.39268  1.0000
  H   H920      1.0  0.95265  0.72396  0.50766  1.0000
  S   S233      1.0  0.94743  0.86274  0.41244  1.0000
  N   N58       1.0  0.97687  0.04294  0.33857  1.0000
  C   C580      1.0  0.92125  0.80323  0.47433  1.0000
  C   C581      1.0  0.99782  0.68767  0.11934  1.0000
  H   H921      1.0  0.94762  0.02408  0.31025  1.0000
  N   N59       1.0  0.98444  0.71983  0.22259  1.0000
  C   C582      1.0  0.97583  0.68368  0.20173  1.0000
  C   C583      1.0  0.00034  0.74379  0.20312  1.0000
  C   C584      1.0  0.99560  0.70362  0.25326  1.0000
  C   C585      1.0  0.96605  0.74837  0.23231  1.0000
  H   H922      1.0  0.96743  0.69459  0.17821  1.0000
  H   H923      1.0  0.96375  0.66483  0.21556  1.0000
  H   H924      1.0  0.98930  0.66150  0.19406  1.0000
  H   H925      1.0  0.00703  0.77138  0.21821  1.0000
  H   H926      1.0  0.01446  0.72343  0.19510  1.0000
  H   H927      1.0  0.99240  0.75691  0.17997  1.0000
  H   H928      1.0  0.00234  0.73010  0.26957  1.0000
  H   H929      1.0  0.00956  0.68194  0.24677  1.0000
  H   H930      1.0  0.98406  0.68538  0.26859  1.0000
  H   H931      1.0  0.97204  0.77570  0.24842  1.0000
  H   H932      1.0  0.95347  0.73144  0.24661  1.0000
  H   H933      1.0  0.95767  0.76219  0.20977  1.0000
  H   H934      1.0  0.98084  0.69793  0.11608  1.0000
  H   H935      1.0  0.96479  0.09534  0.30948  1.0000
  H   H936      1.0  0.93787  0.04772  0.43457  1.0000
  C   C586      1.0  0.91691  0.07854  0.39803  1.0000
  C   C587      1.0  0.10406  0.83725  0.20960  1.0000
  C   C588      1.0  0.02464  0.63186  0.12946  1.0000
  H   H937      1.0  0.99625  0.99364  0.31481  1.0000
  Fe  Fe119     1.0  0.91874  0.97195  0.39942  1.0000
  H   H938      1.0  0.05861  0.65074  0.13050  1.0000
  H   H939      1.0  0.87735  0.90652  0.36068  1.0000
  S   S234      1.0  0.08399  0.91530  0.21415  1.0000
  S   S235      1.0  0.90097  0.03328  0.38834  1.0000
  C   C589      1.0  0.91655  0.72765  0.46580  1.0000
  H   H940      1.0  0.08974  0.69598  0.21259  1.0000
  C   C590      1.0  0.95611  0.01884  0.33498  1.0000
  C   C591      1.0  0.94972  0.76098  0.44786  1.0000
  S   S236      1.0  0.95354  0.96643  0.41938  1.0000
  H   H941      1.0  0.94439  0.02829  0.35498  1.0000
  S   S237      1.0  0.90548  0.92438  0.43436  1.0000
  C   C592      1.0  0.86390  0.88510  0.35489  1.0000
  H   H942      1.0  0.99093  0.00181  0.37596  1.0000
  C   C593      1.0  0.98708  0.03606  0.37224  1.0000
  C   C594      1.0  0.93491  0.07614  0.42058  1.0000
  H   H943      1.0  0.94234  0.76666  0.42235  1.0000
  H   H944      1.0  0.95520  0.78019  0.51422  1.0000
  H   H945      1.0  0.93097  0.75421  0.52748  1.0000
  S   S238      1.0  0.94767  0.90914  0.50638  1.0000
  S   S239      1.0  0.01675  0.76645  0.54515  1.0000
  C   C595      1.0  0.96852  0.87267  0.51734  1.0000
  C   C596      1.0  0.98149  0.85310  0.49269  1.0000
  C   C597      1.0  0.99660  0.82102  0.50155  1.0000
  C   C598      1.0  0.99908  0.80901  0.53517  1.0000
  C   C599      1.0  0.98664  0.82964  0.55995  1.0000
  C   C600      1.0  0.97131  0.86128  0.55103  1.0000
  H   H946      1.0  0.92462  0.69573  0.46508  1.0000
  H   H947      1.0  0.96141  0.87659  0.57021  1.0000
  C   C601      1.0  0.09164  0.66281  0.20248  1.0000
  H   H948      1.0  0.90345  0.72718  0.48486  1.0000
  H   H949      1.0  0.00642  0.80554  0.48235  1.0000
  H   H950      1.0  0.96225  0.78606  0.45322  1.0000
  Fe  Fe120     1.0  0.94075  0.91460  0.45077  1.0000
  H   H951      1.0  0.90859  0.80525  0.49404  1.0000
  H   H952      1.0  0.90829  0.73236  0.44071  1.0000
  H   H953      1.0  0.91290  0.80955  0.44961  1.0000
  H   H954      1.0  0.95869  0.73000  0.44673  1.0000
  S   S240      1.0  0.98130  0.60898  0.12984  1.0000
  H   H955      1.0  0.09879  0.60416  0.15351  1.0000
  H   H956      1.0  0.00272  0.05395  0.37594  1.0000
  C   C602      1.0  0.86572  0.84219  0.36296  1.0000
  C   C603      1.0  0.97209  0.08872  0.33481  1.0000
  C   C604      1.0  0.11006  0.68689  0.15344  1.0000
  N   N60       1.0  0.11162  0.65802  0.18217  1.0000
  H   H957      1.0  0.10815  0.72065  0.16208  1.0000
  H   H958      1.0  0.02854  0.59894  0.13396  1.0000
  H   H959      1.0  0.98891  0.91031  0.08234  1.0000
  C   C605      1.0  0.98033  0.80870  0.73196  1.0000
  C   C606      1.0  0.96505  0.74137  0.74652  1.0000
  H   H960      1.0  0.98848  0.82078  0.58590  1.0000
  C   C607      1.0  0.86595  0.82675  0.81080  1.0000
  C   C608      1.0  0.98726  0.62394  0.66398  1.0000
  Fe  Fe121     1.0  0.06177  0.72525  0.64580  1.0000
  S   S241      1.0  0.03339  0.69400  0.61843  1.0000
  S   S242      1.0  0.09460  0.69232  0.65213  1.0000
  Fe  Fe122     1.0  0.03437  0.80087  0.66878  1.0000
  S   S243      1.0  0.00321  0.77659  0.64355  1.0000
  S   S244      1.0  0.03547  0.86384  0.69694  1.0000
  Fe  Fe123     1.0  0.01390  0.71372  0.66351  1.0000
  H   H961      1.0  0.97553  0.82799  0.79734  1.0000
  H   H962      1.0  0.96920  0.01975  0.97141  1.0000
  S   S245      1.0  0.04312  0.73934  0.69275  1.0000
  S   S246      1.0  0.05533  0.78908  0.62376  1.0000
  C   C609      1.0  0.03105  0.86084  0.74027  1.0000
  C   C610      1.0  0.95532  0.06392  0.88780  1.0000
  C   C611      1.0  0.03855  0.82575  0.75828  1.0000
  H   H963      1.0  0.02471  0.82569  0.98117  1.0000
  H   H964      1.0  0.00386  0.77824  0.05880  1.0000
  H   H965      1.0  0.07839  0.85735  0.66791  1.0000
  H   H966      1.0  0.99199  0.65534  0.61730  1.0000
  H   H967      1.0  0.04791  0.80087  0.74591  1.0000
  H   H968      1.0  0.95408  0.72415  0.76341  1.0000
  H   H969      1.0  0.02040  0.00562  0.02313  1.0000
  C   C612      1.0  0.05014  0.61191  0.68268  1.0000
  H   H970      1.0  0.93247  0.07424  0.96506  1.0000
  H   H971      1.0  0.86955  0.90840  0.93337  1.0000
  H   H972      1.0  0.99393  0.98908  0.97639  1.0000
  H   H973      1.0  0.06098  0.80014  0.03153  1.0000
  S   S247      1.0  0.99108  0.67006  0.68921  1.0000
  H   H974      1.0  0.09413  0.81692  0.73328  1.0000
  H   H975      1.0  0.86904  0.79313  0.80648  1.0000
  H   H976      1.0  0.99086  0.08562  0.97101  1.0000
  H   H977      1.0  0.97215  0.98463  0.00590  1.0000
  C   C613      1.0  0.99007  0.62522  0.62919  1.0000
  H   H978      1.0  0.86909  0.86549  0.96209  1.0000
  H   H979      1.0  0.96087  0.07808  0.01242  1.0000
  H   H980      1.0  0.96308  0.77928  0.80867  1.0000
  H   H981      1.0  0.93160  0.78927  0.76859  1.0000
  H   H982      1.0  0.99088  0.77941  0.79386  1.0000
  H   H983      1.0  0.95898  0.73537  0.72008  1.0000
  H   H984      1.0  0.93655  0.80270  0.72582  1.0000
  N   N61       1.0  0.96570  0.78734  0.75523  1.0000
  C   C614      1.0  0.97416  0.79364  0.79028  1.0000
  C   C615      1.0  0.94324  0.80561  0.75215  1.0000
  H   H985      1.0  0.98175  0.72656  0.74865  1.0000
  Fe  Fe124     1.0  0.02499  0.75924  0.60030  1.0000
  H   H986      1.0  0.94298  0.83994  0.75989  1.0000
  H   H987      1.0  0.01401  0.92114  0.74311  1.0000
  C   C616      1.0  0.01960  0.89369  0.75688  1.0000
  Fe  Fe125     1.0  0.95420  0.96235  0.86428  1.0000
  S   S248      1.0  0.98002  0.93816  0.90047  1.0000
  S   S249      1.0  0.95476  0.03129  0.85130  1.0000
  Fe  Fe126     1.0  0.93383  0.87609  0.85156  1.0000
  S   S250      1.0  0.95761  0.84427  0.88684  1.0000
  S   S251      1.0  0.91015  0.83292  0.82332  1.0000
  Fe  Fe127     1.0  0.95231  0.90082  0.92100  1.0000
  S   S252      1.0  0.94696  0.89167  0.97616  1.0000
  Fe  Fe128     1.0  0.98315  0.88364  0.86323  1.0000
  S   S253      1.0  0.01457  0.84907  0.85089  1.0000
  S   S254      1.0  0.92594  0.92972  0.88790  1.0000
  S   S255      1.0  0.95976  0.91105  0.82481  1.0000
  H   H988      1.0  0.02143  0.71346  0.00819  1.0000
  N   N62       1.0  0.02783  0.77947  0.01992  1.0000
  C   C617      1.0  0.09534  0.84370  0.67017  1.0000
  N   N63       1.0  0.10752  0.86200  0.69978  1.0000
  H   H989      1.0  0.04392  0.79626  0.06732  1.0000
  C   C618      1.0  0.01475  0.89054  0.79106  1.0000
  C   C619      1.0  0.97140  0.89598  0.00048  1.0000
  C   C620      1.0  0.97052  0.89890  0.03570  1.0000
  C   C621      1.0  0.98973  0.90711  0.05517  1.0000
  C   C622      1.0  0.00972  0.91316  0.03932  1.0000
  C   C623      1.0  0.01072  0.90905  0.00425  1.0000
  C   C624      1.0  0.99167  0.89949  0.98492  1.0000
  H   H990      1.0  0.95487  0.89597  0.04786  1.0000
  H   H991      1.0  0.99732  0.79516  0.73323  1.0000
  H   H992      1.0  0.02622  0.91330  0.99197  1.0000
  H   H993      1.0  0.99262  0.89565  0.95793  1.0000
  C   C625      1.0  0.02877  0.79141  0.98422  1.0000
  H   H994      1.0  0.03974  0.79569  0.80646  1.0000
  C   C626      1.0  0.94316  0.05354  0.91580  1.0000
  H   H995      1.0  0.10476  0.86453  0.75376  1.0000
  H   H996      1.0  0.05014  0.72649  0.01387  1.0000
  H   H997      1.0  0.09243  0.59970  0.66730  1.0000
  H   H998      1.0  0.96487  0.04341  0.04711  1.0000
  H   H999      1.0  0.03295  0.72406  0.04973  1.0000
  C   C627      1.0  0.04388  0.80501  0.04036  1.0000
  C   C628      1.0  0.88351  0.85411  0.81875  1.0000
  C   C629      1.0  0.00244  0.07171  0.98995  1.0000
  C   C630      1.0  0.00535  0.78764  0.03218  1.0000
  H   H1000     1.0  0.04007  0.83960  0.03931  1.0000
  H   H1001     1.0  0.07898  0.86591  0.73062  1.0000
  H   H1002     1.0  0.01507  0.04896  0.05231  1.0000
  C   C631      1.0  0.03331  0.73384  0.02297  1.0000
  C   C632      1.0  0.03410  0.82303  0.79263  1.0000
  C   C633      1.0  0.10868  0.90863  0.69681  1.0000
  H   H1003     1.0  0.09373  0.80862  0.67190  1.0000
  H   H1004     1.0  0.98152  0.84337  0.73808  1.0000
  H   H1005     1.0  0.06628  0.61823  0.62069  1.0000
  S   S256      1.0  0.03342  0.92724  0.06283  1.0000
  C   C634      1.0  0.87947  0.89759  0.82412  1.0000
  C   C635      1.0  0.02184  0.85504  0.80888  1.0000
  H   H1006     1.0  0.10377  0.85001  0.64629  1.0000
  H   H1007     1.0  0.00573  0.91583  0.80368  1.0000
  H   H1008     1.0  0.99275  0.76966  0.01683  1.0000
  H   H1009     1.0  0.09187  0.92320  0.69551  1.0000
  H   H1010     1.0  0.89302  0.91892  0.82982  1.0000
  H   H1011     1.0  0.93409  0.02409  0.91565  1.0000
  H   H1012     1.0  0.09890  0.75986  0.60480  1.0000
  C   C636      1.0  0.00709  0.02380  0.03607  1.0000
  H   H1013     1.0  0.05105  0.60415  0.70984  1.0000
  H   H1014     1.0  0.97431  0.80506  0.70531  1.0000
  H   H1015     1.0  0.04549  0.78578  0.97403  1.0000
  H   H1016     1.0  0.00085  0.82191  0.03101  1.0000
  N   N64       1.0  0.99106  0.04194  0.01163  1.0000
  C   C637      1.0  0.09589  0.85187  0.73077  1.0000
  H   H1017     1.0  0.03255  0.61843  0.67599  1.0000
  H   H1018     1.0  0.01681  0.77293  0.96801  1.0000
  C   C638      1.0  0.98118  0.00734  0.99045  1.0000
  C   C639      1.0  0.97352  0.06482  0.03006  1.0000
  H   H1019     1.0  0.86626  0.81337  0.91380  1.0000
  H   H1020     1.0  0.05926  0.64204  0.67969  1.0000
  H   H1021     1.0  0.01587  0.05546  0.97585  1.0000
  H   H1022     1.0  0.86736  0.85681  0.88574  1.0000
  H   H1023     1.0  0.98024  0.09199  0.04556  1.0000
  C   C640      1.0  0.94219  0.08198  0.94365  1.0000
  H   H1024     1.0  0.99903  0.00141  0.05304  1.0000
