data_image0
_chemical_formula_structural       H2NHCH2FeH3Fe2SCHSNHC6SH4SH3C2SCHSH3SH2FeSH2C2HS3H2CH3FeHSHSH2C6H3CFeH4FeNH2CH6C2H6SHSCHCH2NCH4CH2CHNHC2HCHC2H7NHCH2C2SHC2SHFeS2NH2C6H5FeH2SHCSH5SCS2Fe2H2FeCH3SC2S3C3HCH2FeH2C2HNCFeH3CH2CNSH2C2FeH2SHSCHCHC3H3C2H5CHC2HCSHSC2H2SH2NCHCH2CHC3HSHFeHCFeH2C3HSHSFeH4CSCS2H2FeH3SC2FeCHFeS2HSHNCHS2FeHSC6H4C2H2CFe2C4HCHCH2CH3C2HC3H2SHCH2CH2CH3CHCHSCHCH4CHSCH2C2H2CHCHSH3NC3HNH2C4S2H2CHC2Fe2SCSHC2H2C2H2CHFeHS2FeHSCHSH4C2H2SHSHNFeS2H2NFeHFeH3CH2SCH2CHC5H3CHC2H3NCSC2H5FeHCH3SCNH2CH5SHNH2CSFeC3H2FeSHCHNSCHC4SCH3SHCH3CHFeH3NFeH2C2SH2C3HFeCH5FeHCH3FeS2H2SC4H5CHSHCHC2SH2CHFeCSCFeCH3SHCH2CH2CH2NH2CH3C2H11CSHCH2CHCHNH3CH2CH4CH4CS2FeHS2C7H4FeCHSH2NC5Fe2S2CH2C2H2SCHSC3HCH4FeHSC2H2SHNH3SH3FeHC2HSCHSH3FeNHCH2CFeHC2FeHC2SHSFeCHS2HCH6SFeHCHCHCSH2CH2SH2CHFeCHNC5SH3CHFeC3NSCHSFeHSC6H5CH2CH3SHCFeH2CSHCS2FeCHNH4CHSHCH3SHCHC3H3CH4CHCHC5HC3HCHCHSCH10C2H4SFeHSH2CHSH3SHC3NSHC2FeH2FeNH2FeH2CH4C2SCHCFe2HSC3SCSCHCHSH5C6H3NHCSHCSHSH3FeHSHSH2CHC2HNCH2CH
_chemical_formula_sum              "H512 N32 C320 Fe64 S128"
_cell_length_a       42.7786
_cell_length_b       34.6357
_cell_length_c       22.4117
_cell_angle_alpha    89.908
_cell_angle_beta     89.9981
_cell_angle_gamma    90.4514

_space_group_name_H-M_alt    "P 1"
_space_group_IT_number       1

loop_
  _space_group_symop_operation_xyz
  'x, y, z'

loop_
  _atom_site_type_symbol
  _atom_site_label
  _atom_site_symmetry_multiplicity
  _atom_site_fract_x
  _atom_site_fract_y
  _atom_site_fract_z
  _atom_site_occupancy
  H   H1        1.0  0.29669  0.38555  0.46188  1.0000
  H   H2        1.0  0.26130  0.39643  0.58070  1.0000
  N   N1        1.0  0.14445  0.41724  0.40152  1.0000
  H   H3        1.0  0.08286  0.43193  0.22513  1.0000
  C   C1        1.0  0.12333  0.38669  0.42448  1.0000
  H   H4        1.0  0.26495  0.36206  0.42380  1.0000
  H   H5        1.0  0.12316  0.46158  0.45470  1.0000
  Fe  Fe1       1.0  0.10296  0.60427  0.43007  1.0000
  H   H6        1.0  0.19001  0.44057  0.42165  1.0000
  H   H7        1.0  0.18625  0.38908  0.43118  1.0000
  H   H8        1.0  0.25760  0.40307  0.47106  1.0000
  Fe  Fe2       1.0  0.30243  0.51874  0.67790  1.0000
  Fe  Fe3       1.0  0.13324  0.27868  0.36931  1.0000
  S   S1        1.0  0.18214  0.29607  0.39488  1.0000
  C   C2        1.0  0.27622  0.37068  0.57329  1.0000
  H   H9        1.0  0.22997  0.31848  0.55998  1.0000
  S   S2        1.0  0.28589  0.45800  0.66307  1.0000
  N   N2        1.0  0.26733  0.35025  0.51794  1.0000
  H   H10       1.0  0.11701  0.39169  0.47199  1.0000
  C   C3        1.0  0.24851  0.19350  0.38836  1.0000
  C   C4        1.0  0.21643  0.18725  0.39672  1.0000
  C   C5        1.0  0.19593  0.21869  0.39894  1.0000
  C   C6        1.0  0.20744  0.25639  0.39227  1.0000
  C   C7        1.0  0.23949  0.26259  0.38378  1.0000
  C   C8        1.0  0.26001  0.23122  0.38183  1.0000
  S   S3        1.0  0.11894  0.22298  0.32580  1.0000
  H   H11       1.0  0.17132  0.21377  0.40690  1.0000
  H   H12       1.0  0.24840  0.29161  0.37736  1.0000
  H   H13       1.0  0.28464  0.23625  0.37398  1.0000
  H   H14       1.0  0.16924  0.42136  0.48456  1.0000
  S   S4        1.0  0.07960  0.51119  0.26257  1.0000
  H   H15       1.0  0.28144  0.29987  0.46892  1.0000
  H   H16       1.0  0.31227  0.32402  0.50804  1.0000
  H   H17       1.0  0.23977  0.53274  0.49453  1.0000
  C   C9        1.0  0.28716  0.31583  0.51059  1.0000
  C   C10       1.0  0.23416  0.33827  0.52160  1.0000
  S   S5        1.0  0.10946  0.31605  0.30184  1.0000
  C   C11       1.0  0.27178  0.37638  0.46634  1.0000
  H   H18       1.0  0.27393  0.35170  0.61317  1.0000
  S   S6        1.0  0.09346  0.27882  0.43440  1.0000
  H   H19       1.0  0.28450  0.29540  0.54864  1.0000
  H   H20       1.0  0.30092  0.38086  0.57156  1.0000
  H   H21       1.0  0.21861  0.36366  0.52726  1.0000
  S   S7        1.0  0.21835  0.46191  0.54854  1.0000
  H   H22       1.0  0.10724  0.45651  0.38121  1.0000
  H   H23       1.0  0.14469  0.47915  0.39141  1.0000
  Fe  Fe4       1.0  0.09145  0.26036  0.26379  1.0000
  S   S8        1.0  0.27904  0.54270  0.59677  1.0000
  H   H24       1.0  0.10118  0.38549  0.39868  1.0000
  H   H25       1.0  0.28766  0.16174  0.52316  1.0000
  C   C12       1.0  0.17382  0.41702  0.43616  1.0000
  C   C13       1.0  0.12926  0.45525  0.40748  1.0000
  H   H26       1.0  0.12531  0.54176  0.52513  1.0000
  S   S9        1.0  0.30857  0.46949  0.52296  1.0000
  S   S10       1.0  0.14801  0.61476  0.47884  1.0000
  S   S11       1.0  0.10114  0.61169  0.33052  1.0000
  H   H27       1.0  0.12971  0.40973  0.31056  1.0000
  H   H28       1.0  0.16733  0.43230  0.31919  1.0000
  C   C14       1.0  0.15142  0.40979  0.33798  1.0000
  H   H29       1.0  0.13429  0.35769  0.42150  1.0000
  H   H30       1.0  0.16275  0.38118  0.33189  1.0000
  H   H31       1.0  0.15306  0.48151  0.55201  1.0000
  Fe  Fe5       1.0  0.26611  0.48108  0.57779  1.0000
  H   H32       1.0  0.18044  0.58900  0.62894  1.0000
  S   S12       1.0  0.27417  0.15417  0.38733  1.0000
  H   H33       1.0  0.22666  0.32276  0.48054  1.0000
  S   S13       1.0  0.07955  0.54622  0.43011  1.0000
  H   H34       1.0  0.20748  0.15817  0.40217  1.0000
  H   H35       1.0  0.22083  0.58890  0.60807  1.0000
  C   C15       1.0  0.16691  0.57133  0.49509  1.0000
  C   C16       1.0  0.19927  0.56885  0.48747  1.0000
  C   C17       1.0  0.21488  0.53472  0.50205  1.0000
  C   C18       1.0  0.19831  0.50328  0.52559  1.0000
  C   C19       1.0  0.16589  0.50553  0.53282  1.0000
  C   C20       1.0  0.15017  0.53956  0.51749  1.0000
  H   H36       1.0  0.21225  0.59326  0.46977  1.0000
  H   H37       1.0  0.23356  0.15880  0.55967  1.0000
  H   H38       1.0  0.26168  0.60787  0.68135  1.0000
  C   C21       1.0  0.20332  0.60377  0.63642  1.0000
  Fe  Fe6       1.0  0.07359  0.55677  0.33213  1.0000
  H   H39       1.0  0.30146  0.16206  0.59914  1.0000
  H   H40       1.0  0.20114  0.63380  0.61921  1.0000
  H   H41       1.0  0.24605  0.15677  0.63643  1.0000
  H   H42       1.0  0.23231  0.54637  0.69475  1.0000
  Fe  Fe7       1.0  0.07671  0.22649  0.38465  1.0000
  N   N3        1.0  0.21247  0.60312  0.70008  1.0000
  H   H43       1.0  0.07655  0.15288  0.31054  1.0000
  H   H44       1.0  0.11297  0.16032  0.22873  1.0000
  C   C22       1.0  0.24313  0.62252  0.70756  1.0000
  H   H45       1.0  0.23257  0.15212  0.88120  1.0000
  H   H46       1.0  0.29878  0.61295  0.84676  1.0000
  H   H47       1.0  0.10797  0.57358  0.19301  1.0000
  H   H48       1.0  0.08826  0.63794  0.06476  1.0000
  H   H49       1.0  0.12400  0.59950  0.13035  1.0000
  H   H50       1.0  0.16442  0.15368  0.71266  1.0000
  C   C23       1.0  0.21463  0.56267  0.72077  1.0000
  C   C24       1.0  0.10552  0.60010  0.16529  1.0000
  H   H51       1.0  0.19511  0.62401  0.78407  1.0000
  H   H52       1.0  0.15634  0.15163  0.96149  1.0000
  H   H53       1.0  0.22198  0.56111  0.76842  1.0000
  H   H54       1.0  0.16532  0.60969  0.73176  1.0000
  H   H55       1.0  0.11057  0.62534  0.19462  1.0000
  H   H56       1.0  0.22598  0.17082  0.98766  1.0000
  S   S14       1.0  0.09220  0.24671  0.16586  1.0000
  H   H57       1.0  0.08871  0.19844  0.06136  1.0000
  S   S15       1.0  0.29367  0.55059  0.76328  1.0000
  C   C25       1.0  0.17449  0.15022  0.92595  1.0000
  H   H58       1.0  0.11381  0.16754  0.76143  1.0000
  C   C26       1.0  0.18876  0.62355  0.73583  1.0000
  H   H59       1.0  0.08575  0.56753  0.06291  1.0000
  H   H60       1.0  0.25086  0.62208  0.75509  1.0000
  N   N4        1.0  0.07399  0.60259  0.13862  1.0000
  C   C27       1.0  0.32191  0.60692  0.82975  1.0000
  H   H61       1.0  0.18249  0.18022  0.91623  1.0000
  H   H62       1.0  0.19192  0.54711  0.71615  1.0000
  H   H63       1.0  0.12374  0.09243  0.35714  1.0000
  H   H64       1.0  0.10318  0.68979  0.29527  1.0000
  C   C28       1.0  0.09537  0.70370  0.25488  1.0000
  H   H65       1.0  0.22092  0.11984  0.60713  1.0000
  H   H66       1.0  0.14200  0.71100  0.21980  1.0000
  C   C29       1.0  0.12884  0.10902  0.31561  1.0000
  H   H67       1.0  0.29904  0.07364  0.61628  1.0000
  N   N5        1.0  0.10268  0.10624  0.27267  1.0000
  H   H68       1.0  0.07781  0.06256  0.22326  1.0000
  C   C30       1.0  0.09738  0.06543  0.25595  1.0000
  C   C31       1.0  0.29443  0.14300  0.56136  1.0000
  H   H69       1.0  0.09121  0.04751  0.29558  1.0000
  C   C32       1.0  0.11029  0.12897  0.21859  1.0000
  H   H70       1.0  0.15093  0.09777  0.29628  1.0000
  C   C33       1.0  0.24112  0.13904  0.59607  1.0000
  C   C34       1.0  0.26061  0.09169  0.52681  1.0000
  H   H71       1.0  0.24235  0.65320  0.69296  1.0000
  H   H72       1.0  0.11852  0.05278  0.23491  1.0000
  H   H73       1.0  0.13326  0.13950  0.32914  1.0000
  H   H74       1.0  0.28122  0.07504  0.51120  1.0000
  H   H75       1.0  0.28600  0.10964  0.66786  1.0000
  H   H76       1.0  0.25230  0.10924  0.48835  1.0000
  H   H77       1.0  0.24178  0.07064  0.53845  1.0000
  N   N6        1.0  0.26874  0.11642  0.57829  1.0000
  H   H78       1.0  0.31562  0.12688  0.54766  1.0000
  C   C35       1.0  0.27880  0.09192  0.62872  1.0000
  H   H79       1.0  0.25965  0.07227  0.64380  1.0000
  H   H80       1.0  0.16892  0.84919  0.70308  1.0000
  C   C36       1.0  0.07406  0.12157  0.30053  1.0000
  C   C37       1.0  0.11738  0.71629  0.21256  1.0000
  S   S16       1.0  0.13475  0.74506  0.10375  1.0000
  H   H81       1.0  0.28115  0.75043  0.86459  1.0000
  C   C38       1.0  0.21279  0.77444  0.06773  1.0000
  C   C39       1.0  0.10751  0.73450  0.16016  1.0000
  S   S17       1.0  0.29045  0.73798  0.99198  1.0000
  H   H82       1.0  0.19658  0.75346  0.04598  1.0000
  Fe  Fe8       1.0  0.13355  0.70611  0.88808  1.0000
  S   S18       1.0  0.12825  0.76315  0.93293  1.0000
  S   S19       1.0  0.17468  0.70404  0.82616  1.0000
  N   N7        1.0  0.21091  0.81299  0.03960  1.0000
  H   H83       1.0  0.17653  0.85740  0.02662  1.0000
  H   H84       1.0  0.14587  0.84694  0.88871  1.0000
  C   C40       1.0  0.26038  0.72470  0.94282  1.0000
  C   C41       1.0  0.23392  0.70616  0.96595  1.0000
  C   C42       1.0  0.20797  0.69913  0.92960  1.0000
  C   C43       1.0  0.20843  0.71002  0.86960  1.0000
  C   C44       1.0  0.23521  0.72763  0.84567  1.0000
  C   C45       1.0  0.26112  0.73528  0.88248  1.0000
  H   H85       1.0  0.23341  0.69738  0.01232  1.0000
  H   H86       1.0  0.18776  0.68488  0.94815  1.0000
  H   H87       1.0  0.23563  0.73641  0.79934  1.0000
  H   H88       1.0  0.17238  0.83031  0.09489  1.0000
  H   H89       1.0  0.30559  0.98050  0.98110  1.0000
  Fe  Fe9       1.0  0.11520  0.72937  0.01412  1.0000
  H   H90       1.0  0.20625  0.77535  0.11579  1.0000
  H   H91       1.0  0.17484  0.88059  0.86156  1.0000
  S   S20       1.0  0.12513  0.67212  0.97196  1.0000
  H   H92       1.0  0.13452  0.88695  0.84303  1.0000
  C   C46       1.0  0.17894  0.82821  0.04690  1.0000
  S   S21       1.0  0.08390  0.70227  0.85649  1.0000
  H   H93       1.0  0.16129  0.80882  0.02581  1.0000
  H   H94       1.0  0.08458  0.81885  0.98049  1.0000
  H   H95       1.0  0.20284  0.78865  0.95267  1.0000
  H   H96       1.0  0.07743  0.94497  0.87757  1.0000
  H   H97       1.0  0.17145  0.08649  0.99428  1.0000
  S   S22       1.0  0.20721  0.09169  0.72540  1.0000
  C   C47       1.0  0.15439  0.13300  0.74358  1.0000
  S   S23       1.0  0.23685  0.90656  0.82741  1.0000
  S   S24       1.0  0.22778  0.01864  0.86098  1.0000
  Fe  Fe10      1.0  0.23697  0.04912  0.77402  1.0000
  Fe  Fe11      1.0  0.07787  0.75694  0.90802  1.0000
  H   H98       1.0  0.18759  0.88240  0.75314  1.0000
  H   H99       1.0  0.10632  0.87762  0.02836  1.0000
  Fe  Fe12      1.0  0.25084  0.96856  0.81574  1.0000
  C   C48       1.0  0.30865  0.83194  0.82924  1.0000
  H   H100      1.0  0.21271  0.11019  0.85326  1.0000
  H   H101      1.0  0.21624  0.83822  0.95223  1.0000
  H   H102      1.0  0.14698  0.88793  0.73586  1.0000
  S   S25       1.0  0.25574  0.99747  0.72665  1.0000
  C   C49       1.0  0.15294  0.86483  0.84964  1.0000
  C   C50       1.0  0.12767  0.82017  0.78207  1.0000
  S   S26       1.0  0.29221  0.06154  0.97169  1.0000
  S   S27       1.0  0.10589  0.95728  0.99247  1.0000
  S   S28       1.0  0.28391  0.07185  0.80105  1.0000
  C   C51       1.0  0.15718  0.07223  0.79682  1.0000
  C   C52       1.0  0.12838  0.08002  0.82429  1.0000
  C   C53       1.0  0.11286  0.11455  0.81175  1.0000
  H   H103      1.0  0.23308  0.86865  0.04811  1.0000
  C   C54       1.0  0.29063  0.89657  0.76371  1.0000
  H   H104      1.0  0.16909  0.04554  0.80629  1.0000
  H   H105      1.0  0.11837  0.05956  0.85555  1.0000
  Fe  Fe13      1.0  0.07472  0.67365  0.94479  1.0000
  H   H106      1.0  0.25797  0.82834  0.06391  1.0000
  H   H107      1.0  0.24288  0.80000  0.96868  1.0000
  C   C55       1.0  0.09279  0.91536  0.95656  1.0000
  C   C56       1.0  0.17027  0.09896  0.75688  1.0000
  H   H108      1.0  0.20013  0.14342  0.03506  1.0000
  N   N8        1.0  0.20080  0.12517  0.94345  1.0000
  C   C57       1.0  0.27932  0.84846  0.83921  1.0000
  Fe  Fe14      1.0  0.27681  0.03670  0.88382  1.0000
  H   H109      1.0  0.12069  0.80062  0.81917  1.0000
  H   H110      1.0  0.26411  0.83673  0.87332  1.0000
  H   H111      1.0  0.16274  0.13930  0.88498  1.0000
  C   C58       1.0  0.27071  0.88152  0.80769  1.0000
  H   H112      1.0  0.09155  0.12624  0.18446  1.0000
  H   H113      1.0  0.23683  0.76247  0.06465  1.0000
  C   C59       1.0  0.09569  0.87947  0.98464  1.0000
  N   N9        1.0  0.15714  0.84099  0.79558  1.0000
  S   S29       1.0  0.08254  0.06663  0.99747  1.0000
  H   H114      1.0  0.24395  0.10496  0.90593  1.0000
  H   H115      1.0  0.18609  0.79410  0.76615  1.0000
  C   C60       1.0  0.23364  0.83933  0.06850  1.0000
  C   C61       1.0  0.21842  0.80990  0.97539  1.0000
  Fe  Fe15      1.0  0.30227  0.01754  0.76094  1.0000
  H   H116      1.0  0.20813  0.06636  0.97083  1.0000
  H   H117      1.0  0.10794  0.84049  0.77508  1.0000
  S   S30       1.0  0.07829  0.12661  0.84868  1.0000
  H   H118      1.0  0.22872  0.84232  0.11704  1.0000
  S   S31       1.0  0.29922  0.98400  0.84595  1.0000
  C   C62       1.0  0.07868  0.91768  0.90040  1.0000
  H   H119      1.0  0.31558  0.80737  0.85542  1.0000
  C   C63       1.0  0.18884  0.08601  0.95737  1.0000
  H   H120      1.0  0.07752  0.66409  0.13029  1.0000
  C   C64       1.0  0.08353  0.84621  0.95735  1.0000
  C   C65       1.0  0.22349  0.12305  0.89383  1.0000
  C   C66       1.0  0.12581  0.14086  0.77117  1.0000
  H   H121      1.0  0.28395  0.92179  0.73855  1.0000
  H   H122      1.0  0.17704  0.79335  0.84393  1.0000
  H   H123      1.0  0.17699  0.07281  0.91810  1.0000
  C   C67       1.0  0.18245  0.81287  0.80579  1.0000
  C   C68       1.0  0.16546  0.86620  0.74461  1.0000
  H   H124      1.0  0.23656  0.12297  0.01069  1.0000
  H   H125      1.0  0.20512  0.82769  0.81546  1.0000
  H   H126      1.0  0.12989  0.80205  0.74135  1.0000
  H   H127      1.0  0.18645  0.65416  0.72133  1.0000
  H   H128      1.0  0.13238  0.11919  0.19756  1.0000
  C   C69       1.0  0.21653  0.14134  0.99667  1.0000
  H   H129      1.0  0.31863  0.13843  0.15197  1.0000
  C   C70       1.0  0.07569  0.74190  0.15168  1.0000
  C   C71       1.0  0.31958  0.87936  0.75263  1.0000
  H   H130      1.0  0.45778  0.43202  0.52425  1.0000
  C   C72       1.0  0.37464  0.33681  0.55374  1.0000
  S   S32       1.0  0.40557  0.21421  0.44407  1.0000
  H   H131      1.0  0.36168  0.38873  0.40232  1.0000
  S   S33       1.0  0.55777  0.63175  0.54050  1.0000
  C   C73       1.0  0.46601  0.15993  0.34781  1.0000
  C   C74       1.0  0.46815  0.28006  0.36131  1.0000
  H   H132      1.0  0.47631  0.28912  0.21085  1.0000
  H   H133      1.0  0.44817  0.47348  0.67601  1.0000
  S   S34       1.0  0.33038  0.22242  0.46993  1.0000
  H   H134      1.0  0.43686  0.33489  0.25086  1.0000
  H   H135      1.0  0.35943  0.42549  0.49627  1.0000
  N   N10       1.0  0.45742  0.28804  0.29981  1.0000
  C   C75       1.0  0.36758  0.37614  0.55262  1.0000
  H   H136      1.0  0.48290  0.17691  0.26140  1.0000
  C   C76       1.0  0.43224  0.26049  0.28371  1.0000
  H   H137      1.0  0.57092  0.48644  0.42617  1.0000
  H   H138      1.0  0.44892  0.28407  0.39423  1.0000
  C   C77       1.0  0.44959  0.43589  0.57103  1.0000
  H   H139      1.0  0.43032  0.41471  0.57930  1.0000
  C   C78       1.0  0.52378  0.18698  0.39101  1.0000
  C   C79       1.0  0.51693  0.18927  0.33005  1.0000
  C   C80       1.0  0.55667  0.43409  0.47071  1.0000
  H   H140      1.0  0.38049  0.28526  0.50174  1.0000
  S   S35       1.0  0.35445  0.20193  0.33423  1.0000
  H   H141      1.0  0.53377  0.20153  0.29942  1.0000
  Fe  Fe16      1.0  0.54108  0.52119  0.52579  1.0000
  H   H142      1.0  0.47642  0.24986  0.36618  1.0000
  C   C81       1.0  0.37082  0.33454  0.44585  1.0000
  Fe  Fe17      1.0  0.55789  0.59455  0.45829  1.0000
  H   H143      1.0  0.45663  0.61362  0.48619  1.0000
  H   H144      1.0  0.49374  0.25426  0.25944  1.0000
  C   C82       1.0  0.47260  0.15829  0.40886  1.0000
  C   C83       1.0  0.48375  0.28378  0.25769  1.0000
  C   C84       1.0  0.36375  0.39498  0.49789  1.0000
  H   H145      1.0  0.48783  0.29951  0.37438  1.0000
  S   S36       1.0  0.36162  0.40064  0.61987  1.0000
  H   H146      1.0  0.50299  0.30461  0.26748  1.0000
  S   S37       1.0  0.53941  0.55142  0.61388  1.0000
  Fe  Fe18      1.0  0.39235  0.16813  0.37871  1.0000
  H   H147      1.0  0.37787  0.32213  0.59597  1.0000
  H   H148      1.0  0.46401  0.34943  0.30799  1.0000
  H   H149      1.0  0.42573  0.33234  0.32794  1.0000
  H   H150      1.0  0.42338  0.26584  0.23779  1.0000
  C   C85       1.0  0.37608  0.31592  0.50034  1.0000
  S   S38       1.0  0.36839  0.30792  0.37999  1.0000
  C   C86       1.0  0.44550  0.32793  0.29643  1.0000
  S   S39       1.0  0.37319  0.18154  0.60234  1.0000
  S   S40       1.0  0.56579  0.29305  0.31772  1.0000
  H   H151      1.0  0.45871  0.53335  0.57874  1.0000
  H   H152      1.0  0.41209  0.26271  0.31483  1.0000
  Fe  Fe19      1.0  0.36968  0.18583  0.50285  1.0000
  H   H153      1.0  0.47343  0.50095  0.52312  1.0000
  H   H154      1.0  0.50679  0.16956  0.47753  1.0000
  H   H155      1.0  0.44048  0.23012  0.28551  1.0000
  S   S41       1.0  0.53185  0.45716  0.52156  1.0000
  C   C87       1.0  0.50163  0.17131  0.43031  1.0000
  C   C88       1.0  0.36543  0.37422  0.44450  1.0000
  Fe  Fe20      1.0  0.36518  0.24565  0.40457  1.0000
  C   C89       1.0  0.48822  0.17528  0.30845  1.0000
  H   H156      1.0  0.42078  0.50983  0.65364  1.0000
  Fe  Fe21      1.0  0.32993  0.45143  0.60980  1.0000
  S   S42       1.0  0.57182  0.60876  0.36411  1.0000
  S   S43       1.0  0.47272  0.62302  0.61066  1.0000
  H   H157      1.0  0.46953  0.42815  0.60053  1.0000
  S   S44       1.0  0.56036  0.20208  0.41817  1.0000
  H   H158      1.0  0.41988  0.48157  0.49353  1.0000
  N   N11       1.0  0.43924  0.47592  0.58173  1.0000
  C   C90       1.0  0.46542  0.50289  0.57025  1.0000
  H   H159      1.0  0.40918  0.45978  0.65465  1.0000
  S   S45       1.0  0.34811  0.56858  0.48626  1.0000
  S   S46       1.0  0.34845  0.50975  0.63283  1.0000
  Fe  Fe22      1.0  0.51436  0.59801  0.56395  1.0000
  H   H160      1.0  0.54594  0.37699  0.50352  1.0000
  S   S47       1.0  0.51216  0.56496  0.47787  1.0000
  C   C91       1.0  0.43782  0.60991  0.57521  1.0000
  C   C92       1.0  0.43629  0.60698  0.51306  1.0000
  C   C93       1.0  0.40824  0.59577  0.48542  1.0000
  C   C94       1.0  0.38176  0.58758  0.51996  1.0000
  C   C95       1.0  0.38308  0.59181  0.58196  1.0000
  C   C96       1.0  0.41121  0.60228  0.60963  1.0000
  H   H161      1.0  0.39262  0.46605  0.54991  1.0000
  H   H162      1.0  0.40725  0.59270  0.43739  1.0000
  H   H163      1.0  0.36240  0.58692  0.60866  1.0000
  H   H164      1.0  0.41240  0.60401  0.65774  1.0000
  C   C97       1.0  0.41312  0.48508  0.54116  1.0000
  C   C98       1.0  0.42888  0.47994  0.64431  1.0000
  H   H165      1.0  0.48583  0.49631  0.59919  1.0000
  H   H166      1.0  0.40533  0.51538  0.54689  1.0000
  C   C99       1.0  0.55975  0.39387  0.47237  1.0000
  Fe  Fe23      1.0  0.32309  0.17535  0.40319  1.0000
  Fe  Fe24      1.0  0.32373  0.52895  0.55023  1.0000
  C   C100      1.0  0.47881  0.18416  0.11743  1.0000
  C   C101      1.0  0.52854  0.20542  0.15818  1.0000
  C   C102      1.0  0.49583  0.25060  0.10501  1.0000
  C   C103      1.0  0.47330  0.22155  0.09657  1.0000
  H   H167      1.0  0.45197  0.22783  0.07263  1.0000
  C   C104      1.0  0.50650  0.17605  0.14796  1.0000
  H   H168      1.0  0.49178  0.27935  0.08782  1.0000
  C   C105      1.0  0.52331  0.24266  0.13636  1.0000
  H   H169      1.0  0.40509  0.58508  0.77035  1.0000
  H   H170      1.0  0.36096  0.18105  0.19516  1.0000
  C   C106      1.0  0.34750  0.62924  0.84875  1.0000
  H   H171      1.0  0.36007  0.54502  0.73853  1.0000
  H   H172      1.0  0.54962  0.19901  0.18223  1.0000
  H   H173      1.0  0.35468  0.15512  0.71788  1.0000
  C   C107      1.0  0.48669  0.62567  0.93168  1.0000
  C   C108      1.0  0.35632  0.56892  0.76806  1.0000
  H   H174      1.0  0.50738  0.61675  0.90507  1.0000
  C   C109      1.0  0.37744  0.62170  0.82675  1.0000
  C   C110      1.0  0.38191  0.59125  0.78694  1.0000
  C   C111      1.0  0.37804  0.15944  0.17896  1.0000
  H   H175      1.0  0.48528  0.60671  0.97175  1.0000
  H   H176      1.0  0.46550  0.61969  0.90409  1.0000
  S   S48       1.0  0.55046  0.27987  0.14861  1.0000
  H   H177      1.0  0.38595  0.16841  0.13361  1.0000
  C   C112      1.0  0.32621  0.57702  0.78873  1.0000
  H   H178      1.0  0.39903  0.16106  0.20835  1.0000
  H   H179      1.0  0.41826  0.72769  0.59157  1.0000
  C   C113      1.0  0.56078  0.04337  0.34893  1.0000
  H   H180      1.0  0.55146  0.01850  0.32284  1.0000
  H   H181      1.0  0.43223  0.66613  0.68915  1.0000
  C   C114      1.0  0.57106  0.66535  0.28014  1.0000
  H   H182      1.0  0.55892  0.11550  0.39256  1.0000
  H   H183      1.0  0.55936  0.67989  0.42845  1.0000
  H   H184      1.0  0.55776  0.92226  0.25843  1.0000
  C   C115      1.0  0.37377  0.10230  0.59562  1.0000
  H   H185      1.0  0.44875  0.71344  0.68095  1.0000
  C   C116      1.0  0.35408  0.10944  0.23920  1.0000
  H   H186      1.0  0.51205  0.09296  0.33911  1.0000
  S   S49       1.0  0.35984  0.13645  0.44067  1.0000
  C   C117      1.0  0.36751  0.06522  0.61820  1.0000
  H   H187      1.0  0.54666  0.04531  0.39055  1.0000
  C   C118      1.0  0.56644  0.73365  0.30146  1.0000
  H   H188      1.0  0.34379  0.07985  0.24041  1.0000
  H   H189      1.0  0.51560  0.06364  0.27353  1.0000
  H   H190      1.0  0.40271  0.67969  0.59390  1.0000
  H   H191      1.0  0.34960  0.69608  0.68202  1.0000
  C   C119      1.0  0.56729  0.65667  0.34071  1.0000
  H   H192      1.0  0.47356  0.92424  0.21676  1.0000
  S   S50       1.0  0.42980  0.14393  0.32048  1.0000
  C   C120      1.0  0.52655  0.08796  0.29859  1.0000
  H   H193      1.0  0.37661  0.71986  0.59075  1.0000
  H   H194      1.0  0.38278  0.10569  0.55093  1.0000
  C   C121      1.0  0.56224  0.68643  0.38160  1.0000
  C   C122      1.0  0.39898  0.70959  0.61023  1.0000
  H   H195      1.0  0.37104  0.04017  0.59030  1.0000
  H   H196      1.0  0.37399  0.11000  0.27124  1.0000
  C   C123      1.0  0.35581  0.06068  0.67614  1.0000
  H   H197      1.0  0.33613  0.12975  0.25626  1.0000
  C   C124      1.0  0.36857  0.13478  0.63117  1.0000
  H   H198      1.0  0.56831  0.05253  0.23005  1.0000
  S   S51       1.0  0.34431  0.01479  0.70124  1.0000
  H   H199      1.0  0.37566  0.65573  0.68545  1.0000
  H   H200      1.0  0.55854  0.74806  0.39371  1.0000
  H   H201      1.0  0.41252  0.77086  0.67961  1.0000
  N   N12       1.0  0.39845  0.71107  0.67615  1.0000
  C   C125      1.0  0.35818  0.13007  0.68993  1.0000
  C   C126      1.0  0.57040  0.70372  0.26052  1.0000
  C   C127      1.0  0.56176  0.72496  0.36191  1.0000
  H   H202      1.0  0.57277  0.71006  0.21367  1.0000
  N   N13       1.0  0.55941  0.07966  0.31422  1.0000
  H   H203      1.0  0.52479  0.11409  0.26994  1.0000
  H   H204      1.0  0.37096  0.76292  0.67927  1.0000
  C   C128      1.0  0.57166  0.93650  0.22444  1.0000
  C   C129      1.0  0.37270  0.68640  0.69889  1.0000
  C   C130      1.0  0.39357  0.75130  0.69577  1.0000
  C   C131      1.0  0.42856  0.69709  0.69992  1.0000
  S   S52       1.0  0.52453  0.98912  0.21689  1.0000
  S   S53       1.0  0.56928  0.78193  0.27814  1.0000
  H   H205      1.0  0.46911  0.85260  0.21661  1.0000
  H   H206      1.0  0.57152  0.13953  0.32588  1.0000
  C   C132      1.0  0.57235  0.11162  0.35042  1.0000
  H   H207      1.0  0.45546  0.14652  0.43957  1.0000
  C   C133      1.0  0.53987  0.78268  0.99643  1.0000
  C   C134      1.0  0.38842  0.09248  0.15816  1.0000
  Fe  Fe25      1.0  0.40435  0.76990  0.97237  1.0000
  Fe  Fe26      1.0  0.37378  0.78824  0.85448  1.0000
  S   S54       1.0  0.41917  0.76012  0.87760  1.0000
  C   C135      1.0  0.49853  0.77599  0.06973  1.0000
  S   S55       1.0  0.43683  0.78730  0.04631  1.0000
  H   H208      1.0  0.49125  0.76911  0.11478  1.0000
  C   C136      1.0  0.53027  0.77503  0.05493  1.0000
  C   C137      1.0  0.47631  0.78512  0.02629  1.0000
  H   H209      1.0  0.39638  0.09923  0.11198  1.0000
  H   H210      1.0  0.34400  0.65199  0.88092  1.0000
  C   C138      1.0  0.32686  0.99651  0.99032  1.0000
  C   C139      1.0  0.56100  0.97035  0.19757  1.0000
  H   H211      1.0  0.53869  0.66660  0.95972  1.0000
  H   H212      1.0  0.46893  0.80125  0.93457  1.0000
  C   C140      1.0  0.51767  0.79147  0.95275  1.0000
  H   H213      1.0  0.54725  0.76751  0.08866  1.0000
  Fe  Fe27      1.0  0.39035  0.70618  0.88488  1.0000
  H   H214      1.0  0.46091  0.70846  0.99572  1.0000
  S   S56       1.0  0.37893  0.71340  0.98146  1.0000
  S   S57       1.0  0.34629  0.73321  0.85208  1.0000
  Fe  Fe28      1.0  0.33723  0.74590  0.94846  1.0000
  H   H215      1.0  0.47415  0.95001  0.14763  1.0000
  S   S58       1.0  0.55738  0.05289  0.94127  1.0000
  C   C141      1.0  0.48587  0.79303  0.96783  1.0000
  H   H216      1.0  0.43889  0.67166  0.95788  1.0000
  S   S59       1.0  0.36155  0.80341  0.94880  1.0000
  H   H217      1.0  0.52514  0.79776  0.90760  1.0000
  H   H218      1.0  0.43483  0.85497  0.16987  1.0000
  H   H219      1.0  0.51662  0.85946  0.11385  1.0000
  H   H220      1.0  0.40951  0.09369  0.18740  1.0000
  C   C142      1.0  0.35177  0.09306  0.71236  1.0000
  C   C143      1.0  0.32910  0.84786  0.78687  1.0000
  H   H221      1.0  0.38963  0.92781  0.91992  1.0000
  H   H222      1.0  0.36665  0.99696  0.84588  1.0000
  S   S60       1.0  0.47121  0.06666  0.99570  1.0000
  H   H223      1.0  0.37172  0.68688  0.74846  1.0000
  S   S61       1.0  0.36723  0.83014  0.77975  1.0000
  H   H224      1.0  0.35512  0.92977  0.87414  1.0000
  N   N14       1.0  0.47418  0.88835  0.13852  1.0000
  Fe  Fe29      1.0  0.45758  0.01172  0.04188  1.0000
  S   S62       1.0  0.45602  0.03743  0.13307  1.0000
  S   S63       1.0  0.41805  0.97208  0.01673  1.0000
  H   H225      1.0  0.51902  0.70443  0.99849  1.0000
  H   H226      1.0  0.33486  0.89116  0.71865  1.0000
  N   N15       1.0  0.36448  0.12003  0.17838  1.0000
  Fe  Fe30      1.0  0.50636  0.02120  0.13775  1.0000
  H   H227      1.0  0.39725  0.96042  0.73657  1.0000
  Fe  Fe31      1.0  0.47362  0.09109  0.08816  1.0000
  H   H228      1.0  0.38984  0.91081  0.75682  1.0000
  H   H229      1.0  0.38347  0.89276  0.86238  1.0000
  H   H230      1.0  0.34405  0.08965  0.75789  1.0000
  C   C144      1.0  0.39198  0.99003  0.84614  1.0000
  H   H231      1.0  0.43614  0.91033  0.82306  1.0000
  H   H232      1.0  0.35405  0.08859  0.00298  1.0000
  S   S64       1.0  0.52431  0.07770  0.10225  1.0000
  C   C145      1.0  0.46243  0.88952  0.07650  1.0000
  H   H233      1.0  0.47139  0.91528  0.05207  1.0000
  H   H234      1.0  0.40344  0.00980  0.81343  1.0000
  C   C146      1.0  0.49027  0.69084  0.89395  1.0000
  H   H235      1.0  0.46965  0.86358  0.05102  1.0000
  C   C147      1.0  0.35478  0.97669  0.00086  1.0000
  C   C148      1.0  0.38258  0.99716  0.01136  1.0000
  C   C149      1.0  0.38208  0.03754  0.01386  1.0000
  C   C150      1.0  0.35403  0.05739  0.00391  1.0000
  C   C151      1.0  0.46468  0.92380  0.17005  1.0000
  H   H236      1.0  0.35484  0.94547  0.99998  1.0000
  H   H237      1.0  0.40349  0.05357  0.02136  1.0000
  H   H238      1.0  0.46763  0.82711  0.14724  1.0000
  C   C152      1.0  0.43125  0.94105  0.83400  1.0000
  H   H239      1.0  0.40123  0.99725  0.89117  1.0000
  C   C153      1.0  0.46084  0.85436  0.16960  1.0000
  C   C154      1.0  0.38578  0.94130  0.77018  1.0000
  H   H240      1.0  0.44065  0.94678  0.87959  1.0000
  H   H241      1.0  0.44461  0.95954  0.80214  1.0000
  H   H242      1.0  0.46933  0.68627  0.86529  1.0000
  N   N16       1.0  0.39741  0.94907  0.83105  1.0000
  C   C155      1.0  0.38065  0.92381  0.87381  1.0000
  S   S65       1.0  0.50681  0.99080  0.04984  1.0000
  C   C156      1.0  0.51703  0.67366  0.98487  1.0000
  C   C157      1.0  0.33753  0.11876  0.13711  1.0000
  H   H243      1.0  0.42960  0.69969  0.74932  1.0000
  H   H244      1.0  0.49147  0.72210  0.90495  1.0000
  H   H245      1.0  0.32749  0.08907  0.13372  1.0000
  H   H246      1.0  0.36020  0.94653  0.76712  1.0000
  H   H247      1.0  0.43642  0.89063  0.07505  1.0000
  Fe  Fe32      1.0  0.52071  0.04855  0.01300  1.0000
  H   H248      1.0  0.37944  0.06224  0.15809  1.0000
  C   C158      1.0  0.32649  0.03689  0.99118  1.0000
  H   H249      1.0  0.43880  0.92667  0.17124  1.0000
  H   H250      1.0  0.39309  0.75344  0.74530  1.0000
  H   H251      1.0  0.51125  0.68395  0.86669  1.0000
  S   S66       1.0  0.40901  0.65164  0.84609  1.0000
  C   C159      1.0  0.50868  0.88570  0.13805  1.0000
  N   N17       1.0  0.48869  0.66687  0.94852  1.0000
  H   H252      1.0  0.51963  0.91128  0.11604  1.0000
  H   H253      1.0  0.34453  0.12773  0.09125  1.0000
  C   C160      1.0  0.46071  0.67733  0.98350  1.0000
  H   H254      1.0  0.45909  0.66046  0.02571  1.0000
  H   H255      1.0  0.51675  0.65602  0.02642  1.0000
  H   H256      1.0  0.51833  0.88415  0.18414  1.0000
  H   H257      1.0  0.57085  0.01477  0.13310  1.0000
  H   H258      1.0  0.51042  0.14744  0.16540  1.0000
  S   S67       1.0  0.45081  0.14794  0.10561  1.0000
  H   H259      1.0  0.69590  0.37946  0.37808  1.0000
  N   N18       1.0  0.72200  0.18243  0.63519  1.0000
  H   H260      1.0  0.70481  0.23842  0.61052  1.0000
  H   H261      1.0  0.70143  0.18123  0.44829  1.0000
  C   C161      1.0  0.74426  0.30209  0.37355  1.0000
  S   S68       1.0  0.59834  0.21402  0.26128  1.0000
  Fe  Fe33      1.0  0.58265  0.58215  0.58363  1.0000
  C   C162      1.0  0.66781  0.43890  0.49724  1.0000
  C   C163      1.0  0.71355  0.18949  0.40784  1.0000
  C   C164      1.0  0.66140  0.50686  0.47706  1.0000
  H   H262      1.0  0.76857  0.19420  0.60294  1.0000
  H   H263      1.0  0.69224  0.34571  0.28110  1.0000
  Fe  Fe34      1.0  0.64390  0.24501  0.27371  1.0000
  S   S69       1.0  0.69013  0.22340  0.24193  1.0000
  H   H264      1.0  0.66738  0.63603  0.45495  1.0000
  C   C165      1.0  0.67302  0.62535  0.49875  1.0000
  H   H265      1.0  0.69024  0.33350  0.41332  1.0000
  N   N19       1.0  0.72720  0.33528  0.34823  1.0000
  S   S70       1.0  0.58664  0.54803  0.49968  1.0000
  C   C166      1.0  0.74620  0.19191  0.40711  1.0000
  H   H266      1.0  0.76017  0.31115  0.41031  1.0000
  C   C167      1.0  0.69641  0.19797  0.35639  1.0000
  C   C168      1.0  0.71185  0.20875  0.30398  1.0000
  C   C169      1.0  0.74456  0.20987  0.30245  1.0000
  C   C170      1.0  0.76178  0.20167  0.35424  1.0000
  S   S71       1.0  0.62930  0.37567  0.35383  1.0000
  C   C171      1.0  0.79052  0.40302  0.46494  1.0000
  H   H267      1.0  0.75654  0.21780  0.26166  1.0000
  H   H268      1.0  0.78700  0.20283  0.35319  1.0000
  H   H269      1.0  0.67000  0.41598  0.53175  1.0000
  S   S72       1.0  0.63411  0.26353  0.36773  1.0000
  H   H270      1.0  0.72324  0.36356  0.43326  1.0000
  C   C172      1.0  0.70836  0.35367  0.39544  1.0000
  H   H271      1.0  0.76651  0.17908  0.67929  1.0000
  H   H272      1.0  0.67122  0.19568  0.35718  1.0000
  H   H273      1.0  0.76703  0.35746  0.51331  1.0000
  C   C173      1.0  0.78831  0.36630  0.49089  1.0000
  H   H274      1.0  0.65821  0.53625  0.49616  1.0000
  Fe  Fe35      1.0  0.58649  0.23793  0.35129  1.0000
  H   H275      1.0  0.81277  0.31374  0.51176  1.0000
  H   H276      1.0  0.63122  0.50607  0.58248  1.0000
  H   H277      1.0  0.68908  0.51566  0.58270  1.0000
  N   N20       1.0  0.66372  0.47735  0.52456  1.0000
  Fe  Fe36      1.0  0.61461  0.31646  0.32495  1.0000
  H   H278      1.0  0.79690  0.61934  0.66866  1.0000
  H   H279      1.0  0.75882  0.28770  0.33911  1.0000
  C   C174      1.0  0.59994  0.39749  0.39613  1.0000
  C   C175      1.0  0.70635  0.32167  0.29993  1.0000
  S   S73       1.0  0.75940  0.43543  0.46989  1.0000
  H   H280      1.0  0.75513  0.22693  0.65935  1.0000
  H   H281      1.0  0.68291  0.50785  0.44909  1.0000
  C   C176      1.0  0.69091  0.48628  0.56287  1.0000
  C   C177      1.0  0.64893  0.61616  0.53845  1.0000
  C   C178      1.0  0.58125  0.37551  0.43477  1.0000
  H   H282      1.0  0.76442  0.35090  0.28812  1.0000
  Fe  Fe37      1.0  0.81783  0.19769  0.47312  1.0000
  C   C179      1.0  0.74979  0.36373  0.32391  1.0000
  H   H283      1.0  0.61023  0.45451  0.36258  1.0000
  H   H284      1.0  0.76585  0.37464  0.35920  1.0000
  H   H285      1.0  0.73764  0.38924  0.30477  1.0000
  H   H286      1.0  0.71305  0.48520  0.53690  1.0000
  H   H287      1.0  0.64119  0.50096  0.44698  1.0000
  Fe  Fe38      1.0  0.78112  0.49477  0.47511  1.0000
  H   H288      1.0  0.63583  0.45551  0.59734  1.0000
  C   C180      1.0  0.70592  0.20843  0.59300  1.0000
  H   H289      1.0  0.61386  0.47078  0.53361  1.0000
  H   H290      1.0  0.76017  0.59839  0.69043  1.0000
  H   H291      1.0  0.68918  0.43807  0.46888  1.0000
  Fe  Fe39      1.0  0.77020  0.58074  0.47503  1.0000
  S   S74       1.0  0.73356  0.62564  0.46179  1.0000
  S   S75       1.0  0.76675  0.53574  0.54684  1.0000
  H   H292      1.0  0.64760  0.43107  0.46840  1.0000
  H   H293      1.0  0.69303  0.46525  0.60017  1.0000
  S   S76       1.0  0.62547  0.58555  0.64105  1.0000
  C   C181      1.0  0.65584  0.60133  0.59488  1.0000
  C   C182      1.0  0.68700  0.59701  0.61251  1.0000
  C   C183      1.0  0.71116  0.60584  0.57231  1.0000
  C   C184      1.0  0.70408  0.61915  0.51492  1.0000
  H   H294      1.0  0.68963  0.29939  0.31642  1.0000
  H   H295      1.0  0.68157  0.19846  0.58396  1.0000
  H   H296      1.0  0.69233  0.58584  0.65642  1.0000
  H   H297      1.0  0.73522  0.60241  0.58557  1.0000
  H   H298      1.0  0.71971  0.30818  0.26287  1.0000
  C   C185      1.0  0.63492  0.47742  0.56107  1.0000
  H   H299      1.0  0.72789  0.27986  0.39181  1.0000
  S   S77       1.0  0.78041  0.53863  0.40167  1.0000
  H   H300      1.0  0.81939  0.44182  0.41334  1.0000
  C   C186      1.0  0.81421  0.34163  0.49022  1.0000
  H   H301      1.0  0.66319  0.62395  0.35138  1.0000
  C   C187      1.0  0.81809  0.41431  0.43609  1.0000
  C   C188      1.0  0.59628  0.43754  0.39339  1.0000
  S   S78       1.0  0.76656  0.18368  0.47354  1.0000
  H   H302      1.0  0.58401  0.34451  0.43700  1.0000
  H   H303      1.0  0.62495  0.62012  0.52490  1.0000
  C   C189      1.0  0.75442  0.19632  0.64454  1.0000
  H   H304      1.0  0.71837  0.20971  0.54943  1.0000
  Fe  Fe40      1.0  0.58097  0.27114  0.22846  1.0000
  C   C190      1.0  0.70523  0.18202  0.69288  1.0000
  S   S79       1.0  0.62782  0.29989  0.23206  1.0000
  C   C191      1.0  0.57435  0.45573  0.43000  1.0000
  Fe  Fe41      1.0  0.81786  0.54734  0.55935  1.0000
  C   C192      1.0  0.78056  0.61543  0.70691  1.0000
  H   H305      1.0  0.57463  0.64232  0.24835  1.0000
  H   H306      1.0  0.68071  0.17159  0.68757  1.0000
  H   H307      1.0  0.63661  0.63497  0.29195  1.0000
  S   S80       1.0  0.82012  0.59628  0.49371  1.0000
  H   H308      1.0  0.70855  0.64299  0.29291  1.0000
  C   C193      1.0  0.64950  0.64758  0.33053  1.0000
  H   H309      1.0  0.66018  0.16481  0.00563  1.0000
  H   H310      1.0  0.60506  0.22793  0.13037  1.0000
  C   C194      1.0  0.66191  0.22528  0.07986  1.0000
  H   H311      1.0  0.68539  0.21211  0.07379  1.0000
  H   H312      1.0  0.65916  0.24835  0.04573  1.0000
  C   C195      1.0  0.63720  0.17841  0.01521  1.0000
  H   H313      1.0  0.75959  0.63030  0.81874  1.0000
  H   H314      1.0  0.60144  0.23738  0.05235  1.0000
  N   N21       1.0  0.63679  0.19588  0.07533  1.0000
  H   H315      1.0  0.66194  0.23939  0.12451  1.0000
  H   H316      1.0  0.58661  0.19292  0.08265  1.0000
  C   C196      1.0  0.64196  0.16557  0.12072  1.0000
  H   H317      1.0  0.64300  0.17795  0.16649  1.0000
  H   H318      1.0  0.63289  0.20028  0.97984  1.0000
  H   H319      1.0  0.79279  0.59753  0.74086  1.0000
  C   C197      1.0  0.60617  0.21423  0.08561  1.0000
  C   C198      1.0  0.74857  0.64646  0.78131  1.0000
  H   H320      1.0  0.72760  0.62988  0.76637  1.0000
  H   H321      1.0  0.66453  0.15042  0.11310  1.0000
  H   H322      1.0  0.61893  0.15548  0.01068  1.0000
  H   H323      1.0  0.71680  0.16241  0.72553  1.0000
  H   H324      1.0  0.70464  0.21127  0.71325  1.0000
  H   H325      1.0  0.71078  0.68965  0.25840  1.0000
  H   H326      1.0  0.57790  0.10289  0.23234  1.0000
  H   H327      1.0  0.59715  0.10650  0.36288  1.0000
  H   H328      1.0  0.69935  0.72309  0.35311  1.0000
  H   H329      1.0  0.77173  0.68113  0.64620  1.0000
  H   H330      1.0  0.66558  0.73426  0.26573  1.0000
  C   C199      1.0  0.65087  0.70958  0.28121  1.0000
  S   S81       1.0  0.64860  0.81276  0.21109  1.0000
  H   H331      1.0  0.60272  0.06834  0.26882  1.0000
  C   C200      1.0  0.72241  0.14290  0.61038  1.0000
  H   H332      1.0  0.74840  0.70478  0.70174  1.0000
  H   H333      1.0  0.63165  0.65685  0.36361  1.0000
  C   C201      1.0  0.69438  0.66602  0.27149  1.0000
  H   H334      1.0  0.63902  0.69732  0.24124  1.0000
  C   C202      1.0  0.75568  0.67605  0.68461  1.0000
  H   H335      1.0  0.63242  0.72135  0.31099  1.0000
  N   N22       1.0  0.66982  0.68020  0.31213  1.0000
  H   H336      1.0  0.73620  0.14159  0.56828  1.0000
  H   H337      1.0  0.66668  0.70764  0.39793  1.0000
  H   H338      1.0  0.60732  0.89293  0.22457  1.0000
  C   C203      1.0  0.79962  0.11224  0.66838  1.0000
  H   H339      1.0  0.73304  0.12219  0.64226  1.0000
  H   H340      1.0  0.78404  0.09709  0.63833  1.0000
  C   C204      1.0  0.68455  0.69772  0.36534  1.0000
  H   H341      1.0  0.69984  0.67676  0.38870  1.0000
  H   H342      1.0  0.58520  0.03625  0.36172  1.0000
  H   H343      1.0  0.73438  0.66123  0.66706  1.0000
  H   H344      1.0  0.69843  0.13211  0.60045  1.0000
  C   C205      1.0  0.57798  0.07574  0.25897  1.0000
  H   H345      1.0  0.68416  0.65410  0.22963  1.0000
  H   H346      1.0  0.73847  0.90077  0.10242  1.0000
  H   H347      1.0  0.79294  0.69810  0.02899  1.0000
  H   H348      1.0  0.79259  0.87463  0.10871  1.0000
  C   C206      1.0  0.78622  0.85468  0.07173  1.0000
  S   S82       1.0  0.77043  0.70318  0.90780  1.0000
  S   S83       1.0  0.57954  0.78099  0.97827  1.0000
  Fe  Fe42      1.0  0.66157  0.77046  0.14003  1.0000
  H   H349      1.0  0.60511  0.94118  0.94246  1.0000
  S   S84       1.0  0.70531  0.73662  0.15438  1.0000
  S   S85       1.0  0.61386  0.74390  0.13257  1.0000
  C   C207      1.0  0.61768  0.93806  0.16099  1.0000
  C   C208      1.0  0.75179  0.70949  0.97671  1.0000
  C   C209      1.0  0.72002  0.71883  0.97843  1.0000
  C   C210      1.0  0.70540  0.72633  0.03318  1.0000
  C   C211      1.0  0.72250  0.72412  0.08626  1.0000
  C   C212      1.0  0.75398  0.71357  0.08472  1.0000
  C   C213      1.0  0.76866  0.70641  0.02995  1.0000
  H   H350      1.0  0.70685  0.72096  0.93735  1.0000
  H   H351      1.0  0.68092  0.73382  0.03420  1.0000
  H   H352      1.0  0.76718  0.71145  0.12577  1.0000
  H   H353      1.0  0.76038  0.79100  0.02649  1.0000
  Fe  Fe43      1.0  0.60599  0.78960  0.06332  1.0000
  C   C214      1.0  0.59502  0.06445  0.96695  1.0000
  H   H354      1.0  0.79257  0.86944  0.02929  1.0000
  S   S86       1.0  0.65521  0.81201  0.06424  1.0000
  H   H355      1.0  0.75059  0.84498  0.16914  1.0000
  H   H356      1.0  0.81601  0.67972  0.71845  1.0000
  N   N23       1.0  0.77088  0.65298  0.73183  1.0000
  C   C215      1.0  0.57911  0.98868  0.15384  1.0000
  C   C216      1.0  0.81109  0.92940  0.93647  1.0000
  C   C217      1.0  0.73374  0.87965  0.06608  1.0000
  C   C218      1.0  0.64927  0.08061  0.94575  1.0000
  C   C219      1.0  0.65842  0.96541  0.89281  1.0000
  Fe  Fe44      1.0  0.80104  0.06161  0.95650  1.0000
  Fe  Fe45      1.0  0.73105  0.07096  0.97095  1.0000
  S   S87       1.0  0.74872  0.93450  0.90938  1.0000
  S   S88       1.0  0.72031  0.03924  0.88636  1.0000
  C   C220      1.0  0.67533  0.97314  0.99475  1.0000
  H   H357      1.0  0.61752  0.94387  0.01866  1.0000
  H   H358      1.0  0.65997  0.89814  0.00329  1.0000
  C   C221      1.0  0.62161  0.95605  0.97332  1.0000
  C   C222      1.0  0.66249  0.90966  0.95713  1.0000
  H   H359      1.0  0.68301  0.96195  0.87729  1.0000
  H   H360      1.0  0.81072  0.65736  0.79011  1.0000
  S   S89       1.0  0.69347  0.09199  0.03278  1.0000
  C   C223      1.0  0.78581  0.87107  0.90109  1.0000
  H   H361      1.0  0.68704  0.90477  0.94265  1.0000
  S   S90       1.0  0.58797  0.83354  0.12751  1.0000
  C   C224      1.0  0.65581  0.08117  0.00687  1.0000
  C   C225      1.0  0.63197  0.07345  0.04797  1.0000
  C   C226      1.0  0.60164  0.06512  0.02798  1.0000
  H   H362      1.0  0.73889  0.89440  0.02296  1.0000
  C   C227      1.0  0.61891  0.07210  0.92581  1.0000
  H   H363      1.0  0.67263  0.96381  0.04191  1.0000
  H   H364      1.0  0.63708  0.07321  0.09526  1.0000
  H   H365      1.0  0.64698  0.89209  0.92775  1.0000
  H   H366      1.0  0.61385  0.07170  0.87849  1.0000
  Fe  Fe46      1.0  0.75720  0.99822  0.91633  1.0000
  H   H367      1.0  0.61507  0.98707  0.97453  1.0000
  S   S91       1.0  0.76808  0.10902  0.93049  1.0000
  C   C228      1.0  0.60787  0.97315  0.13667  1.0000
  C   C229      1.0  0.74555  0.81723  0.02405  1.0000
  H   H368      1.0  0.81425  0.82032  0.89963  1.0000
  H   H369      1.0  0.65259  0.99663  0.88944  1.0000
  S   S92       1.0  0.75672  0.09644  0.75499  1.0000
  H   H370      1.0  0.76532  0.85632  0.88394  1.0000
  N   N24       1.0  0.65445  0.95107  0.95451  1.0000
  H   H371      1.0  0.74968  0.83070  0.97978  1.0000
  H   H372      1.0  0.74027  0.67429  0.80022  1.0000
  H   H373      1.0  0.71971  0.81830  0.13379  1.0000
  S   S93       1.0  0.65037  0.91464  0.13157  1.0000
  H   H374      1.0  0.62180  0.98754  0.10294  1.0000
  H   H375      1.0  0.72079  0.80739  0.02516  1.0000
  H   H376      1.0  0.70825  0.87296  0.06719  1.0000
  Fe  Fe47      1.0  0.76023  0.07349  0.84821  1.0000
  H   H377      1.0  0.64307  0.94948  0.86108  1.0000
  C   C230      1.0  0.78439  0.91028  0.91529  1.0000
  C   C231      1.0  0.74503  0.82575  0.13082  1.0000
  H   H378      1.0  0.70032  0.96953  0.98242  1.0000
  S   S94       1.0  0.76465  0.02666  0.00470  1.0000
  C   C232      1.0  0.79865  0.67402  0.75450  1.0000
  H   H379      1.0  0.66742  0.08747  0.91383  1.0000
  S   S95       1.0  0.79637  0.02941  0.87010  1.0000
  H   H380      1.0  0.67030  0.00452  0.99317  1.0000
  H   H381      1.0  0.80120  0.82862  0.07539  1.0000
  H   H382      1.0  0.58353  0.05857  0.05969  1.0000
  Fe  Fe48      1.0  0.63797  0.85200  0.13483  1.0000
  N   N25       1.0  0.75263  0.84435  0.07317  1.0000
  H   H383      1.0  0.75814  0.79835  0.13687  1.0000
  C   C233      1.0  0.81368  0.85075  0.90924  1.0000
  H   H384      1.0  0.79211  0.70230  0.77439  1.0000
  H   H385      1.0  0.80841  0.13426  0.81526  1.0000
  C   C234      1.0  0.59971  0.91995  0.20529  1.0000
  Fe  Fe49      1.0  0.59992  0.78997  0.19760  1.0000
  H   H386      1.0  0.81001  0.95961  0.94823  1.0000
  C   C235      1.0  0.81368  0.13260  0.76811  1.0000
  C   C236      1.0  0.79282  0.11402  0.72933  1.0000
  Fe  Fe50      1.0  0.82171  0.71629  0.91454  1.0000
  H   H387      1.0  0.62304  0.14340  0.11977  1.0000
  C   C237      1.0  0.95988  0.62063  0.27401  1.0000
  C   C238      1.0  0.95311  0.16517  0.37422  1.0000
  S   S96       1.0  0.90493  0.22246  0.50104  1.0000
  H   H388      1.0  0.96391  0.27148  0.45128  1.0000
  S   S97       1.0  0.88054  0.17259  0.65498  1.0000
  Fe  Fe51      1.0  0.06828  0.31188  0.36352  1.0000
  C   C239      1.0  0.06227  0.46918  0.29093  1.0000
  H   H389      1.0  0.97778  0.27193  0.28784  1.0000
  S   S98       1.0  0.05529  0.17523  0.43090  1.0000
  S   S99       1.0  0.04801  0.25989  0.31955  1.0000
  H   H390      1.0  0.02146  0.43860  0.41269  1.0000
  C   C240      1.0  0.84409  0.39007  0.43647  1.0000
  H   H391      1.0  0.99445  0.31703  0.31190  1.0000
  H   H392      1.0  0.98295  0.63057  0.25650  1.0000
  H   H393      1.0  0.98178  0.24645  0.39060  1.0000
  H   H394      1.0  0.91317  0.27201  0.39856  1.0000
  H   H395      1.0  0.91049  0.29006  0.32411  1.0000
  H   H396      1.0  0.03778  0.49858  0.36136  1.0000
  S   S100      1.0  0.99686  0.56232  0.50201  1.0000
  Fe  Fe52      1.0  0.87088  0.19129  0.56057  1.0000
  H   H397      1.0  0.02544  0.18147  0.31668  1.0000
  C   C241      1.0  0.00772  0.17526  0.34935  1.0000
  H   H398      1.0  0.86619  0.43843  0.54537  1.0000
  C   C242      1.0  0.03436  0.43703  0.37124  1.0000
  H   H399      1.0  0.86558  0.39939  0.41524  1.0000
  C   C243      1.0  0.88886  0.42620  0.56021  1.0000
  S   S101      1.0  0.84642  0.22940  0.40473  1.0000
  H   H400      1.0  0.93867  0.33346  0.43443  1.0000
  H   H401      1.0  0.93210  0.35124  0.36025  1.0000
  C   C244      1.0  0.84233  0.35396  0.46425  1.0000
  H   H402      1.0  0.97051  0.35343  0.39260  1.0000
  H   H403      1.0  0.93402  0.57969  0.53643  1.0000
  S   S102      1.0  0.87599  0.32567  0.46820  1.0000
  H   H404      1.0  0.99814  0.29131  0.41596  1.0000
  H   H405      1.0  0.93054  0.24558  0.33865  1.0000
  C   C245      1.0  0.97635  0.17288  0.33189  1.0000
  H   H406      1.0  0.92969  0.15569  0.21697  1.0000
  Fe  Fe53      1.0  0.86541  0.26274  0.48223  1.0000
  C   C246      1.0  0.01611  0.16976  0.40899  1.0000
  H   H407      1.0  0.94446  0.42880  0.61624  1.0000
  N   N26       1.0  0.95579  0.29672  0.36487  1.0000
  C   C247      1.0  0.92623  0.27513  0.35602  1.0000
  C   C248      1.0  0.94895  0.33546  0.38896  1.0000
  C   C249      1.0  0.97209  0.30067  0.30701  1.0000
  C   C250      1.0  0.97578  0.27560  0.40750  1.0000
  C   C251      1.0  0.04298  0.40125  0.34808  1.0000
  S   S103      1.0  0.03606  0.35952  0.39012  1.0000
  H   H408      1.0  0.88666  0.41972  0.60868  1.0000
  H   H409      1.0  0.91963  0.43427  0.45696  1.0000
  H   H410      1.0  0.88916  0.50482  0.56589  1.0000
  C   C252      1.0  0.04391  0.47101  0.34249  1.0000
  H   H411      1.0  0.96514  0.45464  0.55863  1.0000
  Fe  Fe54      1.0  0.88389  0.18688  0.42749  1.0000
  C   C253      1.0  0.99296  0.16108  0.45118  1.0000
  C   C254      1.0  0.91049  0.48947  0.58113  1.0000
  C   C255      1.0  0.91683  0.46121  0.48334  1.0000
  N   N27       1.0  0.91518  0.45303  0.54806  1.0000
  S   S104      1.0  0.86969  0.55263  0.36091  1.0000
  C   C256      1.0  0.84703  0.14970  0.68402  1.0000
  H   H412      1.0  0.94902  0.40755  0.54365  1.0000
  S   S105      1.0  0.05922  0.63786  0.44769  1.0000
  Fe  Fe55      1.0  0.03545  0.58012  0.43948  1.0000
  H   H413      1.0  0.89844  0.60485  0.26631  1.0000
  S   S106      1.0  0.02753  0.58574  0.34121  1.0000
  C   C257      1.0  0.96156  0.55884  0.46293  1.0000
  C   C258      1.0  0.96097  0.54533  0.40412  1.0000
  C   C259      1.0  0.93271  0.54375  0.37255  1.0000
  C   C260      1.0  0.90491  0.55469  0.40036  1.0000
  C   C261      1.0  0.90535  0.56684  0.45984  1.0000
  C   C262      1.0  0.93368  0.56924  0.49093  1.0000
  H   H414      1.0  0.98212  0.53507  0.38350  1.0000
  H   H415      1.0  0.88399  0.57515  0.48170  1.0000
  H   H416      1.0  0.89184  0.39821  0.53652  1.0000
  H   H417      1.0  0.93063  0.50964  0.57503  1.0000
  H   H418      1.0  0.89534  0.47571  0.46703  1.0000
  C   C263      1.0  0.94476  0.43518  0.56754  1.0000
  H   H419      1.0  0.93691  0.48063  0.47255  1.0000
  H   H420      1.0  0.93230  0.53331  0.32707  1.0000
  C   C264      1.0  0.86568  0.61562  0.63622  1.0000
  H   H421      1.0  0.06478  0.37177  0.27469  1.0000
  H   H422      1.0  0.90767  0.48431  0.62986  1.0000
  H   H423      1.0  0.95761  0.31645  0.27391  1.0000
  S   S107      1.0  0.83210  0.50244  0.49405  1.0000
  H   H424      1.0  0.86230  0.61193  0.58888  1.0000
  C   C265      1.0  0.85747  0.58598  0.67578  1.0000
  Fe  Fe56      1.0  0.83037  0.54999  0.42677  1.0000
  H   H425      1.0  0.97014  0.17834  0.28599  1.0000
  H   H426      1.0  0.95504  0.59125  0.25603  1.0000
  C   C266      1.0  0.96142  0.15918  0.43391  1.0000
  S   S108      1.0  0.91377  0.16497  0.35231  1.0000
  H   H427      1.0  0.96223  0.61784  0.32337  1.0000
  C   C267      1.0  0.05931  0.39937  0.29412  1.0000
  S   S109      1.0  0.83912  0.54365  0.65068  1.0000
  S   S110      1.0  0.83332  0.23527  0.54892  1.0000
  Fe  Fe57      1.0  0.05522  0.64047  0.34792  1.0000
  C   C268      1.0  0.90486  0.63404  0.28351  1.0000
  H   H428      1.0  0.04259  0.20885  0.22990  1.0000
  N   N28       1.0  0.93484  0.64790  0.25810  1.0000
  H   H429      1.0  0.99933  0.15673  0.49744  1.0000
  H   H430      1.0  0.94357  0.15285  0.46677  1.0000
  H   H431      1.0  0.90603  0.63159  0.33306  1.0000
  H   H432      1.0  0.05446  0.62779  0.21745  1.0000
  C   C269      1.0  0.06909  0.43340  0.26558  1.0000
  H   H433      1.0  0.01263  0.14902  0.21053  1.0000
  S   S111      1.0  0.85347  0.15159  0.48851  1.0000
  H   H434      1.0  0.05059  0.57632  0.21318  1.0000
  C   C270      1.0  0.95807  0.61840  0.03072  1.0000
  H   H435      1.0  0.96438  0.64076  0.87203  1.0000
  H   H436      1.0  0.04789  0.64239  0.08468  1.0000
  H   H437      1.0  0.85621  0.16609  0.77518  1.0000
  S   S112      1.0  0.04452  0.62106  0.95803  1.0000
  H   H438      1.0  0.85683  0.56755  0.76759  1.0000
  C   C271      1.0  0.84074  0.15058  0.74538  1.0000
  H   H439      1.0  0.94327  0.59765  0.05355  1.0000
  C   C272      1.0  0.86287  0.59059  0.73690  1.0000
  C   C273      1.0  0.00695  0.63434  0.98113  1.0000
  C   C274      1.0  0.87538  0.62527  0.75868  1.0000
  H   H440      1.0  0.01483  0.60904  0.79325  1.0000
  H   H441      1.0  0.87959  0.62835  0.80580  1.0000
  H   H442      1.0  0.99594  0.57849  0.01844  1.0000
  C   C275      1.0  0.98782  0.60757  0.01079  1.0000
  H   H443      1.0  0.92620  0.62205  0.17216  1.0000
  H   H444      1.0  0.02627  0.60646  0.16784  1.0000
  H   H445      1.0  0.95771  0.60574  0.81445  1.0000
  H   H446      1.0  0.02062  0.64649  0.84721  1.0000
  C   C276      1.0  0.05023  0.60332  0.18638  1.0000
  H   H447      1.0  0.06986  0.54128  0.12556  1.0000
  C   C277      1.0  0.01412  0.64086  0.79998  1.0000
  H   H448      1.0  0.04484  0.56998  0.07871  1.0000
  C   C278      1.0  0.95914  0.63725  0.82374  1.0000
  C   C279      1.0  0.06836  0.56878  0.09981  1.0000
  C   C280      1.0  0.07180  0.63833  0.10300  1.0000
  C   C281      1.0  0.06818  0.20713  0.14801  1.0000
  C   C282      1.0  0.02906  0.15977  0.17774  1.0000
  H   H449      1.0  0.91028  0.14969  0.76661  1.0000
  C   C283      1.0  0.05505  0.15367  0.08245  1.0000
  C   C284      1.0  0.04619  0.19352  0.18913  1.0000
  C   C285      1.0  0.07207  0.18769  0.09387  1.0000
  H   H450      1.0  0.97549  0.61828  0.71167  1.0000
  C   C286      1.0  0.87854  0.65022  0.65802  1.0000
  H   H451      1.0  0.96528  0.69748  0.26475  1.0000
  C   C287      1.0  0.06344  0.70939  0.24504  1.0000
  H   H452      1.0  0.92429  0.70788  0.27153  1.0000
  S   S113      1.0  0.03546  0.68929  0.29361  1.0000
  C   C288      1.0  0.94259  0.68639  0.28268  1.0000
  H   H453      1.0  0.99313  0.66394  0.69257  1.0000
  H   H454      1.0  0.94495  0.68539  0.33217  1.0000
  H   H455      1.0  0.06854  0.10681  0.34352  1.0000
  H   H456      1.0  0.93726  0.09199  0.68035  1.0000
  H   H457      1.0  0.83141  0.12860  0.59881  1.0000
  H   H458      1.0  0.89043  0.10892  0.25415  1.0000
  H   H459      1.0  0.91964  0.07240  0.25927  1.0000
  H   H460      1.0  0.88464  0.67325  0.62735  1.0000
  H   H461      1.0  0.91515  0.05031  0.70453  1.0000
  H   H462      1.0  0.05340  0.11790  0.27098  1.0000
  C   C289      1.0  0.90250  0.08589  0.22838  1.0000
  C   C290      1.0  0.82652  0.13022  0.64582  1.0000
  H   H463      1.0  0.88469  0.06362  0.21635  1.0000
  H   H464      1.0  0.88530  0.65376  0.27237  1.0000
  H   H465      1.0  0.95906  0.11910  0.22330  1.0000
  H   H466      1.0  0.89647  0.09612  0.69675  1.0000
  S   S114      1.0  0.89723  0.69953  0.74638  1.0000
  Fe  Fe58      1.0  0.88484  0.70268  0.97185  1.0000
  H   H467      1.0  0.02904  0.73435  0.18664  1.0000
  S   S115      1.0  0.90993  0.74206  0.90788  1.0000
  H   H468      1.0  0.95810  0.71139  0.98208  1.0000
  H   H469      1.0  0.01049  0.69232  0.94686  1.0000
  C   C291      1.0  0.96615  0.68231  0.98951  1.0000
  H   H470      1.0  0.00091  0.71404  0.77117  1.0000
  S   S116      1.0  0.84623  0.74422  0.99193  1.0000
  H   H471      1.0  0.91755  0.04803  0.12664  1.0000
  H   H472      1.0  0.90442  0.08551  0.86033  1.0000
  H   H473      1.0  0.01084  0.84588  0.96007  1.0000
  S   S117      1.0  0.90951  0.66857  0.04297  1.0000
  H   H474      1.0  0.93691  0.14107  0.82711  1.0000
  C   C292      1.0  0.99609  0.67170  0.97056  1.0000
  C   C293      1.0  0.97572  0.64965  0.72237  1.0000
  C   C294      1.0  0.89968  0.07892  0.81257  1.0000
  N   N29       1.0  0.96930  0.87478  0.93086  1.0000
  S   S118      1.0  0.85794  0.67101  0.90099  1.0000
  H   H475      1.0  0.96724  0.90321  0.84561  1.0000
  C   C295      1.0  0.06911  0.84875  0.90144  1.0000
  C   C296      1.0  0.94708  0.65567  0.01952  1.0000
  Fe  Fe59      1.0  0.87993  0.71369  0.83834  1.0000
  H   H476      1.0  0.94703  0.08193  0.10275  1.0000
  H   H477      1.0  0.93250  0.88665  0.99362  1.0000
  Fe  Fe60      1.0  0.07239  0.00513  0.97255  1.0000
  N   N30       1.0  0.91806  0.10183  0.17471  1.0000
  H   H478      1.0  0.95165  0.03863  0.78664  1.0000
  H   H479      1.0  0.00539  0.89288  0.99181  1.0000
  Fe  Fe61      1.0  0.86904  0.78117  0.92214  1.0000
  H   H480      1.0  0.98760  0.70477  0.84593  1.0000
  H   H481      1.0  0.95384  0.14372  0.15368  1.0000
  C   C297      1.0  0.98288  0.69856  0.79807  1.0000
  H   H482      1.0  0.05843  0.13853  0.04092  1.0000
  H   H483      1.0  0.91344  0.67092  0.17871  1.0000
  H   H484      1.0  0.90538  0.13308  0.09535  1.0000
  H   H485      1.0  0.89516  0.04731  0.80911  1.0000
  C   C298      1.0  0.95458  0.07041  0.79185  1.0000
  C   C299      1.0  0.83924  0.90927  0.94321  1.0000
  S   S119      1.0  0.01663  0.09374  0.11652  1.0000
  C   C300      1.0  0.89440  0.11947  0.13527  1.0000
  H   H486      1.0  0.88101  0.14227  0.15886  1.0000
  C   C301      1.0  0.98465  0.89389  0.87953  1.0000
  Fe  Fe62      1.0  0.03309  0.06682  0.03121  1.0000
  Fe  Fe63      1.0  0.00764  0.02224  0.92609  1.0000
  H   H487      1.0  0.93640  0.84389  0.87599  1.0000
  S   S120      1.0  0.96422  0.99311  0.89127  1.0000
  C   C302      1.0  0.99291  0.86618  0.97709  1.0000
  C   C303      1.0  0.05367  0.72937  0.19408  1.0000
  C   C304      1.0  0.03420  0.13915  0.12525  1.0000
  S   S121      1.0  0.87555  0.84455  0.93980  1.0000
  C   C305      1.0  0.84054  0.86985  0.92971  1.0000
  S   S122      1.0  0.84150  0.75664  0.84594  1.0000
  C   C306      1.0  0.93427  0.07059  0.14250  1.0000
  H   H488      1.0  0.94245  0.82327  0.94833  1.0000
  C   C307      1.0  0.94525  0.90057  0.95591  1.0000
  H   H489      1.0  0.95205  0.05638  0.17120  1.0000
  S   S123      1.0  0.02511  0.00374  0.01549  1.0000
  H   H490      1.0  0.85189  0.00772  0.92465  1.0000
  H   H491      1.0  0.92736  0.90824  0.92183  1.0000
  H   H492      1.0  0.06801  0.75719  0.11239  1.0000
  H   H493      1.0  0.95574  0.92807  0.97238  1.0000
  H   H494      1.0  0.97192  0.81821  0.89166  1.0000
  C   C308      1.0  0.87880  0.04972  0.97379  1.0000
  C   C309      1.0  0.90887  0.06173  0.98974  1.0000
  C   C310      1.0  0.93500  0.04271  0.96719  1.0000
  C   C311      1.0  0.93132  0.01258  0.92644  1.0000
  C   C312      1.0  0.90125  0.99961  0.91162  1.0000
  C   C313      1.0  0.87497  0.01801  0.93576  1.0000
  H   H495      1.0  0.91199  0.08641  0.01838  1.0000
  H   H496      1.0  0.95796  0.05183  0.98091  1.0000
  H   H497      1.0  0.89817  0.97581  0.88087  1.0000
  N   N31       1.0  0.92599  0.09111  0.77393  1.0000
  H   H498      1.0  0.00140  0.87421  0.85721  1.0000
  C   C314      1.0  0.94114  0.13149  0.19291  1.0000
  S   S124      1.0  0.05377  0.80743  0.86731  1.0000
  H   H499      1.0  0.98198  0.85265  0.01711  1.0000
  C   C315      1.0  0.95444  0.83839  0.91077  1.0000
  S   S125      1.0  0.06407  0.72840  0.99369  1.0000
  H   H500      1.0  0.87763  0.09375  0.80021  1.0000
  S   S126      1.0  0.05422  0.01848  0.88089  1.0000
  H   H501      1.0  0.85987  0.92421  0.95935  1.0000
  H   H502      1.0  0.05638  0.88641  0.82899  1.0000
  H   H503      1.0  0.97512  0.07946  0.76458  1.0000
  Fe  Fe64      1.0  0.06057  0.08001  0.90903  1.0000
  H   H504      1.0  0.99786  0.92018  0.89364  1.0000
  S   S127      1.0  0.84685  0.07573  0.00106  1.0000
  H   H505      1.0  0.96049  0.07584  0.83954  1.0000
  S   S128      1.0  0.01204  0.08564  0.94470  1.0000
  H   H506      1.0  0.87717  0.09760  0.11883  1.0000
  H   H507      1.0  0.95984  0.71151  0.78709  1.0000
  C   C316      1.0  0.91846  0.08191  0.71114  1.0000
  H   H508      1.0  0.93554  0.64947  0.81605  1.0000
  C   C317      1.0  0.93127  0.13313  0.78019  1.0000
  C   C318      1.0  0.88278  0.65537  0.71942  1.0000
  H   H509      1.0  0.95430  0.66087  0.17154  1.0000
  N   N32       1.0  0.98295  0.65658  0.78602  1.0000
  C   C319      1.0  0.06695  0.88442  0.87274  1.0000
  H   H510      1.0  0.03262  0.65416  0.77151  1.0000
  H   H511      1.0  0.95091  0.14334  0.75146  1.0000
  C   C320      1.0  0.93214  0.65051  0.19242  1.0000
  H   H512      1.0  0.95234  0.66113  0.71020  1.0000
