data_image0
_chemical_formula_structural       H2SHFeHSCHC2H4C2HC5H3CSH2FeS2NC3HCH2SHCH2SHFeHCSHCH3SCFeHSHC6HSFeHFeHNH2SH2CH2NCH2C2HCHC2SCH8FeH3SHFeS2HC4H4CHCS2FeS2H2FeHC2SFeH2CHCH2NH2FeNC4H10FeH2S2HSCH4C2H2CNHNCSH3S2H2C6H7C2FeSC2SFeNFeCSC6HSH3CHSCHCH3FeSHC2H2SHCFeH3CH3FeCH5SH3CH2SC2HC2H7N2HC2H4C2H2NCH2FeS2HS2C6H2SH5FeCFeH3CHC2SC2HC2SH2FeH2CHC2H5SCHFeCHC3H2SH3NC3H4CH2CH5FeHSH2CFeCHCFeS2C6H4NH2SNH2S2CH5CH2C2H2CHCHCH3FeCS3CHCH2CFeCH2CH3CHFeCHNFeHSH7C3HSC2HNH4CH2S3CH3SCFeCH2FeH2CH2CSHFeCHCH2CSH2C3HSCFeHCHCHCHSCNCH3SHSH3CHSCH6C2SHFeC2SH3CHCNC2SH2NH2CHC2HSCH3CSCH2CFeH5FeS2H4CSCHC2NH3SC3HFeH3CHCH2CSC3NH2CSCH4CHC4SCH4FeCHCFeC2Fe2SH3SCH2CH3CHSH2C4HCHC2HSCH2SH3CHFeS3NHCFeH2CH2SC2HCH2C2H8NCHC2H2FeHSCH3SC3FeCHSHCHC2H2C2HCHSCHCHSH2CHFeHCNSHSHSHSH2FeCSCH4CHCH7CHSHSFeS2HCSH2C5H4CSHCFeNCHCSCHCSNCHC3HCH3FeCHSH2FeCHCHCHC2H2CH5FeH2C2SCSCH6CH2SHFeS2HC7H3CHSNSH2C3HCHCNSFeH2CSHCSH2FeH3FeSFeHSH2SFeCHCH2FeHCHCH3CFeS2HNHFeHC6FeH4SHFeH2CS2HCH2FeCSH4C2HC2HCHSCSCFeSH2C3HCH2CFeSCH4C4H3S3NHFeH2SCH3CH3CHNCHC2HSCH4CH2NH3CH2C2HFeCFeHSCFeS2HSHC6H4SH2CH2C2H2C2H3CH2C4H3SHSHSCH3CHC2NHFeSHFeH3CFeS2C6H2C2HFeCSH3SC2HSH2NSCNH3CH4CH3FeH6CHSH2CH6C2H3CSCSFeCFeH7S3H2SH2C3H3NC2HCH2FeCFeSC2SHCHCFeCS2HC3HSHCH2SHC3HSH3CS2CHCHCH2SH5SCH2CFeNC3HCH2C3HCH2CH3NHCFeH2CHCSFeHCHCH5CH3SNCHCH4N2H2C3H5CH2FeHSHCH3SCHNCH5C2HCH2CH2C4H2CHSNFeH4SH2SHCH2CHFeHCH2SH2C2HC2NH2CSHCH4FeS2CSH2SHCHNCH2SC2SHCHSFeC3HC3H4FeCH3C2NH4FeCHCHCH2CHCH2CHC4SHC3SH4S2C3FeSFeCH4C2HNH4FeHSCHSHFeH2NSH4CH2CH4CH2
_chemical_formula_sum              "H768 S192 Fe96 C480 N48"
_cell_length_a       44.6067
_cell_length_b       49.9251
_cell_length_c       23.8235
_cell_angle_alpha    89.8726
_cell_angle_beta     89.7699
_cell_angle_gamma    89.6129

_space_group_name_H-M_alt    "P 1"
_space_group_IT_number       1

loop_
  _space_group_symop_operation_xyz
  'x, y, z'

loop_
  _atom_site_type_symbol
  _atom_site_label
  _atom_site_symmetry_multiplicity
  _atom_site_fract_x
  _atom_site_fract_y
  _atom_site_fract_z
  _atom_site_occupancy
  H   H1        1.0  0.08704  0.10566  0.26568  1.0000
  H   H2        1.0  0.07236  0.98184  0.34044  1.0000
  S   S1        1.0  0.14589  0.97486  0.29872  1.0000
  H   H3        1.0  0.08179  0.08889  0.94293  1.0000
  Fe  Fe1       1.0  0.20483  0.18773  0.96778  1.0000
  H   H4        1.0  0.55751  0.03079  0.83154  1.0000
  S   S2        1.0  0.21650  0.16648  0.88754  1.0000
  C   C1        1.0  0.07597  0.11140  0.22710  1.0000
  H   H5        1.0  0.19607  0.98892  0.94289  1.0000
  C   C2        1.0  0.14618  0.06007  0.99087  1.0000
  C   C3        1.0  0.13819  0.19459  0.16094  1.0000
  H   H6        1.0  0.25538  0.10526  0.84925  1.0000
  H   H7        1.0  0.26516  0.08746  0.13934  1.0000
  H   H8        1.0  0.27931  0.01336  0.91431  1.0000
  H   H9        1.0  0.08134  0.20005  0.19868  1.0000
  C   C4        1.0  0.38922  0.12358  0.84162  1.0000
  C   C5        1.0  0.09006  0.10682  0.17543  1.0000
  H   H10       1.0  0.16371  0.04635  0.97351  1.0000
  C   C6        1.0  0.08257  0.16567  0.93121  1.0000
  C   C7        1.0  0.11124  0.15476  0.92448  1.0000
  C   C8        1.0  0.13654  0.17012  0.93638  1.0000
  C   C9        1.0  0.13329  0.19687  0.95281  1.0000
  C   C10       1.0  0.10463  0.20836  0.95609  1.0000
  H   H11       1.0  0.11381  0.13422  0.91141  1.0000
  H   H12       1.0  0.15845  0.16098  0.93390  1.0000
  H   H13       1.0  0.50234  0.04025  0.90634  1.0000
  C   C11       1.0  0.27389  0.03308  0.89908  1.0000
  S   S3        1.0  0.25134  0.20231  0.98374  1.0000
  H   H14       1.0  0.12124  0.22194  0.06967  1.0000
  H   H15       1.0  0.39548  0.14347  0.82410  1.0000
  Fe  Fe2       1.0  0.22478  0.13145  0.94455  1.0000
  S   S4        1.0  0.20951  0.15169  0.02358  1.0000
  S   S5        1.0  0.15193  0.01805  0.16324  1.0000
  N   N1        1.0  0.11032  0.19083  0.12865  1.0000
  C   C12       1.0  0.55106  0.06244  0.12974  1.0000
  C   C13       1.0  0.11488  0.16890  0.08785  1.0000
  C   C14       1.0  0.09955  0.08355  0.97386  1.0000
  H   H16       1.0  0.15731  0.19967  0.13269  1.0000
  C   C15       1.0  0.29304  0.04591  0.86115  1.0000
  H   H17       1.0  0.12455  0.02523  0.91618  1.0000
  H   H18       1.0  0.15271  0.06421  0.87920  1.0000
  S   S6        1.0  0.29763  0.19420  0.84921  1.0000
  H   H19       1.0  0.52344  0.06571  0.86989  1.0000
  C   C16       1.0  0.28587  0.07168  0.84200  1.0000
  H   H20       1.0  0.21473  0.02707  0.05597  1.0000
  H   H21       1.0  0.24036  0.09635  0.08299  1.0000
  S   S7        1.0  0.28560  0.16253  0.10874  1.0000
  H   H22       1.0  0.08980  0.04271  0.90281  1.0000
  Fe  Fe3       1.0  0.26366  0.17769  0.90856  1.0000
  H   H23       1.0  0.12103  0.14982  0.10928  1.0000
  C   C17       1.0  0.26919  0.05010  0.05863  1.0000
  S   S8        1.0  0.14374  0.98951  0.01447  1.0000
  H   H24       1.0  0.11811  0.08208  0.86651  1.0000
  C   C18       1.0  0.52207  0.05369  0.90926  1.0000
  H   H25       1.0  0.29125  0.05367  0.07878  1.0000
  H   H26       1.0  0.26901  0.03990  0.17017  1.0000
  H   H27       1.0  0.08827  0.07441  0.01088  1.0000
  S   S9        1.0  0.08793  0.03234  0.10036  1.0000
  C   C19       1.0  0.26043  0.08504  0.86291  1.0000
  Fe  Fe4       1.0  0.12278  0.99990  0.09729  1.0000
  H   H28       1.0  0.23275  0.03561  0.94640  1.0000
  S   S10       1.0  0.21083  0.08916  0.93043  1.0000
  H   H29       1.0  0.08624  0.10978  0.08565  1.0000
  C   C20       1.0  0.10793  0.03964  0.93414  1.0000
  C   C21       1.0  0.24130  0.07205  0.90070  1.0000
  C   C22       1.0  0.13547  0.07756  0.89866  1.0000
  C   C23       1.0  0.08558  0.18394  0.16743  1.0000
  C   C24       1.0  0.20264  0.98257  0.98454  1.0000
  C   C25       1.0  0.31783  0.14393  0.09147  1.0000
  H   H30       1.0  0.21220  0.06120  0.03319  1.0000
  S   S11       1.0  0.12545  0.09188  0.17259  1.0000
  Fe  Fe5       1.0  0.25748  0.16393  0.03117  1.0000
  H   H31       1.0  0.14695  0.09666  0.90887  1.0000
  Fe  Fe6       1.0  0.11531  0.04827  0.17096  1.0000
  H   H32       1.0  0.34109  0.15323  0.81178  1.0000
  N   N2        1.0  0.12225  0.06521  0.94940  1.0000
  H   H33       1.0  0.29301  0.11108  0.05695  1.0000
  H   H34       1.0  0.40725  0.11729  0.87124  1.0000
  S   S12       1.0  0.27330  0.14042  0.95697  1.0000
  H   H35       1.0  0.13337  0.17352  0.05803  1.0000
  H   H36       1.0  0.19601  0.05143  0.09910  1.0000
  C   C26       1.0  0.24759  0.04580  0.91754  1.0000
  H   H37       1.0  0.14444  0.17599  0.18421  1.0000
  H   H38       1.0  0.26960  0.02927  0.04172  1.0000
  N   N3        1.0  0.24413  0.05402  0.09870  1.0000
  C   C27       1.0  0.31497  0.11926  0.06435  1.0000
  H   H39       1.0  0.22522  0.08563  0.14916  1.0000
  H   H40       1.0  0.22890  0.03738  0.17713  1.0000
  C   C28       1.0  0.10275  0.21583  0.09838  1.0000
  C   C29       1.0  0.07927  0.19262  0.94605  1.0000
  H   H41       1.0  0.09787  0.02966  0.97153  1.0000
  C   C30       1.0  0.50641  0.21930  0.00874  1.0000
  H   H42       1.0  0.28871  0.22004  0.15515  1.0000
  C   C31       1.0  0.21549  0.04818  0.07053  1.0000
  C   C32       1.0  0.24797  0.03569  0.14699  1.0000
  S   S13       1.0  0.09026  0.02599  0.23763  1.0000
  C   C33       1.0  0.24374  0.08208  0.11849  1.0000
  H   H43       1.0  0.52836  0.00884  0.97072  1.0000
  H   H44       1.0  0.24919  0.01441  0.13309  1.0000
  H   H45       1.0  0.36952  0.09109  0.92374  1.0000
  H   H46       1.0  0.26733  0.06403  0.02222  1.0000
  H   H47       1.0  0.31394  0.13418  0.84997  1.0000
  H   H48       1.0  0.10983  0.10259  0.98810  1.0000
  H   H49       1.0  0.33033  0.09807  0.91474  1.0000
  H   H50       1.0  0.32043  0.18884  0.96139  1.0000
  Fe  Fe7       1.0  0.06617  0.00689  0.16600  1.0000
  H   H51       1.0  0.38296  0.03197  0.15247  1.0000
  H   H52       1.0  0.35161  0.08268  0.85925  1.0000
  H   H53       1.0  0.30021  0.08142  0.81169  1.0000
  S   S14       1.0  0.34280  0.00149  0.98564  1.0000
  H   H54       1.0  0.39563  0.01366  0.09210  1.0000
  Fe  Fe8       1.0  0.44398  0.11978  0.04066  1.0000
  S   S15       1.0  0.40014  0.09955  0.02509  1.0000
  S   S16       1.0  0.45853  0.13271  0.12611  1.0000
  H   H55       1.0  0.36455  0.16510  0.90023  1.0000
  C   C34       1.0  0.34640  0.15441  0.10102  1.0000
  C   C35       1.0  0.37200  0.14064  0.08170  1.0000
  C   C36       1.0  0.36896  0.11621  0.05366  1.0000
  C   C37       1.0  0.34047  0.10536  0.04573  1.0000
  H   H56       1.0  0.38910  0.10894  0.80644  1.0000
  H   H57       1.0  0.34872  0.17358  0.12160  1.0000
  H   H58       1.0  0.39398  0.14921  0.08757  1.0000
  H   H59       1.0  0.33805  0.08647  0.02405  1.0000
  C   C38       1.0  0.07554  0.11366  0.12557  1.0000
  H   H60       1.0  0.08227  0.21339  0.07233  1.0000
  C   C39       1.0  0.33646  0.13303  0.82967  1.0000
  S   S17       1.0  0.48403  0.09384  0.02570  1.0000
  S   S18       1.0  0.46332  0.15468  0.99383  1.0000
  Fe  Fe9       1.0  0.50539  0.12973  0.98785  1.0000
  S   S19       1.0  0.51863  0.07598  0.16110  1.0000
  S   S20       1.0  0.32647  0.03027  0.83944  1.0000
  H   H61       1.0  0.06423  0.18073  0.14447  1.0000
  H   H62       1.0  0.09058  0.16521  0.19112  1.0000
  Fe  Fe10      1.0  0.48135  0.16599  0.07889  1.0000
  H   H63       1.0  0.45455  0.06835  0.17337  1.0000
  C   C40       1.0  0.32732  0.20800  0.94476  1.0000
  C   C41       1.0  0.36100  0.14442  0.91639  1.0000
  S   S21       1.0  0.48301  0.20828  0.11163  1.0000
  Fe  Fe11      1.0  0.33527  0.99439  0.89394  1.0000
  H   H64       1.0  0.29721  0.21931  0.08172  1.0000
  H   H65       1.0  0.15742  0.07896  0.00341  1.0000
  C   C42       1.0  0.18100  0.97999  0.02690  1.0000
  H   H66       1.0  0.34869  0.21991  0.02144  1.0000
  C   C43       1.0  0.35247  0.09803  0.89300  1.0000
  H   H67       1.0  0.37960  0.13981  0.94590  1.0000
  H   H68       1.0  0.09429  0.16529  0.06267  1.0000
  N   N4        1.0  0.35978  0.12476  0.87019  1.0000
  H   H69       1.0  0.13722  0.05051  0.02954  1.0000
  H   H70       1.0  0.38908  0.04898  0.08685  1.0000
  Fe  Fe12      1.0  0.50029  0.10912  0.10755  1.0000
  N   N5        1.0  0.42933  0.03796  0.13093  1.0000
  C   C44       1.0  0.44032  0.01608  0.16750  1.0000
  C   C45       1.0  0.44821  0.03916  0.07994  1.0000
  C   C46       1.0  0.43108  0.06374  0.16107  1.0000
  C   C47       1.0  0.39785  0.03292  0.11501  1.0000
  H   H71       1.0  0.43926  0.99637  0.14566  1.0000
  H   H72       1.0  0.42675  0.01454  0.20662  1.0000
  H   H73       1.0  0.46412  0.01937  0.17980  1.0000
  H   H74       1.0  0.44868  0.01973  0.05748  1.0000
  H   H75       1.0  0.43951  0.05435  0.04984  1.0000
  H   H76       1.0  0.47183  0.04420  0.09038  1.0000
  H   H77       1.0  0.41724  0.06361  0.19999  1.0000
  H   H78       1.0  0.42295  0.08060  0.13438  1.0000
  H   H79       1.0  0.49780  0.20016  0.99634  1.0000
  H   H80       1.0  0.54527  0.19351  0.12278  1.0000
  Fe  Fe13      1.0  0.12450  0.99367  0.22322  1.0000
  H   H81       1.0  0.53674  0.17760  0.94237  1.0000
  H   H82       1.0  0.51778  0.06810  0.94371  1.0000
  S   S22       1.0  0.52481  0.14353  0.06910  1.0000
  S   S23       1.0  0.16478  0.21496  0.97444  1.0000
  H   H83       1.0  0.33987  0.14455  0.94127  1.0000
  S   S24       1.0  0.53711  0.12200  0.91617  1.0000
  C   C48       1.0  0.31989  0.21533  0.88976  1.0000
  H   H84       1.0  0.54337  0.03673  0.00870  1.0000
  H   H85       1.0  0.13567  0.21100  0.19217  1.0000
  H   H86       1.0  0.33491  0.11874  0.79407  1.0000
  H   H87       1.0  0.54519  0.02331  0.16631  1.0000
  C   C49       1.0  0.23303  0.97797  0.99670  1.0000
  C   C50       1.0  0.54729  0.02319  0.97227  1.0000
  H   H88       1.0  0.24970  0.98073  0.96441  1.0000
  H   H89       1.0  0.53623  0.00556  0.86763  1.0000
  C   C51       1.0  0.55512  0.01986  0.87202  1.0000
  N   N6        1.0  0.55002  0.03846  0.91928  1.0000
  H   H90       1.0  0.55730  0.21700  0.17420  1.0000
  N   N7        1.0  0.25194  0.41020  0.68445  1.0000
  C   C52       1.0  0.49208  0.40716  0.62258  1.0000
  S   S25       1.0  0.55783  0.40494  0.48114  1.0000
  H   H91       1.0  0.50664  0.35459  0.70944  1.0000
  H   H92       1.0  0.21367  0.39046  0.72082  1.0000
  H   H93       1.0  0.20471  0.41562  0.66947  1.0000
  S   S26       1.0  0.35949  0.46981  0.50421  1.0000
  S   S27       1.0  0.29062  0.42128  0.52350  1.0000
  H   H94       1.0  0.55676  0.46740  0.28700  1.0000
  H   H95       1.0  0.47945  0.35651  0.65381  1.0000
  C   C53       1.0  0.24873  0.45022  0.36003  1.0000
  C   C54       1.0  0.27988  0.45082  0.36676  1.0000
  C   C55       1.0  0.29288  0.44201  0.41705  1.0000
  C   C56       1.0  0.27474  0.43233  0.46043  1.0000
  C   C57       1.0  0.24358  0.43164  0.45366  1.0000
  C   C58       1.0  0.23055  0.44069  0.40352  1.0000
  H   H96       1.0  0.29401  0.45810  0.33306  1.0000
  H   H97       1.0  0.22951  0.42403  0.48709  1.0000
  H   H98       1.0  0.20652  0.43984  0.39823  1.0000
  H   H99       1.0  0.41656  0.34818  0.74086  1.0000
  H   H100      1.0  0.21672  0.42514  0.73843  1.0000
  H   H101      1.0  0.47729  0.39619  0.59310  1.0000
  H   H102      1.0  0.31303  0.35953  0.66972  1.0000
  C   C59       1.0  0.33554  0.35737  0.68557  1.0000
  C   C60       1.0  0.27186  0.40338  0.73190  1.0000
  Fe  Fe14      1.0  0.11927  0.45916  0.33489  1.0000
  S   S28       1.0  0.37951  0.40570  0.50028  1.0000
  C   C61       1.0  0.41239  0.45473  0.73575  1.0000
  C   C62       1.0  0.22042  0.41038  0.70403  1.0000
  S   S29       1.0  0.14824  0.44648  0.26215  1.0000
  Fe  Fe15      1.0  0.33978  0.43025  0.52900  1.0000
  N   N8        1.0  0.51157  0.38848  0.65426  1.0000
  Fe  Fe16      1.0  0.40093  0.44569  0.48450  1.0000
  C   C63       1.0  0.52930  0.40367  0.69552  1.0000
  S   S30       1.0  0.42072  0.44987  0.57029  1.0000
  C   C64       1.0  0.46741  0.44053  0.42966  1.0000
  C   C65       1.0  0.49392  0.45165  0.40873  1.0000
  C   C66       1.0  0.52188  0.44059  0.42349  1.0000
  C   C67       1.0  0.52327  0.41813  0.45860  1.0000
  C   C68       1.0  0.49669  0.40641  0.47762  1.0000
  C   C69       1.0  0.46883  0.41779  0.46395  1.0000
  H   H103      1.0  0.54418  0.39017  0.72040  1.0000
  S   S31       1.0  0.43265  0.45561  0.41461  1.0000
  H   H104      1.0  0.49765  0.38840  0.50270  1.0000
  H   H105      1.0  0.44843  0.40875  0.47939  1.0000
  H   H106      1.0  0.27918  0.38958  0.62347  1.0000
  C   C70       1.0  0.25572  0.39000  0.63963  1.0000
  H   H107      1.0  0.54232  0.44968  0.40867  1.0000
  S   S32       1.0  0.35496  0.43243  0.61810  1.0000
  C   C71       1.0  0.38902  0.36385  0.67449  1.0000
  H   H108      1.0  0.24110  0.39451  0.60295  1.0000
  C   C72       1.0  0.53211  0.37450  0.61512  1.0000
  H   H109      1.0  0.51958  0.36342  0.58232  1.0000
  H   H110      1.0  0.31698  0.44232  0.42185  1.0000
  H   H111      1.0  0.35610  0.37484  0.61244  1.0000
  Fe  Fe17      1.0  0.39649  0.41179  0.58759  1.0000
  S   S33       1.0  0.41833  0.38071  0.64135  1.0000
  H   H112      1.0  0.40278  0.45241  0.69311  1.0000
  C   C73       1.0  0.35991  0.36607  0.65333  1.0000
  C   C74       1.0  0.49279  0.36861  0.68382  1.0000
  H   H113      1.0  0.54372  0.41885  0.67457  1.0000
  H   H114      1.0  0.24554  0.44243  0.62548  1.0000
  S   S34       1.0  0.08844  0.43266  0.38439  1.0000
  H   H115      1.0  0.47702  0.41869  0.65106  1.0000
  C   C75       1.0  0.34029  0.34682  0.73915  1.0000
  Fe  Fe18      1.0  0.18384  0.47104  0.30313  1.0000
  H   H116      1.0  0.47658  0.37853  0.71285  1.0000
  H   H117      1.0  0.25036  0.36949  0.65492  1.0000
  H   H118      1.0  0.25690  0.45284  0.69438  1.0000
  C   C76       1.0  0.25978  0.43693  0.66211  1.0000
  H   H119      1.0  0.51454  0.41429  0.72613  1.0000
  H   H120      1.0  0.50548  0.42164  0.59737  1.0000
  H   H121      1.0  0.29585  0.40322  0.71881  1.0000
  Fe  Fe19      1.0  0.37737  0.47006  0.59168  1.0000
  C   C77       1.0  0.39399  0.35089  0.72559  1.0000
  H   H122      1.0  0.54706  0.38887  0.59299  1.0000
  H   H123      1.0  0.28345  0.43746  0.64707  1.0000
  H   H124      1.0  0.54673  0.35988  0.63750  1.0000
  H   H125      1.0  0.43329  0.44242  0.73735  1.0000
  H   H126      1.0  0.49273  0.46928  0.38253  1.0000
  S   S35       1.0  0.23299  0.46176  0.29718  1.0000
  H   H127      1.0  0.51914  0.43285  0.30343  1.0000
  H   H128      1.0  0.35257  0.46121  0.73374  1.0000
  H   H129      1.0  0.37168  0.41476  0.73031  1.0000
  C   C78       1.0  0.51777  0.43004  0.25718  1.0000
  H   H130      1.0  0.06597  0.44584  0.27414  1.0000
  H   H131      1.0  0.26688  0.38309  0.74900  1.0000
  S   S36       1.0  0.08235  0.29318  0.84432  1.0000
  C   C79       1.0  0.28812  0.27156  0.06145  1.0000
  C   C80       1.0  0.40446  0.44982  0.83551  1.0000
  H   H132      1.0  0.18028  0.24642  0.86034  1.0000
  C   C81       1.0  0.16089  0.29543  0.82868  1.0000
  C   C82       1.0  0.50166  0.22870  0.06308  1.0000
  H   H133      1.0  0.14704  0.27913  0.81051  1.0000
  H   H134      1.0  0.48906  0.28253  0.89602  1.0000
  H   H135      1.0  0.33062  0.25213  0.17296  1.0000
  H   H136      1.0  0.15687  0.27471  0.96451  1.0000
  H   H137      1.0  0.14605  0.31339  0.83232  1.0000
  H   H138      1.0  0.13292  0.29822  0.92854  1.0000
  H   H139      1.0  0.20114  0.46258  0.19058  1.0000
  N   N9        1.0  0.17329  0.28758  0.88382  1.0000
  N   N10       1.0  0.52417  0.45521  0.22670  1.0000
  H   H140      1.0  0.33968  0.24846  0.10029  1.0000
  C   C83       1.0  0.11193  0.45868  0.10558  1.0000
  C   C84       1.0  0.14843  0.28093  0.92256  1.0000
  H   H141      1.0  0.40321  0.40496  0.77138  1.0000
  H   H142      1.0  0.13475  0.26408  0.90611  1.0000
  H   H143      1.0  0.24462  0.45450  0.05858  1.0000
  H   H144      1.0  0.17895  0.30031  0.79806  1.0000
  C   C85       1.0  0.19080  0.31003  0.90695  1.0000
  C   C86       1.0  0.19297  0.26384  0.87694  1.0000
  H   H145      1.0  0.20274  0.25738  0.91776  1.0000
  H   H146      1.0  0.17669  0.32835  0.91221  1.0000
  N   N11       1.0  0.21745  0.43740  0.12405  1.0000
  C   C87       1.0  0.52980  0.26891  0.04001  1.0000
  H   H147      1.0  0.33425  0.28127  0.12869  1.0000
  H   H148      1.0  0.36750  0.41064  0.80472  1.0000
  Fe  Fe20      1.0  0.12056  0.38648  0.84418  1.0000
  S   S37       1.0  0.16726  0.39732  0.81919  1.0000
  S   S38       1.0  0.11481  0.35606  0.91270  1.0000
  H   H149      1.0  0.26257  0.44126  0.15452  1.0000
  S   S39       1.0  0.53286  0.35010  0.96647  1.0000
  S   S40       1.0  0.24960  0.36547  0.02360  1.0000
  C   C88       1.0  0.19012  0.38910  0.87615  1.0000
  C   C89       1.0  0.21867  0.37842  0.86658  1.0000
  C   C90       1.0  0.23647  0.37046  0.91192  1.0000
  C   C91       1.0  0.22614  0.37369  0.96705  1.0000
  C   C92       1.0  0.19734  0.38402  0.97661  1.0000
  C   C93       1.0  0.17936  0.39178  0.93116  1.0000
  H   H150      1.0  0.22678  0.37568  0.82416  1.0000
  H   H151      1.0  0.25807  0.36151  0.90379  1.0000
  S   S41       1.0  0.29927  0.31799  0.93709  1.0000
  H   H152      1.0  0.15726  0.40011  0.93868  1.0000
  H   H153      1.0  0.10188  0.22917  0.96774  1.0000
  H   H154      1.0  0.10854  0.42264  0.98508  1.0000
  H   H155      1.0  0.07157  0.46730  0.95471  1.0000
  H   H156      1.0  0.20679  0.44693  0.03828  1.0000
  Fe  Fe21      1.0  0.29468  0.35592  0.98628  1.0000
  C   C94       1.0  0.24332  0.42722  0.15657  1.0000
  Fe  Fe22      1.0  0.08271  0.33759  0.85307  1.0000
  H   H157      1.0  0.18890  0.38613  0.01891  1.0000
  H   H158      1.0  0.25164  0.27251  0.15114  1.0000
  H   H159      1.0  0.23745  0.42469  0.20180  1.0000
  C   C95       1.0  0.10390  0.42843  0.02781  1.0000
  H   H160      1.0  0.53415  0.41396  0.24575  1.0000
  C   C96       1.0  0.08370  0.41374  0.06041  1.0000
  C   C97       1.0  0.55458  0.46435  0.24111  1.0000
  S   S42       1.0  0.09077  0.36613  0.78207  1.0000
  C   C98       1.0  0.11758  0.45119  0.05003  1.0000
  C   C99       1.0  0.36956  0.34255  0.75812  1.0000
  H   H161      1.0  0.20033  0.30497  0.94877  1.0000
  C   C100      1.0  0.53536  0.25871  0.98622  1.0000
  C   C101      1.0  0.09314  0.44312  0.13933  1.0000
  S   S43       1.0  0.08502  0.41421  0.87735  1.0000
  H   H162      1.0  0.42844  0.30848  0.86663  1.0000
  H   H163      1.0  0.52683  0.22667  0.92842  1.0000
  Fe  Fe23      1.0  0.07595  0.38149  0.93990  1.0000
  H   H164      1.0  0.29605  0.29267  0.06047  1.0000
  H   H165      1.0  0.08891  0.44884  0.18239  1.0000
  C   C102      1.0  0.19225  0.41848  0.12950  1.0000
  H   H166      1.0  0.49490  0.42255  0.24773  1.0000
  C   C103      1.0  0.07874  0.42078  0.11656  1.0000
  C   C104      1.0  0.38289  0.41801  0.77126  1.0000
  H   H167      1.0  0.20982  0.31547  0.87881  1.0000
  H   H168      1.0  0.23383  0.42049  0.04682  1.0000
  H   H169      1.0  0.52782  0.46879  0.14117  1.0000
  H   H170      1.0  0.17232  0.42545  0.10535  1.0000
  H   H171      1.0  0.21187  0.26790  0.84754  1.0000
  S   S44       1.0  0.06267  0.38818  0.02993  1.0000
  C   C105      1.0  0.32837  0.24037  0.86896  1.0000
  H   H172      1.0  0.42576  0.43820  0.83920  1.0000
  Fe  Fe24      1.0  0.54458  0.36765  0.88289  1.0000
  C   C106      1.0  0.34990  0.25140  0.95934  1.0000
  H   H173      1.0  0.50915  0.26118  0.12078  1.0000
  C   C107      1.0  0.32589  0.26030  0.13040  1.0000
  C   C108      1.0  0.51289  0.25379  0.07864  1.0000
  C   C109      1.0  0.52288  0.23437  0.97028  1.0000
  H   H174      1.0  0.40977  0.47117  0.84404  1.0000
  H   H175      1.0  0.34784  0.27848  0.88872  1.0000
  S   S45       1.0  0.36321  0.27556  0.00600  1.0000
  H   H176      1.0  0.25120  0.40743  0.14051  1.0000
  H   H177      1.0  0.49970  0.44369  0.15303  1.0000
  H   H178      1.0  0.49658  0.30270  0.95603  1.0000
  N   N12       1.0  0.44989  0.29514  0.94247  1.0000
  C   C110      1.0  0.44993  0.27127  0.97934  1.0000
  C   C111      1.0  0.43969  0.31876  0.97485  1.0000
  C   C112      1.0  0.34282  0.25863  0.90415  1.0000
  H   H179      1.0  0.53861  0.43454  0.15211  1.0000
  H   H180      1.0  0.41678  0.31573  0.99245  1.0000
  H   H181      1.0  0.43906  0.33714  0.94827  1.0000
  H   H182      1.0  0.19865  0.39821  0.11395  1.0000
  C   C113      1.0  0.48055  0.29983  0.92100  1.0000
  H   H183      1.0  0.45492  0.32292  0.01067  1.0000
  H   H184      1.0  0.46445  0.27425  0.01659  1.0000
  C   C114      1.0  0.52244  0.45040  0.16560  1.0000
  H   H185      1.0  0.42704  0.26674  0.99535  1.0000
  H   H186      1.0  0.53939  0.28785  0.05241  1.0000
  H   H187      1.0  0.48155  0.31804  0.89388  1.0000
  H   H188      1.0  0.32235  0.24620  0.82665  1.0000
  H   H189      1.0  0.40622  0.28654  0.90973  1.0000
  Fe  Fe25      1.0  0.34435  0.31478  0.97752  1.0000
  H   H190      1.0  0.43673  0.27317  0.86919  1.0000
  S   S46       1.0  0.50707  0.37878  0.82515  1.0000
  H   H191      1.0  0.30005  0.26071  0.02727  1.0000
  H   H192      1.0  0.37344  0.33277  0.79763  1.0000
  C   C115      1.0  0.22603  0.43999  0.06430  1.0000
  Fe  Fe26      1.0  0.32251  0.34380  0.87393  1.0000
  C   C116      1.0  0.42944  0.29066  0.89482  1.0000
  H   H193      1.0  0.27962  0.26407  0.20240  1.0000
  C   C117      1.0  0.05950  0.28077  0.89804  1.0000
  Fe  Fe27      1.0  0.35827  0.37314  0.96215  1.0000
  S   S47       1.0  0.39374  0.40399  0.97521  1.0000
  S   S48       1.0  0.36820  0.33698  0.91004  1.0000
  C   C118      1.0  0.42521  0.39721  0.93332  1.0000
  C   C119      1.0  0.45379  0.40411  0.95215  1.0000
  C   C120      1.0  0.47909  0.39839  0.91904  1.0000
  C   C121      1.0  0.47570  0.38645  0.86643  1.0000
  C   C122      1.0  0.44711  0.38009  0.84709  1.0000
  C   C123      1.0  0.42190  0.38517  0.88077  1.0000
  H   H194      1.0  0.45644  0.41349  0.99273  1.0000
  H   H195      1.0  0.50120  0.40351  0.93403  1.0000
  H   H196      1.0  0.44458  0.37090  0.80645  1.0000
  H   H197      1.0  0.39986  0.38040  0.86543  1.0000
  N   N13       1.0  0.29364  0.25889  0.11665  1.0000
  H   H198      1.0  0.18511  0.41624  0.17408  1.0000
  H   H199      1.0  0.38929  0.44274  0.86971  1.0000
  S   S49       1.0  0.33767  0.35025  0.03368  1.0000
  N   N14       1.0  0.39077  0.44645  0.77954  1.0000
  H   H200      1.0  0.28264  0.29461  0.16264  1.0000
  H   H201      1.0  0.45829  0.25317  0.95689  1.0000
  S   S50       1.0  0.30953  0.34126  0.78333  1.0000
  S   S51       1.0  0.31480  0.38235  0.91991  1.0000
  C   C124      1.0  0.27609  0.27314  0.16018  1.0000
  H   H202      1.0  0.06477  0.31518  0.95163  1.0000
  H   H203      1.0  0.26389  0.27163  0.05063  1.0000
  H   H204      1.0  0.13242  0.46307  0.02409  1.0000
  H   H205      1.0  0.09840  0.23268  0.12785  1.0000
  H   H206      1.0  0.06351  0.40923  0.14228  1.0000
  C   C125      1.0  0.36341  0.46323  0.77554  1.0000
  H   H207      1.0  0.26924  0.41787  0.76703  1.0000
  H   H208      1.0  0.34667  0.45765  0.80823  1.0000
  C   C126      1.0  0.20819  0.46389  0.14587  1.0000
  C   C127      1.0  0.34314  0.22571  0.97896  1.0000
  H   H209      1.0  0.26025  0.22845  0.10477  1.0000
  H   H210      1.0  0.18895  0.47233  0.12186  1.0000
  C   C128      1.0  0.28448  0.23052  0.11461  1.0000
  H   H211      1.0  0.47873  0.46965  0.23443  1.0000
  C   C129      1.0  0.13334  0.62259  0.46941  1.0000
  H   H212      1.0  0.35358  0.68016  0.41825  1.0000
  C   C130      1.0  0.20407  0.54115  0.46161  1.0000
  H   H213      1.0  0.36188  0.68457  0.66358  1.0000
  H   H214      1.0  0.20209  0.54571  0.50727  1.0000
  H   H215      1.0  0.33316  0.70001  0.36838  1.0000
  Fe  Fe28      1.0  0.23991  0.58703  0.60780  1.0000
  C   C131      1.0  0.25792  0.54584  0.46442  1.0000
  S   S52       1.0  0.28375  0.62342  0.43124  1.0000
  S   S53       1.0  0.21622  0.60542  0.53377  1.0000
  S   S54       1.0  0.23759  0.54280  0.62449  1.0000
  C   C132      1.0  0.28332  0.50620  0.61736  1.0000
  H   H216      1.0  0.25615  0.51198  0.37629  1.0000
  C   C133      1.0  0.10496  0.61679  0.62222  1.0000
  H   H217      1.0  0.18479  0.52820  0.45036  1.0000
  H   H218      1.0  0.28011  0.53654  0.45504  1.0000
  C   C134      1.0  0.29509  0.54785  0.66372  1.0000
  Fe  Fe29      1.0  0.26076  0.62365  0.51469  1.0000
  C   C135      1.0  0.08693  0.56632  0.31806  1.0000
  H   H219      1.0  0.15341  0.61583  0.62568  1.0000
  H   H220      1.0  0.50349  0.48064  0.28874  1.0000
  C   C136      1.0  0.29878  0.69309  0.68811  1.0000
  H   H221      1.0  0.25741  0.55036  0.51015  1.0000
  H   H222      1.0  0.35504  0.71602  0.42160  1.0000
  H   H223      1.0  0.30752  0.69531  0.59920  1.0000
  C   C137      1.0  0.09985  0.56521  0.37148  1.0000
  H   H224      1.0  0.12237  0.65128  0.34154  1.0000
  Fe  Fe30      1.0  0.47410  0.65241  0.32864  1.0000
  C   C138      1.0  0.16995  0.64470  0.41126  1.0000
  H   H225      1.0  0.21625  0.50901  0.37410  1.0000
  N   N15       1.0  0.23304  0.52800  0.44842  1.0000
  Fe  Fe31      1.0  0.14087  0.51596  0.33279  1.0000
  H   H226      1.0  0.09271  0.57128  0.46006  1.0000
  S   S55       1.0  0.13700  0.55454  0.37944  1.0000
  H   H227      1.0  0.20130  0.56029  0.43809  1.0000
  H   H228      1.0  0.10245  0.59573  0.63178  1.0000
  H   H229      1.0  0.17869  0.62504  0.39611  1.0000
  H   H230      1.0  0.25676  0.56534  0.44165  1.0000
  H   H231      1.0  0.09985  0.56028  0.28162  1.0000
  H   H232      1.0  0.06320  0.67185  0.59068  1.0000
  H   H233      1.0  0.09634  0.63325  0.38463  1.0000
  C   C139      1.0  0.27424  0.53131  0.63726  1.0000
  C   C140      1.0  0.23534  0.50263  0.48021  1.0000
  C   C141      1.0  0.23476  0.52232  0.38761  1.0000
  H   H234      1.0  0.26735  0.49317  0.59742  1.0000
  S   S56       1.0  0.28506  0.60242  0.58359  1.0000
  C   C142      1.0  0.08312  0.57287  0.41851  1.0000
  C   C143      1.0  0.12056  0.63576  0.37492  1.0000
  H   H235      1.0  0.12865  0.61640  0.35707  1.0000
  N   N16       1.0  0.13771  0.64317  0.42549  1.0000
  H   H236      1.0  0.13945  0.60225  0.45395  1.0000
  H   H237      1.0  0.23331  0.50620  0.52614  1.0000
  H   H238      1.0  0.17413  0.65983  0.37783  1.0000
  H   H239      1.0  0.10960  0.62191  0.48409  1.0000
  C   C144      1.0  0.11131  0.67095  0.59506  1.0000
  H   H240      1.0  0.43228  0.68811  0.58205  1.0000
  H   H241      1.0  0.36603  0.69835  0.56399  1.0000
  S   S57       1.0  0.17169  0.66940  0.59063  1.0000
  S   S58       1.0  0.30534  0.65859  0.69248  1.0000
  S   S59       1.0  0.22969  0.62083  0.66722  1.0000
  C   C145      1.0  0.13672  0.65515  0.60400  1.0000
  H   H242      1.0  0.53677  0.56911  0.27901  1.0000
  H   H243      1.0  0.11378  0.69176  0.58390  1.0000
  H   H244      1.0  0.34133  0.55294  0.68744  1.0000
  S   S60       1.0  0.25255  0.66075  0.56472  1.0000
  C   C146      1.0  0.08283  0.65965  0.59816  1.0000
  Fe  Fe32      1.0  0.27298  0.63798  0.63582  1.0000
  C   C147      1.0  0.07959  0.63255  0.61072  1.0000
  H   H245      1.0  0.40357  0.66668  0.60895  1.0000
  H   H246      1.0  0.14753  0.62660  0.50656  1.0000
  Fe  Fe33      1.0  0.21018  0.64071  0.59109  1.0000
  H   H247      1.0  0.18348  0.65045  0.44855  1.0000
  H   H248      1.0  0.12922  0.68540  0.41388  1.0000
  C   C148      1.0  0.12723  0.66951  0.44647  1.0000
  H   H249      1.0  0.10331  0.66898  0.45964  1.0000
  H   H250      1.0  0.14030  0.67598  0.48367  1.0000
  C   C149      1.0  0.13370  0.62812  0.61867  1.0000
  S   S61       1.0  0.51624  0.62764  0.32926  1.0000
  H   H251      1.0  0.41519  0.54864  0.59207  1.0000
  Fe  Fe34      1.0  0.48717  0.59547  0.36573  1.0000
  C   C150      1.0  0.53356  0.51751  0.37225  1.0000
  H   H252      1.0  0.42170  0.55111  0.41296  1.0000
  C   C151      1.0  0.42589  0.55815  0.55471  1.0000
  H   H253      1.0  0.35812  0.67601  0.29070  1.0000
  H   H254      1.0  0.28803  0.56698  0.68061  1.0000
  C   C152      1.0  0.33457  0.51528  0.64550  1.0000
  S   S62       1.0  0.37267  0.50607  0.64636  1.0000
  H   H255      1.0  0.21722  0.48853  0.46835  1.0000
  H   H256      1.0  0.45431  0.55650  0.45464  1.0000
  C   C153      1.0  0.32124  0.62868  0.44914  1.0000
  C   C154      1.0  0.40850  0.69636  0.38814  1.0000
  C   C155      1.0  0.37434  0.62169  0.43263  1.0000
  H   H257      1.0  0.45061  0.55567  0.55875  1.0000
  S   S63       1.0  0.15658  0.47986  0.38012  1.0000
  C   C156      1.0  0.32523  0.53982  0.66796  1.0000
  Fe  Fe35      1.0  0.51966  0.64127  0.41881  1.0000
  H   H258      1.0  0.37576  0.57162  0.49955  1.0000
  C   C157      1.0  0.42954  0.55943  0.45366  1.0000
  H   H259      1.0  0.40909  0.67748  0.41306  1.0000
  C   C158      1.0  0.52427  0.53987  0.34132  1.0000
  H   H260      1.0  0.42080  0.58002  0.55650  1.0000
  C   C159      1.0  0.41696  0.68482  0.61844  1.0000
  H   H261      1.0  0.42878  0.69660  0.36075  1.0000
  S   S64       1.0  0.41783  0.63707  0.50809  1.0000
  C   C160      1.0  0.35449  0.69869  0.39231  1.0000
  N   N17       1.0  0.41490  0.54623  0.50198  1.0000
  C   C161      1.0  0.42217  0.51732  0.50111  1.0000
  H   H262      1.0  0.33944  0.60960  0.37550  1.0000
  H   H263      1.0  0.44682  0.51365  0.50236  1.0000
  H   H264      1.0  0.37928  0.65607  0.33944  1.0000
  S   S65       1.0  0.48744  0.55161  0.34834  1.0000
  H   H265      1.0  0.41197  0.50685  0.53761  1.0000
  S   S66       1.0  0.49401  0.60710  0.45546  1.0000
  H   H266      1.0  0.39189  0.61356  0.40688  1.0000
  H   H267      1.0  0.48715  0.71142  0.34031  1.0000
  H   H268      1.0  0.42509  0.58135  0.45353  1.0000
  C   C162      1.0  0.38204  0.54999  0.49855  1.0000
  H   H269      1.0  0.37040  0.54009  0.53446  1.0000
  S   S67       1.0  0.44463  0.61869  0.35508  1.0000
  C   C163      1.0  0.31347  0.49836  0.62085  1.0000
  H   H270      1.0  0.38777  0.69698  0.71425  1.0000
  H   H271      1.0  0.21464  0.70844  0.63943  1.0000
  H   H272      1.0  0.37295  0.54134  0.45916  1.0000
  H   H273      1.0  0.51867  0.50880  0.40311  1.0000
  H   H274      1.0  0.41381  0.50762  0.46216  1.0000
  H   H275      1.0  0.39611  0.71960  0.54155  1.0000
  C   C164      1.0  0.38091  0.63344  0.48445  1.0000
  C   C165      1.0  0.34451  0.61934  0.41484  1.0000
  S   S68       1.0  0.10137  0.49616  0.29296  1.0000
  H   H276      1.0  0.25718  0.49231  0.47240  1.0000
  Fe  Fe36      1.0  0.45351  0.63289  0.44224  1.0000
  C   C166      1.0  0.54390  0.55176  0.30286  1.0000
  C   C167      1.0  0.37605  0.70209  0.67448  1.0000
  S   S69       1.0  0.47982  0.66865  0.41538  1.0000
  H   H277      1.0  0.31026  0.64836  0.52694  1.0000
  H   H278      1.0  0.06694  0.70681  0.52863  1.0000
  H   H279      1.0  0.36209  0.65103  0.55925  1.0000
  C   C168      1.0  0.32793  0.64077  0.50039  1.0000
  H   H280      1.0  0.23316  0.54102  0.36226  1.0000
  C   C169      1.0  0.29143  0.70749  0.73653  1.0000
  N   N18       1.0  0.38085  0.69849  0.35448  1.0000
  C   C170      1.0  0.30171  0.70645  0.63665  1.0000
  C   C171      1.0  0.35754  0.64268  0.51845  1.0000
  S   S70       1.0  0.17144  0.50927  0.25986  1.0000
  H   H281      1.0  0.41045  0.71335  0.41806  1.0000
  H   H282      1.0  0.43097  0.67991  0.65563  1.0000
  N   N19       1.0  0.39743  0.70835  0.62881  1.0000
  H   H283      1.0  0.32027  0.47940  0.60335  1.0000
  H   H284      1.0  0.39827  0.67484  0.28623  1.0000
  C   C172      1.0  0.37900  0.67535  0.31604  1.0000
  H   H285      1.0  0.16140  0.71374  0.67107  1.0000
  C   C173      1.0  0.49314  0.71878  0.29926  1.0000
  C   C174      1.0  0.38068  0.71510  0.57716  1.0000
  H   H286      1.0  0.36066  0.71927  0.68320  1.0000
  S   S71       1.0  0.45952  0.67804  0.25634  1.0000
  C   C175      1.0  0.38156  0.72356  0.32137  1.0000
  H   H287      1.0  0.41863  0.47617  0.74030  1.0000
  H   H288      1.0  0.40138  0.72397  0.29267  1.0000
  H   H289      1.0  0.54716  0.69755  0.22606  1.0000
  C   C176      1.0  0.50211  0.47604  0.24313  1.0000
  S   S72       1.0  0.12705  0.48834  0.13128  1.0000
  C   C177      1.0  0.48853  0.71719  0.19812  1.0000
  H   H290      1.0  0.36861  0.48488  0.78074  1.0000
  H   H291      1.0  0.47937  0.70808  0.16081  1.0000
  C   C178      1.0  0.48145  0.70684  0.25110  1.0000
  Fe  Fe37      1.0  0.13377  0.48553  0.22415  1.0000
  H   H292      1.0  0.22682  0.47857  0.14374  1.0000
  H   H293      1.0  0.06698  0.49023  0.04631  1.0000
  H   H294      1.0  0.28924  0.69716  0.77631  1.0000
  H   H295      1.0  0.54975  0.66240  0.23965  1.0000
  H   H296      1.0  0.50611  0.49521  0.22043  1.0000
  Fe  Fe38      1.0  0.12576  0.88630  0.58791  1.0000
  S   S73       1.0  0.13069  0.85325  0.52523  1.0000
  S   S74       1.0  0.16755  0.90954  0.60677  1.0000
  H   H297      1.0  0.21138  0.93532  0.53751  1.0000
  H   H298      1.0  0.08894  0.73386  0.60543  1.0000
  H   H299      1.0  0.21583  0.84437  0.31735  1.0000
  H   H300      1.0  0.25363  0.91747  0.48046  1.0000
  C   C179      1.0  0.09356  0.77912  0.49888  1.0000
  S   S75       1.0  0.27463  0.86385  0.46061  1.0000
  C   C180      1.0  0.07454  0.72687  0.52042  1.0000
  H   H301      1.0  0.40210  0.74968  0.65208  1.0000
  C   C181      1.0  0.21216  0.72822  0.61811  1.0000
  C   C182      1.0  0.21629  0.91406  0.53771  1.0000
  N   N20       1.0  0.19437  0.87791  0.35774  1.0000
  H   H302      1.0  0.16625  0.90400  0.30907  1.0000
  H   H303      1.0  0.14235  0.95373  0.40972  1.0000
  H   H304      1.0  0.42845  0.72726  0.68480  1.0000
  S   S76       1.0  0.08469  0.90449  0.54802  1.0000
  C   C183      1.0  0.28632  0.73516  0.73340  1.0000
  C   C184      1.0  0.20185  0.74961  0.70684  1.0000
  C   C185      1.0  0.29655  0.91249  0.70697  1.0000
  H   H305      1.0  0.15713  0.87318  0.41469  1.0000
  Fe  Fe39      1.0  0.30613  0.83769  0.50925  1.0000
  H   H306      1.0  0.24836  0.93908  0.74611  1.0000
  H   H307      1.0  0.23284  0.89166  0.31141  1.0000
  H   H308      1.0  0.19084  0.85563  0.59331  1.0000
  C   C186      1.0  0.17344  0.88265  0.31077  1.0000
  H   H309      1.0  0.47460  0.83078  0.44854  1.0000
  C   C187      1.0  0.24019  0.90396  0.50551  1.0000
  H   H310      1.0  0.06408  0.95054  0.37411  1.0000
  H   H311      1.0  0.22622  0.88843  0.68665  1.0000
  C   C188      1.0  0.24659  0.87648  0.50540  1.0000
  S   S77       1.0  0.28314  0.78315  0.67906  1.0000
  C   C189      1.0  0.19810  0.89663  0.56856  1.0000
  C   C190      1.0  0.20465  0.86913  0.56897  1.0000
  C   C191      1.0  0.22918  0.85910  0.53807  1.0000
  N   N21       1.0  0.19109  0.74592  0.64879  1.0000
  H   H312      1.0  0.21372  0.91717  0.35121  1.0000
  H   H313      1.0  0.23401  0.83783  0.53801  1.0000
  C   C192      1.0  0.11507  0.91836  0.40462  1.0000
  S   S78       1.0  0.30280  0.79309  0.51820  1.0000
  C   C193      1.0  0.09643  0.90749  0.31232  1.0000
  H   H314      1.0  0.18520  0.83580  0.36341  1.0000
  H   H315      1.0  0.14443  0.74658  0.67239  1.0000
  H   H316      1.0  0.43298  0.73608  0.61221  1.0000
  H   H317      1.0  0.07876  0.77223  0.41410  1.0000
  C   C194      1.0  0.20444  0.84964  0.35749  1.0000
  H   H318      1.0  0.23485  0.73721  0.61507  1.0000
  C   C195      1.0  0.09650  0.76826  0.55277  1.0000
  C   C196      1.0  0.41606  0.73138  0.64523  1.0000
  C   C197      1.0  0.08715  0.74210  0.56351  1.0000
  C   C198      1.0  0.12693  0.94704  0.32538  1.0000
  S   S79       1.0  0.09954  0.86224  0.65063  1.0000
  C   C199      1.0  0.17901  0.88371  0.41148  1.0000
  H   H319      1.0  0.18627  0.76259  0.73144  1.0000
  H   H320      1.0  0.35671  0.83928  0.70083  1.0000
  H   H321      1.0  0.08403  0.89432  0.28498  1.0000
  H   H322      1.0  0.15226  0.73053  0.60678  1.0000
  Fe  Fe40      1.0  0.08775  0.86927  0.48998  1.0000
  C   C200      1.0  0.42878  0.77735  0.52965  1.0000
  H   H323      1.0  0.49000  0.89479  0.51957  1.0000
  C   C201      1.0  0.09868  0.90155  0.36960  1.0000
  Fe  Fe41      1.0  0.30983  0.80155  0.60958  1.0000
  C   C202      1.0  0.12936  0.94096  0.38248  1.0000
  C   C203      1.0  0.36141  0.85812  0.72117  1.0000
  Fe  Fe42      1.0  0.10149  0.83047  0.58461  1.0000
  Fe  Fe43      1.0  0.54672  0.79920  0.43960  1.0000
  S   S80       1.0  0.08128  0.87300  0.39680  1.0000
  H   H324      1.0  0.11741  0.91370  0.44863  1.0000
  H   H325      1.0  0.38300  0.74143  0.34913  1.0000
  H   H326      1.0  0.36598  0.73299  0.58328  1.0000
  S   S81       1.0  0.11056  0.78774  0.60727  1.0000
  C   C204      1.0  0.29778  0.73432  0.63394  1.0000
  H   H327      1.0  0.10080  0.79936  0.49036  1.0000
  H   H328      1.0  0.39738  0.91707  0.69888  1.0000
  C   C205      1.0  0.18940  0.77223  0.62031  1.0000
  H   H329      1.0  0.20392  0.73008  0.72921  1.0000
  H   H330      1.0  0.31115  0.91645  0.74374  1.0000
  H   H331      1.0  0.18397  0.87782  0.26958  1.0000
  C   C206      1.0  0.27309  0.87456  0.75178  1.0000
  H   H332      1.0  0.22432  0.75919  0.70738  1.0000
  S   S82       1.0  0.30944  0.84613  0.60100  1.0000
  H   H333      1.0  0.22071  0.84563  0.39201  1.0000
  H   H334      1.0  0.17473  0.90551  0.41684  1.0000
  C   C207      1.0  0.38444  0.90189  0.72039  1.0000
  C   C208      1.0  0.44151  0.76784  0.43298  1.0000
  C   C209      1.0  0.28971  0.74861  0.68226  1.0000
  C   C210      1.0  0.48042  0.78080  0.49854  1.0000
  H   H335      1.0  0.25893  0.88372  0.64349  1.0000
  C   C211      1.0  0.47178  0.77344  0.44427  1.0000
  H   H336      1.0  0.23674  0.89282  0.38618  1.0000
  C   C212      1.0  0.08123  0.76376  0.45570  1.0000
  C   C213      1.0  0.11034  0.93037  0.29025  1.0000
  H   H337      1.0  0.30023  0.74463  0.59427  1.0000
  S   S83       1.0  0.35583  0.83754  0.49479  1.0000
  C   C214      1.0  0.22057  0.89566  0.35129  1.0000
  H   H338      1.0  0.46558  0.78759  0.58342  1.0000
  H   H339      1.0  0.43098  0.89420  0.45507  1.0000
  S   S84       1.0  0.51713  0.79070  0.51379  1.0000
  H   H340      1.0  0.43484  0.76242  0.39092  1.0000
  H   H341      1.0  0.45254  0.85413  0.40907  1.0000
  H   H342      1.0  0.46167  0.86528  0.58610  1.0000
  C   C215      1.0  0.37839  0.87758  0.69360  1.0000
  H   H343      1.0  0.48831  0.77235  0.41097  1.0000
  Fe  Fe44      1.0  0.35324  0.79355  0.51332  1.0000
  S   S85       1.0  0.38169  0.76525  0.46154  1.0000
  S   S86       1.0  0.35986  0.79800  0.60620  1.0000
  S   S87       1.0  0.39063  0.87176  0.62476  1.0000
  N   N22       1.0  0.45845  0.86446  0.49599  1.0000
  H   H344      1.0  0.41249  0.77893  0.56280  1.0000
  C   C216      1.0  0.48655  0.87940  0.48653  1.0000
  Fe  Fe45      1.0  0.35891  0.84201  0.58787  1.0000
  H   H345      1.0  0.19261  0.87718  0.44790  1.0000
  H   H346      1.0  0.50643  0.86572  0.48697  1.0000
  C   C217      1.0  0.45896  0.78207  0.54136  1.0000
  H   H347      1.0  0.43431  0.89824  0.52993  1.0000
  H   H348      1.0  0.47938  0.83682  0.55332  1.0000
  S   S88       1.0  0.53173  0.81979  0.36079  1.0000
  C   C218      1.0  0.16101  0.73366  0.64997  1.0000
  C   C219      1.0  0.41988  0.77035  0.47558  1.0000
  H   H349      1.0  0.52197  0.74938  0.33171  1.0000
  C   C220      1.0  0.45482  0.84443  0.45094  1.0000
  H   H350      1.0  0.15279  0.87035  0.31512  1.0000
  H   H351      1.0  0.48651  0.88978  0.44509  1.0000
  C   C221      1.0  0.45980  0.85072  0.55097  1.0000
  C   C222      1.0  0.43265  0.88320  0.49561  1.0000
  H   H352      1.0  0.43464  0.83182  0.45804  1.0000
  H   H353      1.0  0.41116  0.87242  0.50236  1.0000
  H   H354      1.0  0.43916  0.83884  0.55899  1.0000
  H   H355      1.0  0.30915  0.89881  0.67832  1.0000
  H   H356      1.0  0.18065  0.77027  0.57681  1.0000
  H   H357      1.0  0.17394  0.78618  0.64286  1.0000
  H   H358      1.0  0.29325  0.93186  0.68454  1.0000
  H   H359      1.0  0.21181  0.78192  0.61800  1.0000
  N   N23       1.0  0.26764  0.90081  0.72467  1.0000
  C   C223      1.0  0.51279  0.74041  0.29440  1.0000
  H   H360      1.0  0.28491  0.86043  0.72294  1.0000
  C   C224      1.0  0.24829  0.89722  0.67504  1.0000
  C   C225      1.0  0.07141  0.73774  0.46676  1.0000
  H   H361      1.0  0.24351  0.91665  0.65369  1.0000
  H   H362      1.0  0.36108  0.72590  0.29528  1.0000
  Fe  Fe46      1.0  0.05873  0.87677  0.60402  1.0000
  H   H363      1.0  0.20420  0.72418  0.57475  1.0000
  S   S89       1.0  0.05869  0.84273  0.54280  1.0000
  C   C226      1.0  0.52145  0.74957  0.24135  1.0000
  H   H364      1.0  0.23063  0.91090  0.77899  1.0000
  H   H365      1.0  0.44769  0.85266  0.88853  1.0000
  H   H366      1.0  0.39326  0.85841  0.91234  1.0000
  S   S90       1.0  0.55016  0.77298  0.23472  1.0000
  C   C227      1.0  0.25264  0.91900  0.76503  1.0000
  C   C228      1.0  0.50819  0.95574  0.99582  1.0000
  C   C229      1.0  0.37283  0.90694  0.77428  1.0000
  Fe  Fe47      1.0  0.37929  0.97075  0.97688  1.0000
  C   C230      1.0  0.24171  0.97070  0.05106  1.0000
  H   H367      1.0  0.45876  0.90975  0.98529  1.0000
  S   S91       1.0  0.09845  0.97247  0.15643  1.0000
  H   H368      1.0  0.17291  0.96901  0.11308  1.0000
  C   C231      1.0  0.35055  0.86286  0.77541  1.0000
  H   H369      1.0  0.47481  0.87494  0.91838  1.0000
  C   C232      1.0  0.45520  0.96704  0.99263  1.0000
  C   C233      1.0  0.35583  0.88738  0.80170  1.0000
  H   H370      1.0  0.44570  0.91423  0.88444  1.0000
  H   H371      1.0  0.43983  0.88558  0.02827  1.0000
  C   C234      1.0  0.48111  0.96141  0.02350  1.0000
  C   C235      1.0  0.45321  0.86450  0.92664  1.0000
  H   H372      1.0  0.40299  0.85452  0.98526  1.0000
  C   C236      1.0  0.43720  0.89897  0.99121  1.0000
  H   H373      1.0  0.38218  0.88336  0.96207  1.0000
  S   S92       1.0  0.33993  0.89300  0.86793  1.0000
  C   C237      1.0  0.50957  0.95615  0.93722  1.0000
  H   H374      1.0  0.41978  0.91425  0.00198  1.0000
  C   C238      1.0  0.48370  0.96209  0.90635  1.0000
  H   H375      1.0  0.37682  0.92599  0.79419  1.0000
  S   S93       1.0  0.34924  0.93641  0.99681  1.0000
  H   H376      1.0  0.33749  0.84764  0.79655  1.0000
  H   H377      1.0  0.48016  0.96085  0.06890  1.0000
  C   C239      1.0  0.42498  0.90257  0.89288  1.0000
  H   H378      1.0  0.40657  0.91710  0.90160  1.0000
  Fe  Fe48      1.0  0.34200  0.93443  0.90408  1.0000
  H   H379      1.0  0.45707  0.85015  0.96175  1.0000
  C   C240      1.0  0.40072  0.86932  0.95054  1.0000
  N   N24       1.0  0.42902  0.88382  0.94035  1.0000
  S   S94       1.0  0.54332  0.94985  0.90152  1.0000
  H   H380      1.0  0.41902  0.89181  0.85364  1.0000
  S   S95       1.0  0.42132  0.97230  0.02845  1.0000
  H   H381      1.0  0.52783  0.95071  0.01994  1.0000
  S   S96       1.0  0.27962  0.96766  0.06935  1.0000
  H   H382      1.0  0.28016  0.74619  0.77081  1.0000
  S   S97       1.0  0.37493  0.96681  0.88342  1.0000
  H   H383      1.0  0.51538  0.74561  0.15211  1.0000
  H   H384      1.0  0.22647  0.96148  0.13477  1.0000
  Fe  Fe49      1.0  0.31209  0.96669  0.99720  1.0000
  C   C241      1.0  0.21991  0.96734  0.09279  1.0000
  S   S98       1.0  0.30175  0.96145  0.90584  1.0000
  C   C242      1.0  0.18961  0.97184  0.08066  1.0000
  H   H385      1.0  0.10897  0.93461  0.24588  1.0000
  H   H386      1.0  0.43676  0.97227  0.90997  1.0000
  H   H387      1.0  0.28719  0.87666  0.79001  1.0000
  H   H388      1.0  0.26658  0.92201  0.80324  1.0000
  C   C243      1.0  0.50884  0.73838  0.19320  1.0000
  H   H389      1.0  0.48471  0.96256  0.86096  1.0000
  C   C244      1.0  0.45653  0.96752  0.93403  1.0000
  H   H390      1.0  0.25173  0.86493  0.76483  1.0000
  H   H391      1.0  0.86030  0.15882  0.74470  1.0000
  H   H392      1.0  0.03073  0.00751  0.29434  1.0000
  H   H393      1.0  0.00806  0.00505  0.35667  1.0000
  H   H394      1.0  0.03670  0.12740  0.26875  1.0000
  H   H395      1.0  0.99411  0.99334  0.29034  1.0000
  H   H396      1.0  0.04974  0.98110  0.40307  1.0000
  C   C245      1.0  0.01444  0.99458  0.31719  1.0000
  H   H397      1.0  0.86752  0.12333  0.74573  1.0000
  S   S99       1.0  0.87759  0.98163  0.73720  1.0000
  H   H398      1.0  0.95242  0.99172  0.75033  1.0000
  S   S100      1.0  0.87788  0.98321  0.99214  1.0000
  Fe  Fe50      1.0  0.68667  0.18982  0.93526  1.0000
  S   S101      1.0  0.64098  0.20406  0.95979  1.0000
  S   S102      1.0  0.69746  0.17672  0.84767  1.0000
  H   H399      1.0  0.71592  0.06284  0.93949  1.0000
  C   C246      1.0  0.78411  0.07296  0.86276  1.0000
  S   S103      1.0  0.73560  0.10639  0.85787  1.0000
  H   H400      1.0  0.73523  0.05662  0.00422  1.0000
  H   H401      1.0  0.75260  0.99584  0.92086  1.0000
  C   C247      1.0  0.55982  0.17137  0.93747  1.0000
  C   C248      1.0  0.59635  0.13700  0.91475  1.0000
  C   C249      1.0  0.61965  0.15522  0.92475  1.0000
  C   C250      1.0  0.61284  0.18150  0.94101  1.0000
  C   C251      1.0  0.58298  0.18970  0.94565  1.0000
  H   H402      1.0  0.60158  0.11659  0.90303  1.0000
  H   H403      1.0  0.64277  0.14878  0.92093  1.0000
  H   H404      1.0  0.57163  0.07208  0.95773  1.0000
  H   H405      1.0  0.76822  0.02380  0.95773  1.0000
  C   C252      1.0  0.95884  0.98372  0.04758  1.0000
  S   S104      1.0  0.76781  0.17558  0.88861  1.0000
  H   H406      1.0  0.79655  0.14795  0.01025  1.0000
  C   C253      1.0  0.69512  0.01330  0.92499  1.0000
  Fe  Fe51      1.0  0.72859  0.14795  0.89113  1.0000
  N   N25       1.0  0.72009  0.02120  0.96184  1.0000
  C   C254      1.0  0.56898  0.07823  0.09467  1.0000
  H   H407      1.0  0.67309  0.01609  0.94635  1.0000
  C   C255      1.0  0.74886  0.01728  0.93184  1.0000
  S   S105      1.0  0.78544  0.20343  0.03480  1.0000
  C   C256      1.0  0.97069  0.99106  0.09971  1.0000
  H   H408      1.0  0.73843  0.00988  0.04181  1.0000
  C   C257      1.0  0.61679  0.20869  0.15881  1.0000
  S   S106      1.0  0.71486  0.15888  0.97925  1.0000
  N   N26       1.0  0.59230  0.20220  0.11967  1.0000
  C   C258      1.0  0.56642  0.14502  0.92225  1.0000
  H   H409      1.0  0.85687  0.09688  0.83215  1.0000
  C   C259      1.0  0.58422  0.02447  0.11253  1.0000
  C   C260      1.0  0.03337  0.13108  0.17888  1.0000
  C   C261      1.0  0.71981  0.00448  0.01311  1.0000
  H   H410      1.0  0.59021  0.00378  0.12013  1.0000
  C   C262      1.0  0.86747  0.14179  0.77187  1.0000
  H   H411      1.0  0.58230  0.17226  0.05791  1.0000
  H   H412      1.0  0.03672  0.13186  0.08859  1.0000
  H   H413      1.0  0.77881  0.06763  0.81993  1.0000
  Fe  Fe52      1.0  0.73555  0.20556  0.85342  1.0000
  C   C263      1.0  0.97801  0.97761  0.00274  1.0000
  H   H414      1.0  0.57789  0.21025  0.95607  1.0000
  S   S107      1.0  0.63350  0.02669  0.04301  1.0000
  H   H415      1.0  0.74942  0.02897  0.89205  1.0000
  H   H416      1.0  0.56334  0.09900  0.08768  1.0000
  Fe  Fe53      1.0  0.75146  0.18948  0.97244  1.0000
  C   C264      1.0  0.71646  0.04970  0.97735  1.0000
  H   H417      1.0  0.57843  0.06893  0.88412  1.0000
  C   C265      1.0  0.81647  0.13420  0.80221  1.0000
  H   H418      1.0  0.62042  0.19228  0.18980  1.0000
  C   C266      1.0  0.60222  0.04036  0.07783  1.0000
  H   H419      1.0  0.95824  0.06524  0.14039  1.0000
  C   C267      1.0  0.76631  0.09167  0.89135  1.0000
  C   C268      1.0  0.80919  0.06159  0.88911  1.0000
  H   H420      1.0  0.69471  0.02543  0.88575  1.0000
  H   H421      1.0  0.60873  0.07977  0.04303  1.0000
  C   C269      1.0  0.77340  0.09888  0.94629  1.0000
  H   H422      1.0  0.69698  0.99187  0.91270  1.0000
  H   H423      1.0  0.80109  0.13126  0.83854  1.0000
  H   H424      1.0  0.84731  0.21983  0.03357  1.0000
  H   H425      1.0  0.75970  0.11336  0.96847  1.0000
  H   H426      1.0  0.56977  0.22022  0.04980  1.0000
  Fe  Fe54      1.0  0.87337  0.98567  0.83030  1.0000
  H   H427      1.0  0.95582  0.99553  0.13448  1.0000
  H   H428      1.0  0.60211  0.15988  0.11807  1.0000
  C   C270      1.0  0.00175  0.99254  0.10688  1.0000
  C   C271      1.0  0.59479  0.06734  0.06956  1.0000
  S   S108      1.0  0.62116  0.97687  0.92958  1.0000
  C   C272      1.0  0.79800  0.08700  0.97310  1.0000
  S   S109      1.0  0.01628  0.00224  0.17184  1.0000
  C   C273      1.0  0.84842  0.16380  0.85482  1.0000
  H   H429      1.0  0.59681  0.04649  0.93284  1.0000
  H   H430      1.0  0.62132  0.17922  0.06545  1.0000
  H   H431      1.0  0.56803  0.01143  0.98120  1.0000
  H   H432      1.0  0.72232  0.98282  0.00274  1.0000
  H   H433      1.0  0.90691  0.07620  0.99069  1.0000
  H   H434      1.0  0.89257  0.10042  0.07573  1.0000
  C   C274      1.0  0.81605  0.06851  0.94443  1.0000
  H   H435      1.0  0.93822  0.05329  0.99078  1.0000
  H   H436      1.0  0.90753  0.04660  0.13468  1.0000
  S   S110      1.0  0.02196  0.18858  0.04782  1.0000
  H   H437      1.0  0.69513  0.05319  0.00088  1.0000
  Fe  Fe55      1.0  0.94599  0.16121  0.99810  1.0000
  S   S111      1.0  0.90382  0.14027  0.97374  1.0000
  S   S112      1.0  0.94935  0.18822  0.07289  1.0000
  H   H438      1.0  0.97371  0.08352  0.08262  1.0000
  C   C275      1.0  0.81880  0.18555  0.02302  1.0000
  C   C276      1.0  0.84640  0.19874  0.02375  1.0000
  C   C277      1.0  0.87283  0.18485  0.00963  1.0000
  C   C278      1.0  0.87172  0.15760  0.99640  1.0000
  C   C279      1.0  0.84434  0.14422  0.99811  1.0000
  C   C280      1.0  0.81779  0.15826  0.01026  1.0000
  C   C281      1.0  0.59986  0.17728  0.08911  1.0000
  H   H439      1.0  0.89389  0.19540  0.00779  1.0000
  H   H440      1.0  0.84372  0.12303  0.98942  1.0000
  H   H441      1.0  0.89102  0.14555  0.78501  1.0000
  C   C282      1.0  0.91542  0.09645  0.09288  1.0000
  H   H442      1.0  0.91687  0.02924  0.07086  1.0000
  S   S113      1.0  0.83242  0.99236  0.88380  1.0000
  N   N27       1.0  0.92804  0.07105  0.07099  1.0000
  S   S114      1.0  0.90236  0.01383  0.87815  1.0000
  H   H443      1.0  0.88525  0.05156  0.07292  1.0000
  H   H444      1.0  0.91380  0.09626  0.13948  1.0000
  C   C283      1.0  0.57542  0.05723  0.92353  1.0000
  C   C284      1.0  0.92947  0.07232  0.00902  1.0000
  C   C285      1.0  0.02096  0.98642  0.06211  1.0000
  H   H445      1.0  0.87131  0.16751  0.87159  1.0000
  C   C286      1.0  0.90859  0.04861  0.08821  1.0000
  H   H446      1.0  0.92946  0.11387  0.08075  1.0000
  C   C287      1.0  0.56407  0.19847  0.15137  1.0000
  N   N28       1.0  0.84751  0.13897  0.82113  1.0000
  S   S115      1.0  0.99913  0.14825  0.18083  1.0000
  Fe  Fe56      1.0  0.86305  0.01702  0.93663  1.0000
  H   H447      1.0  0.83306  0.16262  0.89155  1.0000
  H   H448      1.0  0.88107  0.11880  0.87070  1.0000
  C   C288      1.0  0.85768  0.11607  0.85573  1.0000
  S   S116      1.0  0.84763  0.05497  0.97755  1.0000
  H   H449      1.0  0.56595  0.18189  0.18246  1.0000
  C   C289      1.0  0.95851  0.06675  0.09376  1.0000
  S   S117      1.0  0.97445  0.18632  0.94116  1.0000
  H   H450      1.0  0.84334  0.11365  0.89360  1.0000
  H   H451      1.0  0.81494  0.11585  0.77597  1.0000
  Fe  Fe57      1.0  0.98146  0.21123  0.01861  1.0000
  H   H452      1.0  0.80323  0.09237  0.01594  1.0000
  H   H453      1.0  0.96888  0.04799  0.07723  1.0000
  H   H454      1.0  0.82356  0.04799  0.86612  1.0000
  Fe  Fe58      1.0  0.01284  0.16192  0.97465  1.0000
  S   S118      1.0  0.98366  0.13420  0.02376  1.0000
  Fe  Fe59      1.0  0.98932  0.16305  0.09427  1.0000
  H   H455      1.0  0.94413  0.08888  0.99441  1.0000
  S   S119      1.0  0.05130  0.14482  0.92517  1.0000
  H   H456      1.0  0.63831  0.21177  0.13583  1.0000
  H   H457      1.0  0.69836  0.00697  0.03678  1.0000
  S   S120      1.0  0.72178  0.22134  0.93697  1.0000
  Fe  Fe60      1.0  0.62691  0.98346  0.02143  1.0000
  C   C290      1.0  0.55886  0.03559  0.13899  1.0000
  H   H458      1.0  0.84152  0.18165  0.82984  1.0000
  C   C291      1.0  0.04753  0.12353  0.22882  1.0000
  H   H459      1.0  0.57575  0.00769  0.87812  1.0000
  H   H460      1.0  0.93493  0.98226  0.04250  1.0000
  Fe  Fe61      1.0  0.91448  0.97743  0.92831  1.0000
  H   H461      1.0  0.05715  0.20135  0.94954  1.0000
  C   C292      1.0  0.04737  0.12603  0.12729  1.0000
  H   H462      1.0  0.97501  0.98579  0.81198  1.0000
  C   C293      1.0  0.00908  0.97884  0.01014  1.0000
  H   H463      1.0  0.04498  0.98726  0.06756  1.0000
  H   H464      1.0  0.79800  0.21941  0.85376  1.0000
  H   H465      1.0  0.80757  0.15138  0.77734  1.0000
  C   C294      1.0  0.95829  0.97672  0.78321  1.0000
  Fe  Fe62      1.0  0.66234  0.43726  0.43354  1.0000
  S   S121      1.0  0.70438  0.44996  0.47672  1.0000
  S   S122      1.0  0.66431  0.44189  0.34030  1.0000
  H   H466      1.0  0.77536  0.40289  0.48716  1.0000
  N   N29       1.0  0.78254  0.40423  0.57612  1.0000
  H   H467      1.0  0.79397  0.44118  0.61691  1.0000
  Fe  Fe63      1.0  0.61971  0.46179  0.35047  1.0000
  H   H468      1.0  0.82201  0.38562  0.61025  1.0000
  C   C295      1.0  0.73427  0.43936  0.43425  1.0000
  C   C296      1.0  0.76146  0.45319  0.43451  1.0000
  C   C297      1.0  0.78569  0.44392  0.40196  1.0000
  C   C298      1.0  0.78275  0.42074  0.36946  1.0000
  C   C299      1.0  0.75533  0.40734  0.36833  1.0000
  C   C300      1.0  0.73111  0.41665  0.40056  1.0000
  Fe  Fe64      1.0  0.85715  0.42078  0.36878  1.0000
  H   H469      1.0  0.75307  0.38922  0.34401  1.0000
  H   H470      1.0  0.71023  0.40575  0.40060  1.0000
  H   H471      1.0  0.77767  0.37074  0.52023  1.0000
  H   H472      1.0  0.88313  0.43527  0.56896  1.0000
  S   S123      1.0  0.65226  0.37258  0.27438  1.0000
  H   H473      1.0  0.81104  0.39013  0.50907  1.0000
  Fe  Fe65      1.0  0.63920  0.40359  0.33792  1.0000
  H   H474      1.0  0.78365  0.44459  0.54438  1.0000
  H   H475      1.0  0.81952  0.43087  0.56257  1.0000
  C   C301      1.0  0.88847  0.37734  0.64367  1.0000
  S   S124      1.0  0.59407  0.42373  0.33830  1.0000
  S   S125      1.0  0.64101  0.39674  0.43079  1.0000
  H   H476      1.0  0.80651  0.45487  0.40163  1.0000
  C   C302      1.0  0.79768  0.38797  0.61962  1.0000
  H   H477      1.0  0.78802  0.36753  0.62266  1.0000
  H   H478      1.0  0.00487  0.42248  0.52721  1.0000
  Fe  Fe66      1.0  0.59746  0.41985  0.43178  1.0000
  C   C303      1.0  0.78686  0.39140  0.52079  1.0000
  S   S126      1.0  0.61916  0.45987  0.44432  1.0000
  H   H479      1.0  0.73806  0.41839  0.55713  1.0000
  H   H480      1.0  0.03009  0.41798  0.64817  1.0000
  H   H481      1.0  0.02243  0.44826  0.60956  1.0000
  H   H482      1.0  0.99169  0.38378  0.65925  1.0000
  C   C304      1.0  0.97430  0.39904  0.64862  1.0000
  C   C305      1.0  0.75016  0.40616  0.58913  1.0000
  H   H483      1.0  0.79563  0.39739  0.66186  1.0000
  C   C306      1.0  0.87978  0.42105  0.60258  1.0000
  C   C307      1.0  0.79548  0.43142  0.57497  1.0000
  H   H484      1.0  0.73951  0.38608  0.59009  1.0000
  C   C308      1.0  0.01908  0.43551  0.27544  1.0000
  H   H485      1.0  0.95508  0.38840  0.62937  1.0000
  S   S127      1.0  0.91164  0.38511  0.53842  1.0000
  C   C309      1.0  0.89195  0.39524  0.59879  1.0000
  S   S128      1.0  0.86046  0.43651  0.45662  1.0000
  C   C310      1.0  0.86326  0.42862  0.65023  1.0000
  Fe  Fe67      1.0  0.92399  0.42587  0.34651  1.0000
  S   S129      1.0  0.93319  0.44187  0.43269  1.0000
  H   H486      1.0  0.01366  0.39197  0.56403  1.0000
  H   H487      1.0  0.95429  0.44933  0.63894  1.0000
  C   C311      1.0  0.99544  0.42520  0.30759  1.0000
  C   C312      1.0  0.00055  0.41701  0.36290  1.0000
  C   C313      1.0  0.02928  0.41911  0.38607  1.0000
  H   H488      1.0  0.85350  0.44850  0.65268  1.0000
  C   C314      1.0  0.04773  0.43793  0.29892  1.0000
  H   H489      1.0  0.98252  0.40852  0.38746  1.0000
  H   H490      1.0  0.03332  0.41246  0.42863  1.0000
  C   C315      1.0  0.01226  0.43285  0.63742  1.0000
  Fe  Fe68      1.0  0.90134  0.41034  0.46242  1.0000
  S   S130      1.0  0.81332  0.40759  0.33187  1.0000
  C   C316      1.0  0.05285  0.42970  0.35423  1.0000
  H   H491      1.0  0.89788  0.35734  0.64091  1.0000
  H   H492      1.0  0.86813  0.37060  0.72473  1.0000
  H   H493      1.0  0.96631  0.40783  0.68889  1.0000
  H   H494      1.0  0.97128  0.45651  0.57190  1.0000
  C   C317      1.0  0.96280  0.44015  0.59935  1.0000
  C   C318      1.0  0.87186  0.38489  0.69133  1.0000
  C   C319      1.0  0.99587  0.40736  0.55715  1.0000
  C   C320      1.0  0.85896  0.41047  0.69436  1.0000
  H   H495      1.0  0.74617  0.41579  0.63065  1.0000
  H   H496      1.0  0.94327  0.43115  0.57774  1.0000
  H   H497      1.0  0.00562  0.44285  0.67739  1.0000
  S   S131      1.0  0.95940  0.42350  0.27884  1.0000
  S   S132      1.0  0.88497  0.45324  0.33055  1.0000
  S   S133      1.0  0.89568  0.39186  0.37722  1.0000
  N   N30       1.0  0.98632  0.41985  0.61061  1.0000
  H   H498      1.0  0.97676  0.39725  0.53607  1.0000
  Fe  Fe69      1.0  0.89187  0.46664  0.41908  1.0000
  H   H499      1.0  0.76379  0.47110  0.45961  1.0000
  H   H500      1.0  0.71064  0.40160  0.27068  1.0000
  S   S134      1.0  0.83530  0.41944  0.75029  1.0000
  C   C321      1.0  0.64774  0.27678  0.90839  1.0000
  H   H501      1.0  0.63261  0.30799  0.82026  1.0000
  H   H502      1.0  0.93048  0.35653  0.16322  1.0000
  H   H503      1.0  0.69037  0.27845  0.78972  1.0000
  C   C322      1.0  0.62283  0.40684  0.20438  1.0000
  H   H504      1.0  0.97676  0.34586  0.91781  1.0000
  H   H505      1.0  0.66411  0.26620  0.93588  1.0000
  H   H506      1.0  0.98124  0.34175  0.08366  1.0000
  C   C323      1.0  0.78620  0.27885  0.78795  1.0000
  H   H507      1.0  0.81019  0.32560  0.03158  1.0000
  N   N31       1.0  0.78916  0.28958  0.00306  1.0000
  C   C324      1.0  0.80180  0.23957  0.83994  1.0000
  H   H508      1.0  0.76238  0.25470  0.99148  1.0000
  C   C325      1.0  0.81748  0.27413  0.99894  1.0000
  C   C326      1.0  0.78056  0.25276  0.80660  1.0000
  H   H509      1.0  0.91593  0.32209  0.82431  1.0000
  S   S135      1.0  0.74654  0.23719  0.78986  1.0000
  C   C327      1.0  0.68453  0.28204  0.83458  1.0000
  H   H510      1.0  0.03877  0.46074  0.91353  1.0000
  H   H511      1.0  0.94690  0.32742  0.77769  1.0000
  H   H512      1.0  0.62506  0.26933  0.92018  1.0000
  H   H513      1.0  0.57194  0.44943  0.22896  1.0000
  C   C328      1.0  0.63174  0.28596  0.81366  1.0000
  H   H514      1.0  0.81672  0.31207  0.78975  1.0000
  H   H515      1.0  0.77800  0.28521  0.91579  1.0000
  N   N32       1.0  0.65429  0.27191  0.84838  1.0000
  H   H516      1.0  0.04576  0.44183  0.97636  1.0000
  H   H517      1.0  0.81518  0.25683  0.96991  1.0000
  H   H518      1.0  0.83620  0.28672  0.98290  1.0000
  C   C329      1.0  0.79246  0.31130  0.04451  1.0000
  H   H519      1.0  0.71043  0.42469  0.12229  1.0000
  H   H520      1.0  0.01292  0.36704  0.15133  1.0000
  C   C330      1.0  0.76485  0.27158  0.02129  1.0000
  C   C331      1.0  0.78173  0.30114  0.94759  1.0000
  H   H521      1.0  0.80018  0.31399  0.93159  1.0000
  Fe  Fe70      1.0  0.56661  0.31842  0.94471  1.0000
  C   C332      1.0  0.59498  0.39272  0.12269  1.0000
  Fe  Fe71      1.0  0.57269  0.37317  0.99630  1.0000
  H   H522      1.0  0.74470  0.40798  0.10303  1.0000
  S   S136      1.0  0.77303  0.37600  0.99698  1.0000
  C   C333      1.0  0.60452  0.41300  0.15857  1.0000
  Fe  Fe72      1.0  0.61173  0.35779  0.89862  1.0000
  S   S137      1.0  0.65591  0.35890  0.85326  1.0000
  S   S138      1.0  0.60563  0.33933  0.98353  1.0000
  H   H523      1.0  0.99629  0.45427  0.01564  1.0000
  S   S139      1.0  0.57522  0.33426  0.85854  1.0000
  H   H524      1.0  0.82417  0.26572  0.04037  1.0000
  C   C334      1.0  0.68753  0.36501  0.89495  1.0000
  C   C335      1.0  0.71382  0.37392  0.86900  1.0000
  C   C336      1.0  0.73967  0.37834  0.90074  1.0000
  C   C337      1.0  0.73974  0.37301  0.95832  1.0000
  C   C338      1.0  0.71338  0.36435  0.98465  1.0000
  C   C339      1.0  0.68722  0.36051  0.95301  1.0000
  H   H525      1.0  0.71407  0.37783  0.82430  1.0000
  H   H526      1.0  0.75934  0.38637  0.88060  1.0000
  H   H527      1.0  0.71318  0.36042  0.02927  1.0000
  H   H528      1.0  0.66702  0.35379  0.97347  1.0000
  S   S140      1.0  0.58185  0.39338  0.91383  1.0000
  H   H529      1.0  0.77004  0.28908  0.76163  1.0000
  H   H530      1.0  0.69059  0.42079  0.21950  1.0000
  C   C340      1.0  0.73277  0.41822  0.13832  1.0000
  H   H531      1.0  0.76968  0.26244  0.06302  1.0000
  H   H532      1.0  0.58299  0.24362  0.10053  1.0000
  C   C341      1.0  0.65302  0.24286  0.83692  1.0000
  C   C342      1.0  0.71350  0.41462  0.23302  1.0000
  H   H533      1.0  0.79847  0.30331  0.08664  1.0000
  H   H534      1.0  0.59772  0.43348  0.15075  1.0000
  C   C343      1.0  0.62367  0.36022  0.17644  1.0000
  C   C344      1.0  0.60498  0.36638  0.13087  1.0000
  H   H535      1.0  0.59736  0.35062  0.10355  1.0000
  H   H536      1.0  0.77317  0.38242  0.17412  1.0000
  H   H537      1.0  0.70211  0.27188  0.86009  1.0000
  C   C345      1.0  0.75987  0.39246  0.20774  1.0000
  H   H538      1.0  0.63558  0.28230  0.76816  1.0000
  H   H539      1.0  0.77131  0.32310  0.04895  1.0000
  C   C346      1.0  0.01522  0.26481  0.97463  1.0000
  C   C347      1.0  0.82829  0.25245  0.85538  1.0000
  C   C348      1.0  0.02293  0.24837  0.92932  1.0000
  C   C349      1.0  0.83326  0.27894  0.83898  1.0000
  H   H540      1.0  0.76114  0.31387  0.94949  1.0000
  H   H541      1.0  0.00519  0.30801  0.88010  1.0000
  H   H542      1.0  0.66971  0.23169  0.86246  1.0000
  S   S141      1.0  0.86451  0.29589  0.86511  1.0000
  H   H543      1.0  0.94655  0.27747  0.89428  1.0000
  S   S142      1.0  0.55966  0.27431  0.93893  1.0000
  H   H544      1.0  0.72450  0.36488  0.13782  1.0000
  S   S143      1.0  0.98554  0.25601  0.01918  1.0000
  C   C350      1.0  0.03058  0.28879  0.98300  1.0000
  H   H545      1.0  0.96224  0.29961  0.94517  1.0000
  H   H546      1.0  0.84448  0.24216  0.88159  1.0000
  H   H547      1.0  0.74294  0.28229  0.02390  1.0000
  C   C351      1.0  0.81246  0.29199  0.80442  1.0000
  H   H548      1.0  0.92458  0.30493  0.92055  1.0000
  C   C352      1.0  0.94763  0.29884  0.90744  1.0000
  C   C353      1.0  0.63187  0.38037  0.21399  1.0000
  N   N33       1.0  0.95913  0.31615  0.86183  1.0000
  H   H549      1.0  0.64844  0.29856  0.91838  1.0000
  Fe  Fe73      1.0  0.85451  0.33956  0.87678  1.0000
  S   S144      1.0  0.01523  0.41182  0.78143  1.0000
  H   H550      1.0  0.92665  0.39733  0.10428  1.0000
  Fe  Fe74      1.0  0.84109  0.39436  0.82805  1.0000
  H   H551      1.0  0.98032  0.37140  0.04113  1.0000
  H   H552      1.0  0.91398  0.42083  0.85901  1.0000
  H   H553      1.0  0.77292  0.41011  0.22219  1.0000
  C   C354      1.0  0.95381  0.36243  0.17380  1.0000
  Fe  Fe75      1.0  0.87967  0.38951  0.93103  1.0000
  S   S145      1.0  0.92081  0.40443  0.97499  1.0000
  S   S146      1.0  0.88394  0.37220  0.84457  1.0000
  C   C355      1.0  0.94690  0.41292  0.92301  1.0000
  C   C356      1.0  0.97746  0.41172  0.93514  1.0000
  C   C357      1.0  0.99849  0.41363  0.89169  1.0000
  C   C358      1.0  0.98913  0.41623  0.83595  1.0000
  C   C359      1.0  0.95866  0.41978  0.82437  1.0000
  C   C360      1.0  0.93756  0.41835  0.86809  1.0000
  H   H554      1.0  0.98493  0.40798  0.97753  1.0000
  H   H555      1.0  0.02196  0.41197  0.90133  1.0000
  C   C361      1.0  0.04505  0.25631  0.89103  1.0000
  C   C362      1.0  0.93877  0.31485  0.81316  1.0000
  H   H556      1.0  0.65794  0.23835  0.79209  1.0000
  Fe  Fe76      1.0  0.81304  0.37756  0.93871  1.0000
  C   C363      1.0  0.95010  0.40217  0.11636  1.0000
  S   S147      1.0  0.81171  0.35986  0.85221  1.0000
  H   H557      1.0  0.95115  0.42253  0.78166  1.0000
  H   H558      1.0  0.60859  0.27933  0.82433  1.0000
  H   H559      1.0  0.69002  0.38165  0.15592  1.0000
  S   S148      1.0  0.85407  0.35467  0.96499  1.0000
  C   C364      1.0  0.96885  0.36088  0.07629  1.0000
  C   C365      1.0  0.98927  0.30679  0.84467  1.0000
  H   H560      1.0  0.94587  0.35586  0.06169  1.0000
  S   S149      1.0  0.04304  0.35993  0.88624  1.0000
  H   H561      1.0  0.99862  0.31914  0.80990  1.0000
  H   H562      1.0  0.05010  0.24396  0.85487  1.0000
  N   N34       1.0  0.72975  0.40040  0.18767  1.0000
  S   S150      1.0  0.83870  0.41414  0.91270  1.0000
  C   C366      1.0  0.04734  0.46217  0.95728  1.0000
  N   N35       1.0  0.96788  0.37762  0.12743  1.0000
  H   H563      1.0  0.00991  0.39680  0.10961  1.0000
  H   H564      1.0  0.96881  0.35790  0.84836  1.0000
  H   H565      1.0  0.70950  0.36260  0.20810  1.0000
  C   C367      1.0  0.96094  0.34408  0.88203  1.0000
  H   H566      1.0  0.99879  0.39739  0.18237  1.0000
  H   H567      1.0  0.96669  0.34384  0.18364  1.0000
  H   H568      1.0  0.93877  0.35158  0.89698  1.0000
  H   H569      1.0  0.98905  0.28552  0.83068  1.0000
  C   C368      1.0  0.99871  0.38507  0.14341  1.0000
  H   H570      1.0  0.74562  0.43657  0.14875  1.0000
  H   H571      1.0  0.02498  0.30142  0.01842  1.0000
  H   H572      1.0  0.93633  0.29393  0.79782  1.0000
  Fe  Fe77      1.0  0.05434  0.39100  0.82179  1.0000
  H   H573      1.0  0.94895  0.41528  0.15415  1.0000
  H   H574      1.0  0.68616  0.30400  0.84231  1.0000
  H   H575      1.0  0.01521  0.44193  0.23268  1.0000
  H   H576      1.0  0.63064  0.33973  0.18395  1.0000
  H   H577      1.0  0.95982  0.41401  0.08121  1.0000
  H   H578      1.0  0.63058  0.23451  0.84754  1.0000
  C   C369      1.0  0.71280  0.37628  0.17158  1.0000
  H   H579      1.0  0.01123  0.22989  0.92250  1.0000
  S   S151      1.0  0.56924  0.40066  0.07005  1.0000
  H   H580      1.0  0.95264  0.37456  0.21300  1.0000
  H   H581      1.0  0.62981  0.42260  0.23236  1.0000
  C   C370      1.0  0.05305  0.29658  0.94511  1.0000
  H   H582      1.0  0.98845  0.47180  0.95156  1.0000
  H   H583      1.0  0.04247  0.46405  0.06917  1.0000
  H   H584      1.0  0.75845  0.37841  0.24399  1.0000
  H   H585      1.0  0.72563  0.43287  0.24671  1.0000
  H   H586      1.0  0.60893  0.22749  0.05326  1.0000
  H   H587      1.0  0.61176  0.22737  0.18264  1.0000
  C   C371      1.0  0.58842  0.22439  0.07917  1.0000
  C   C372      1.0  0.99857  0.47394  0.99403  1.0000
  H   H588      1.0  0.73266  0.53828  0.39127  1.0000
  H   H589      1.0  0.70544  0.55058  0.34124  1.0000
  H   H590      1.0  0.59255  0.70904  0.50712  1.0000
  C   C373      1.0  0.80117  0.54287  0.48699  1.0000
  S   S152      1.0  0.75934  0.59923  0.37694  1.0000
  C   C374      1.0  0.61564  0.60723  0.36340  1.0000
  S   S153      1.0  0.61439  0.50071  0.30445  1.0000
  Fe  Fe78      1.0  0.71475  0.61960  0.38512  1.0000
  C   C375      1.0  0.59048  0.61795  0.39130  1.0000
  Fe  Fe79      1.0  0.75632  0.59548  0.47034  1.0000
  H   H591      1.0  0.04071  0.58779  0.44870  1.0000
  H   H592      1.0  0.62659  0.66494  0.29934  1.0000
  H   H593      1.0  0.79716  0.50658  0.53540  1.0000
  H   H594      1.0  0.65128  0.54663  0.36195  1.0000
  H   H595      1.0  0.99733  0.54717  0.40504  1.0000
  H   H596      1.0  0.71605  0.51536  0.47722  1.0000
  H   H597      1.0  0.65623  0.56242  0.42869  1.0000
  S   S154      1.0  0.67523  0.60691  0.33433  1.0000
  S   S155      1.0  0.77953  0.63410  0.48798  1.0000
  S   S156      1.0  0.71026  0.61325  0.47783  1.0000
  H   H598      1.0  0.68062  0.50629  0.33758  1.0000
  H   H599      1.0  0.66984  0.49026  0.40185  1.0000
  S   S157      1.0  0.76704  0.55619  0.51130  1.0000
  H   H600      1.0  0.67689  0.51221  0.49263  1.0000
  H   H601      1.0  0.61333  0.58968  0.33716  1.0000
  C   C376      1.0  0.69378  0.52532  0.47204  1.0000
  C   C377      1.0  0.65697  0.54275  0.40679  1.0000
  C   C378      1.0  0.74737  0.70722  0.55425  1.0000
  H   H602      1.0  0.70978  0.56690  0.40727  1.0000
  H   H603      1.0  0.69462  0.54457  0.49550  1.0000
  H   H604      1.0  0.70878  0.49358  0.38515  1.0000
  N   N36       1.0  0.68674  0.52975  0.41211  1.0000
  C   C379      1.0  0.70976  0.54705  0.38669  1.0000
  C   C380      1.0  0.68657  0.50383  0.38267  1.0000
  H   H605      1.0  0.63887  0.52995  0.42444  1.0000
  C   C381      1.0  0.64371  0.61922  0.36977  1.0000
  H   H606      1.0  0.79015  0.70065  0.39108  1.0000
  H   H607      1.0  0.81186  0.57687  0.43484  1.0000
  Fe  Fe80      1.0  0.77843  0.63964  0.39458  1.0000
  C   C382      1.0  0.81103  0.51789  0.50663  1.0000
  Fe  Fe81      1.0  0.02064  0.64103  0.53730  1.0000
  S   S158      1.0  0.04567  0.64434  0.45615  1.0000
  C   C383      1.0  0.05769  0.57633  0.31148  1.0000
  C   C384      1.0  0.64667  0.64161  0.40425  1.0000
  S   S159      1.0  0.71695  0.68657  0.53922  1.0000
  H   H608      1.0  0.61250  0.68436  0.54746  1.0000
  C   C385      1.0  0.56207  0.50640  0.36334  1.0000
  H   H609      1.0  0.92334  0.66357  0.40161  1.0000
  C   C386      1.0  0.65118  0.71741  0.59627  1.0000
  Fe  Fe82      1.0  0.73350  0.65263  0.48517  1.0000
  C   C387      1.0  0.90030  0.66665  0.41393  1.0000
  S   S160      1.0  0.56233  0.65651  0.45564  1.0000
  S   S161      1.0  0.73400  0.66078  0.39254  1.0000
  H   H610      1.0  0.62373  0.67016  0.45615  1.0000
  C   C388      1.0  0.77500  0.69569  0.56774  1.0000
  C   C389      1.0  0.58103  0.51727  0.32256  1.0000
  C   C390      1.0  0.84043  0.67300  0.44648  1.0000
  H   H611      1.0  0.78665  0.71923  0.45492  1.0000
  S   S162      1.0  0.00590  0.68416  0.53591  1.0000
  H   H612      1.0  0.81747  0.67591  0.45936  1.0000
  C   C391      1.0  0.62156  0.65243  0.43123  1.0000
  H   H613      1.0  0.77691  0.67431  0.57380  1.0000
  H   H614      1.0  0.97706  0.47564  0.37940  1.0000
  S   S163      1.0  0.04395  0.61842  0.60608  1.0000
  H   H615      1.0  0.66823  0.65104  0.40914  1.0000
  C   C392      1.0  0.59347  0.64080  0.42475  1.0000
  C   C393      1.0  0.89332  0.67721  0.46675  1.0000
  C   C394      1.0  0.84728  0.66268  0.39339  1.0000
  H   H616      1.0  0.85815  0.68934  0.52294  1.0000
  S   S164      1.0  0.81856  0.65422  0.34704  1.0000
  H   H617      1.0  0.85811  0.61309  0.47254  1.0000
  H   H618      1.0  0.84437  0.71880  0.38395  1.0000
  H   H619      1.0  0.92030  0.61098  0.57545  1.0000
  C   C395      1.0  0.85056  0.58411  0.56723  1.0000
  S   S165      1.0  0.00609  0.59998  0.35028  1.0000
  S   S166      1.0  0.89319  0.51082  0.43533  1.0000
  C   C396      1.0  0.84731  0.54739  0.43350  1.0000
  H   H620      1.0  0.86120  0.55875  0.40486  1.0000
  C   C397      1.0  0.83903  0.50769  0.48982  1.0000
  H   H621      1.0  0.02500  0.49682  0.30174  1.0000
  C   C398      1.0  0.85731  0.52255  0.45363  1.0000
  H   H622      1.0  0.94580  0.49514  0.35414  1.0000
  H   H623      1.0  0.89661  0.62154  0.48499  1.0000
  S   S167      1.0  0.98581  0.67316  0.40395  1.0000
  H   H624      1.0  0.88266  0.65185  0.33579  1.0000
  H   H625      1.0  0.84681  0.48871  0.50619  1.0000
  H   H626      1.0  0.89946  0.59404  0.62942  1.0000
  H   H627      1.0  0.59610  0.64344  0.28109  1.0000
  H   H628      1.0  0.88160  0.64603  0.57233  1.0000
  S   S168      1.0  0.97876  0.62496  0.49888  1.0000
  C   C399      1.0  0.57225  0.54030  0.29316  1.0000
  H   H629      1.0  0.98208  0.52255  0.26063  1.0000
  H   H630      1.0  0.85715  0.56409  0.55051  1.0000
  C   C400      1.0  0.65118  0.71821  0.49513  1.0000
  Fe  Fe83      1.0  0.02689  0.68563  0.45023  1.0000
  N   N37       1.0  0.98862  0.51462  0.34852  1.0000
  C   C401      1.0  0.97988  0.53264  0.30201  1.0000
  C   C402      1.0  0.98392  0.52847  0.40267  1.0000
  C   C403      1.0  0.96995  0.49032  0.34687  1.0000
  H   H631      1.0  0.95622  0.53964  0.30669  1.0000
  C   C404      1.0  0.86410  0.63049  0.57865  1.0000
  H   H632      1.0  0.91039  0.57642  0.56669  1.0000
  H   H633      1.0  0.99048  0.51553  0.43869  1.0000
  C   C405      1.0  0.87889  0.60665  0.49478  1.0000
  C   C406      1.0  0.05374  0.58234  0.41203  1.0000
  C   C407      1.0  0.02058  0.50699  0.34249  1.0000
  H   H634      1.0  0.02783  0.49295  0.37631  1.0000
  C   C408      1.0  0.90225  0.59604  0.58317  1.0000
  H   H635      1.0  0.88630  0.58725  0.47631  1.0000
  H   H636      1.0  0.82160  0.70279  0.58426  1.0000
  C   C409      1.0  0.60620  0.70597  0.54575  1.0000
  H   H637      1.0  0.99421  0.55076  0.30063  1.0000
  H   H638      1.0  0.84330  0.63776  0.55768  1.0000
  H   H639      1.0  0.84623  0.58173  0.61297  1.0000
  N   N38       1.0  0.87393  0.60431  0.55597  1.0000
  H   H640      1.0  0.85943  0.62934  0.62448  1.0000
  C   C410      1.0  0.81922  0.55752  0.44999  1.0000
  Fe  Fe84      1.0  0.00272  0.63127  0.41726  1.0000
  H   H641      1.0  0.95994  0.53428  0.40874  1.0000
  H   H642      1.0  0.82886  0.58982  0.54729  1.0000
  C   C411      1.0  0.87725  0.65983  0.37684  1.0000
  H   H643      1.0  0.65935  0.69714  0.49366  1.0000
  C   C412      1.0  0.86342  0.68083  0.48243  1.0000
  S   S169      1.0  0.92129  0.68434  0.51554  1.0000
  Fe  Fe85      1.0  0.96610  0.66833  0.48995  1.0000
  H   H644      1.0  0.56893  0.60842  0.38708  1.0000
  C   C413      1.0  0.04136  0.58492  0.35843  1.0000
  H   H645      1.0  0.65862  0.69604  0.59695  1.0000
  C   C414      1.0  0.80027  0.71182  0.57373  1.0000
  H   H646      1.0  0.56900  0.48893  0.38681  1.0000
  H   H647      1.0  0.03540  0.52481  0.34462  1.0000
  H   H648      1.0  0.59135  0.71005  0.58240  1.0000
  H   H649      1.0  0.04813  0.57822  0.26998  1.0000
  H   H650      1.0  0.62245  0.71405  0.28098  1.0000
  C   C415      1.0  0.57451  0.68939  0.32467  1.0000
  H   H651      1.0  0.59225  0.69242  0.35670  1.0000
  H   H652      1.0  0.58702  0.54883  0.26181  1.0000
  H   H653      1.0  0.97172  0.48006  0.30558  1.0000
  S   S170      1.0  0.05364  0.71947  0.41428  1.0000
  N   N39       1.0  0.58742  0.68537  0.26808  1.0000
  C   C416      1.0  0.60804  0.66208  0.26885  1.0000
  H   H654      1.0  0.56110  0.67182  0.33816  1.0000
  C   C417      1.0  0.78424  0.72059  0.40863  1.0000
  H   H655      1.0  0.63829  0.72234  0.45614  1.0000
  H   H656      1.0  0.80920  0.72116  0.30642  1.0000
  H   H657      1.0  0.63844  0.72133  0.63563  1.0000
  H   H658      1.0  0.55942  0.70717  0.32605  1.0000
  N   N40       1.0  0.63295  0.72332  0.54598  1.0000
  N   N41       1.0  0.03032  0.48215  0.99038  1.0000
  H   H659      1.0  0.02285  0.50805  0.91946  1.0000
  H   H660      1.0  0.56019  0.48366  0.22019  1.0000
  C   C418      1.0  0.60399  0.70964  0.25116  1.0000
  C   C419      1.0  0.56302  0.68036  0.22773  1.0000
  C   C420      1.0  0.03235  0.50859  0.96263  1.0000
  H   H661      1.0  0.98481  0.48880  0.01773  1.0000
  H   H662      1.0  0.01988  0.52425  0.98661  1.0000
  H   H663      1.0  0.03063  0.49846  0.07402  1.0000
  H   H664      1.0  0.05608  0.51523  0.95893  1.0000
  H   H665      1.0  0.61842  0.65850  0.22697  1.0000
  C   C421      1.0  0.04309  0.48381  0.04745  1.0000
  H   H666      1.0  0.57184  0.67719  0.18450  1.0000
  H   H667      1.0  0.61395  0.70745  0.20851  1.0000
  Fe  Fe86      1.0  0.61160  0.79596  0.40377  1.0000
  H   H668      1.0  0.72328  0.74407  0.53898  1.0000
  S   S171      1.0  0.65669  0.77940  0.42751  1.0000
  H   H669      1.0  0.71850  0.77531  0.45818  1.0000
  C   C422      1.0  0.74472  0.73510  0.54904  1.0000
  H   H670      1.0  0.02730  0.78211  0.55969  1.0000
  H   H671      1.0  0.75797  0.80966  0.47002  1.0000
  H   H672      1.0  0.67148  0.73108  0.49398  1.0000
  S   S172      1.0  0.75687  0.86684  0.45522  1.0000
  C   C423      1.0  0.77023  0.75127  0.55416  1.0000
  H   H673      1.0  0.77823  0.74433  0.30826  1.0000
  N   N42       1.0  0.72933  0.89608  0.62738  1.0000
  C   C424      1.0  0.71319  0.79626  0.45185  1.0000
  H   H674      1.0  0.69430  0.87138  0.42840  1.0000
  H   H675      1.0  0.71184  0.89040  0.54416  1.0000
  H   H676      1.0  0.80625  0.78477  0.38678  1.0000
  H   H677      1.0  0.77097  0.91716  0.63727  1.0000
  H   H678      1.0  0.76840  0.77266  0.54806  1.0000
  C   C425      1.0  0.79295  0.76816  0.40533  1.0000
  C   C426      1.0  0.03512  0.95468  0.27467  1.0000
  H   H679      1.0  0.95453  0.92139  0.70087  1.0000
  C   C427      1.0  0.05454  0.97047  0.36302  1.0000
  H   H680      1.0  0.76899  0.77180  0.39481  1.0000
  H   H681      1.0  0.56677  0.85126  0.25873  1.0000
  C   C428      1.0  0.73551  0.81563  0.45840  1.0000
  H   H682      1.0  0.71114  0.87413  0.69746  1.0000
  H   H683      1.0  0.65445  0.83707  0.41905  1.0000
  C   C429      1.0  0.72883  0.84266  0.44912  1.0000
  C   C430      1.0  0.68403  0.80396  0.43701  1.0000
  C   C431      1.0  0.67712  0.83107  0.42925  1.0000
  C   C432      1.0  0.69960  0.85042  0.43480  1.0000
  H   H684      1.0  0.04388  0.93403  0.28130  1.0000
  H   H685      1.0  0.60977  0.75682  0.50904  1.0000
  C   C433      1.0  0.59117  0.91563  0.25626  1.0000
  H   H686      1.0  0.99145  0.81947  0.53842  1.0000
  S   S173      1.0  0.78808  0.82764  0.58063  1.0000
  N   N43       1.0  0.02729  0.96774  0.32844  1.0000
  Fe  Fe87      1.0  0.79691  0.85062  0.50158  1.0000
  H   H687      1.0  0.70766  0.93245  0.60043  1.0000
  H   H688      1.0  0.77359  0.88672  0.59823  1.0000
  H   H689      1.0  0.99867  0.96040  0.39967  1.0000
  H   H690      1.0  0.60953  0.75643  0.58440  1.0000
  S   S174      1.0  0.81063  0.87299  0.70002  1.0000
  H   H691      1.0  0.02137  0.79729  0.46268  1.0000
  H   H692      1.0  0.92565  0.93526  0.74555  1.0000
  S   S175      1.0  0.58586  0.82638  0.45376  1.0000
  H   H693      1.0  0.72138  0.93303  0.67129  1.0000
  C   C434      1.0  0.75904  0.90442  0.60632  1.0000
  H   H694      1.0  0.99726  0.76513  0.59528  1.0000
  H   H695      1.0  0.99225  0.97116  0.69002  1.0000
  C   C435      1.0  0.71079  0.92009  0.63896  1.0000
  H   H696      1.0  0.79520  0.76954  0.45177  1.0000
  Fe  Fe88      1.0  0.82728  0.80245  0.55451  1.0000
  H   H697      1.0  0.01494  0.96561  0.75134  1.0000
  C   C436      1.0  0.70884  0.85584  0.28595  1.0000
  H   H698      1.0  0.74680  0.86200  0.67230  1.0000
  H   H699      1.0  0.65260  0.85758  0.32841  1.0000
  S   S176      1.0  0.57346  0.76725  0.39584  1.0000
  H   H700      1.0  0.95022  0.75473  0.54356  1.0000
  H   H701      1.0  0.66877  0.89046  0.32935  1.0000
  C   C437      1.0  0.79816  0.73946  0.56521  1.0000
  C   C438      1.0  0.62338  0.75172  0.54673  1.0000
  H   H702      1.0  0.01198  0.88455  0.52508  1.0000
  C   C439      1.0  0.73310  0.88042  0.67967  1.0000
  C   C440      1.0  0.00512  0.95120  0.35881  1.0000
  N   N44       1.0  0.68149  0.86622  0.25832  1.0000
  H   H703      1.0  0.01425  0.93080  0.36799  1.0000
  H   H704      1.0  0.88648  0.94008  0.65415  1.0000
  C   C441      1.0  0.85707  0.95301  0.72096  1.0000
  S   S177      1.0  0.01476  0.88761  0.64588  1.0000
  H   H705      1.0  0.91047  0.86598  0.60100  1.0000
  C   C442      1.0  0.86704  0.93526  0.67943  1.0000
  H   H706      1.0  0.86107  0.89650  0.64169  1.0000
  H   H707      1.0  0.68817  0.91456  0.65496  1.0000
  H   H708      1.0  0.95231  0.87595  0.66587  1.0000
  H   H709      1.0  0.81608  0.75658  0.30331  1.0000
  Fe  Fe89      1.0  0.86468  0.84951  0.51849  1.0000
  S   S178      1.0  0.90910  0.86009  0.47951  1.0000
  S   S179      1.0  0.86127  0.82706  0.59977  1.0000
  C   C443      1.0  0.71457  0.87936  0.58453  1.0000
  S   S180      1.0  0.82890  0.87952  0.54034  1.0000
  H   H710      1.0  0.01214  0.76394  0.44115  1.0000
  H   H711      1.0  0.93982  0.95437  0.68780  1.0000
  S   S181      1.0  0.83130  0.75802  0.56353  1.0000
  H   H712      1.0  0.95756  0.81275  0.50073  1.0000
  C   C444      1.0  0.96245  0.75886  0.50363  1.0000
  H   H713      1.0  0.97046  0.87359  0.46051  1.0000
  N   N45       1.0  0.80343  0.74182  0.38478  1.0000
  C   C445      1.0  0.83488  0.73749  0.40228  1.0000
  H   H714      1.0  0.72809  0.86108  0.57488  1.0000
  H   H715      1.0  0.76009  0.72421  0.39960  1.0000
  S   S182      1.0  0.60321  0.81605  0.32152  1.0000
  C   C446      1.0  0.65959  0.87466  0.30156  1.0000
  C   C447      1.0  0.82771  0.90424  0.70554  1.0000
  S   S183      1.0  0.83324  0.82279  0.47128  1.0000
  H   H716      1.0  0.96146  0.80171  0.57201  1.0000
  C   C448      1.0  0.00817  0.76816  0.55369  1.0000
  H   H717      1.0  0.83684  0.73585  0.44883  1.0000
  S   S184      1.0  0.57281  0.88811  0.35036  1.0000
  Fe  Fe90      1.0  0.82257  0.85450  0.61758  1.0000
  C   C449      1.0  0.97374  0.80420  0.53161  1.0000
  C   C450      1.0  0.93770  0.86891  0.52644  1.0000
  C   C451      1.0  0.85253  0.91068  0.67214  1.0000
  H   H718      1.0  0.70378  0.83809  0.31272  1.0000
  C   C452      1.0  0.98499  0.88092  0.59987  1.0000
  C   C453      1.0  0.95621  0.87586  0.62108  1.0000
  C   C454      1.0  0.93258  0.86991  0.58441  1.0000
  H   H719      1.0  0.94566  0.76612  0.47259  1.0000
  H   H720      1.0  0.71909  0.87120  0.31368  1.0000
  H   H721      1.0  0.84955  0.75424  0.38867  1.0000
  H   H722      1.0  0.64305  0.76536  0.54656  1.0000
  Fe  Fe91      1.0  0.57341  0.84406  0.37023  1.0000
  C   C455      1.0  0.00249  0.78297  0.45785  1.0000
  H   H723      1.0  0.75731  0.91573  0.56612  1.0000
  H   H724      1.0  0.01775  0.74853  0.54042  1.0000
  H   H725      1.0  0.69201  0.87272  0.59863  1.0000
  C   C456      1.0  0.96640  0.87426  0.50530  1.0000
  C   C457      1.0  0.98997  0.88026  0.54188  1.0000
  N   N46       1.0  0.98669  0.77855  0.51172  1.0000
  H   H726      1.0  0.97140  0.73931  0.48811  1.0000
  H   H727      1.0  0.98431  0.94864  0.33376  1.0000
  H   H728      1.0  0.98714  0.79126  0.42537  1.0000
  H   H729      1.0  0.63896  0.88288  0.28210  1.0000
  Fe  Fe92      1.0  0.56230  0.79045  0.31783  1.0000
  C   C458      1.0  0.99694  0.95692  0.72494  1.0000
  H   H730      1.0  0.74490  0.89223  0.71243  1.0000
  C   C459      1.0  0.80163  0.74103  0.32287  1.0000
  H   H731      1.0  0.00611  0.93820  0.70580  1.0000
  C   C460      1.0  0.57938  0.89175  0.27798  1.0000
  H   H732      1.0  0.59289  0.93306  0.28293  1.0000
  H   H733      1.0  0.72609  0.84967  0.25461  1.0000
  C   C461      1.0  0.94642  0.94005  0.72157  1.0000
  H   H734      1.0  0.67194  0.72969  0.59695  1.0000
  C   C462      1.0  0.81704  0.92249  0.74530  1.0000
  H   H735      1.0  0.79743  0.94587  0.86492  1.0000
  H   H736      1.0  0.66876  0.89778  0.20142  1.0000
  C   C463      1.0  0.66826  0.84497  0.22329  1.0000
  H   H737      1.0  0.85061  0.86882  0.95471  1.0000
  C   C464      1.0  0.57708  0.86936  0.24326  1.0000
  C   C465      1.0  0.72476  0.93492  0.90105  1.0000
  C   C466      1.0  0.58933  0.86982  0.18915  1.0000
  C   C467      1.0  0.68909  0.88945  0.22249  1.0000
  S   S185      1.0  0.62537  0.89036  0.10804  1.0000
  H   H738      1.0  0.64774  0.85228  0.20147  1.0000
  C   C468      1.0  0.72915  0.92472  0.95517  1.0000
  C   C469      1.0  0.75830  0.92203  0.97662  1.0000
  C   C470      1.0  0.78298  0.93007  0.94442  1.0000
  S   S186      1.0  0.66215  0.95156  0.03052  1.0000
  H   H739      1.0  0.70521  0.88382  0.18869  1.0000
  H   H740      1.0  0.71015  0.91836  0.98003  1.0000
  H   H741      1.0  0.76168  0.91393  0.01830  1.0000
  H   H742      1.0  0.61379  0.93417  0.18583  1.0000
  S   S187      1.0  0.61656  0.91314  0.95643  1.0000
  S   S188      1.0  0.68865  0.93877  0.87343  1.0000
  C   C471      1.0  0.60317  0.89294  0.16875  1.0000
  C   C472      1.0  0.60304  0.91625  0.20139  1.0000
  C   C473      1.0  0.87003  0.87370  0.81680  1.0000
  Fe  Fe93      1.0  0.62293  0.92454  0.04687  1.0000
  S   S189      1.0  0.58827  0.95741  0.04632  1.0000
  Fe  Fe94      1.0  0.65307  0.94268  0.94003  1.0000
  C   C474      1.0  0.84555  0.83684  0.86359  1.0000
  H   H743      1.0  0.86927  0.89555  0.91963  1.0000
  H   H744      1.0  0.89269  0.86442  0.82020  1.0000
  H   H745      1.0  0.99424  0.94037  0.83241  1.0000
  H   H746      1.0  0.87285  0.89582  0.81424  1.0000
  C   C475      1.0  0.77850  0.94022  0.89037  1.0000
  C   C476      1.0  0.74949  0.94240  0.86847  1.0000
  H   H747      1.0  0.82382  0.96071  0.78441  1.0000
  N   N47       1.0  0.96964  0.95150  0.75835  1.0000
  H   H748      1.0  0.82459  0.90223  0.85858  1.0000
  H   H749      1.0  0.88697  0.86317  0.92346  1.0000
  H   H750      1.0  0.98554  0.91297  0.78635  1.0000
  H   H751      1.0  0.79741  0.91788  0.77022  1.0000
  Fe  Fe95      1.0  0.58509  0.94830  0.95435  1.0000
  H   H752      1.0  0.05255  0.96615  0.25148  1.0000
  S   S190      1.0  0.96351  0.96840  0.93727  1.0000
  C   C477      1.0  0.82145  0.88016  0.85991  1.0000
  H   H753      1.0  0.58896  0.72754  0.25016  1.0000
  S   S191      1.0  0.81941  0.92680  0.97125  1.0000
  H   H754      1.0  0.83085  0.83045  0.89898  1.0000
  Fe  Fe96      1.0  0.84993  0.95808  0.93505  1.0000
  H   H755      1.0  0.83450  0.83062  0.82381  1.0000
  H   H756      1.0  0.86706  0.82551  0.86683  1.0000
  N   N48       1.0  0.85056  0.86607  0.86455  1.0000
  S   S192      1.0  0.88795  0.94888  0.87659  1.0000
  H   H757      1.0  0.80658  0.87586  0.89644  1.0000
  H   H758      1.0  0.68412  0.83807  0.19014  1.0000
  H   H759      1.0  0.02400  0.97396  0.97567  1.0000
  H   H760      1.0  0.93763  0.97321  0.80831  1.0000
  C   C478      1.0  0.86508  0.87362  0.91785  1.0000
  H   H761      1.0  0.74621  0.95014  0.82647  1.0000
  H   H762      1.0  0.86034  0.86717  0.77612  1.0000
  C   C479      1.0  0.97688  0.93226  0.80366  1.0000
  H   H763      1.0  0.01533  0.95330  0.24649  1.0000
  H   H764      1.0  0.58906  0.85184  0.16384  1.0000
  H   H765      1.0  0.95684  0.92790  0.83006  1.0000
  H   H766      1.0  0.80929  0.87433  0.82121  1.0000
  C   C480      1.0  0.83192  0.94671  0.75337  1.0000
  H   H767      1.0  0.69915  0.90592  0.24740  1.0000
  H   H768      1.0  0.66167  0.82728  0.24895  1.0000
