data_image0
_chemical_formula_structural       HS2FeS2FeHFeCHCSHFe2SCFeHFeS2C6HCH6SH2SHFeHCNH4SNH3C2HC2SH2FeS2H2CHSCH2SFeS2FeS2FeSFeS3FeS2FeS2FeSFeS3FeS2FeS2FeSFeS3FeS2FeS2FeSFeS3HSFeSFeS2FeS2FeSFeS2FeS2C3H2C6H4C6H4C6H6CH3C3NC6H4C6H4C6H4C6H4CHSCHSCHSC7H4CHC4H3C6H5FeSC6H6SCFeSC6H4SNC4H12NC4H12CH2CH5NC4H12NC4H12NC4H12FeHCH2C2SH5NC4H14SH3SFeSNCSH2C2H4C2HNSCHSFeCHFeCH2CH2C2H3NCH2C2HSFeCH2CH3CSHFeH3CHSHNHCH2FeH2C2H2C2H2CH2CH8CHC2H3CH3NH3CHCSHCFeH4SHC2H2CH2C2H2C2H2CH2SH2NHCNHCH2CH3CSH3CHCH5CHC2HCH2CH3SFeS3Fe2CHFeSNFe2SHSHC7H3CH2CSHSH4CSCH2FeSCH4SHCHFeC2H2C2H3CH3C2H4NH8CHCH3SHCH2C2SHCFeCSH4NCHSNH2CH3CH3C2HFeS2FeS2FeSFeS3FeS2FeS2FeSFeS3CH5S2H2NS2HCSC2H3FeS2FeS2FeSFeS3FeS2FeS2FeSFeS3FeS2FeS2FeSFeHS2FeSFeS2FeSFeS2Fe2C6H7CHC6H4C6H4C6H4CH2SH2CHC6H7C6H4CFeH5CSHC6H4C6H2SHC4SCH3SCH2C7H4C6H4C6H3C8NH11CHCHCFeH4C2H2CHSCH4NC4H11NC4H12C2NC4H13CH7NC3H3C2H2SHNC4H12NH5C2HCH4CNC2H2NHSHCH5CHC2H4CNCH3NCH6S3HCSNCHC2H2C2HCH3CH4C2H2CHC2NCH3CFeNH2CH3FeH5CH2FeC2HC3HSHSH2SCFeCHCH6NFeH3FeH2FeC2SCSFeH6SH2SCHSH3CH2CSHSFeH6NCHSCFeH5CH2CH5CNHCHFeH2C2H3CHC2HSH3FeS2FeS2FeSFeS3CSFeSFeS2FeSFeS3FeS2FeS2FeSFeS3CFeS2FeS2FeSFeS3FeS2FeHSFeSFeS3FeS2FeS2FeSFeS4C3H2CH4C6H4C3H2C6H5CHC3H3SC6H4C6H5SC4H2C6H4CNCH2CH2NC6H4C6H4C6H6C2HCNH6C6H4NC4H12NC4H19CHCHNH2CHCH4CH2NC4H11CH2NH2NHCH2CNHSH2NH4CH8CHC2NC2H2C3H3C2NCH6CH5CHC2H2C2H3CHCH3CH3C2H2CH6CH2CH3C2H2CHCHCH3CH4C2H3CNCH3C3H6C2H3C2HCH3CH2CH3C2HC3HNCH3CH8C3H6CH3CS2H2CHC2H2FeS2FeS2FeSFeS2FeS2FeS2FeSFeS3FeS2FeS2FeSFeS3FeSHFeS2FeSFeS3FeS2FeS2FeSFeS3FeHSHS3H6C3H2CH5CSH4C5H3C6H4C6H4C6H4C6H4C6H4C6H4C6H4C6H4C6H6CSC3HCH2C7H5SHCNCFeHCHC6H4NC4H12NC4H13CH2CH2CH2SHCNH3C2HFeSH2FeH2S2HFeNH3NH3CH2SCHCH2C2H7SHNHSCHCH3FeHCHCH3SH4CNCH2SCH3C2FeH6C2SHCH3CH11CH2C2H3SH2NCH2C2H2C2HFeHSH3NH2SHCH2C3H2CH2SC2H3C2HSHCH4CHC2HNH3NHCH3SH3SCH5C2H4CH3SC2NHCHCHSFeHCH2NCHNSNC2H2SC3HSHC2H3CFeH2CH2NFeH5CH3FeS2FeS2FeSFeS4FeS2FeS2FeSFeS4H3CHSH2CHFeH2SCH2FeS2FeS2FeSFeS3FeS2FeS2FeSFeS3FeS2FeSHFeSFeS3FeSHFeS2FeS2C6H5C7H4C6H4C6H8C7H9C2H2C6H6CHSC6H4C6H4NHC3HCFeHC6H4C6H4C8H2FeNHC3H4CHC4SCNC2H14SH6FeH5NHC3NC3HC3SCH6SNC4H15FeHFeCHCHFeH3C2HCHC2HNHCH8NCH4SHSCH3CH3C2H2NC2H2C2FeNCH3SHCH4FeSH4C2H4SH5CH3SHCH6C2HCH2CHC3H2NH5C2H2NC2N2HC2SCH2C2H2CH7C2HC2H5FeCH2SHCHCH2CH2CFeS2C2H5FeHSH5CSHCH3CHFeCHSHNH2CSHCHCHCH2SH4C2H5CHC2NC4H3C2SCH2CNH2SCHCH3C2SCHCFeS2HFeS2H3CHNS2CHFeS2FeS2FeSFeS3FeS2FeS2FeSFeS3HCFeHSH5CS2HSNFeHCHCSHCH5CSCHCH6C6H4C6H2Fe2C6H4CSC6H2C6H8C2H4C6H4SC2NHNC3H6C7H13CH3SH4NCHC2FeH10CFeH11CHC2HCH3CHNHC2HCH2NC2SFeC2HCSHSC2SHSFe2H6FeSH3SH7NH6NCHCHSHC2FeHSH3FeSFeS2FeC2S2HCHSHC2HCH5FeHS2C2SFeC2H2C2HNH2S2HC2HSH3C2HC2SHCHN2HC2H2CHFeH2CFeH5CH2C4HC2HCH3C2H3CHCSCSCHCHFeS2FeS2FeSFeCS2C2HSH2FeS2FeS2Fe2S3FeS2FeS2FeSFeS3FeS2FeS2FeSFeS3CH2FeSHFeSHFeSFeSHSFeS2FeS2FeNFeS3C7H4C6H4C4SH2C6H6C2SCH3C6H4C6H4C2H3C6H6NHC2HCSC7H4C6H4C6H4C3H5CH3CH2C6H4NC4H12NC2H7NC4H13C2H2NH3CH6CH5CH5C2H4NH2NH3C2H2CH2CH2CNH3CHCH3CH3CH2CHNH3CH2CH4CH2CHCH5CH3NCH5CHC2H11CHC3HCNH2SH5C2HNHCHNH2NH3C2H3C5HCH5CHCHSH2NC3H4CH3SH5CHC2SHFeSFeSFeS3HCHSH4CFeSCHCH2SC2HNH2C4H2C5H3CHSH5CSC2HCH3CHC2H2NHSHNC3NCSC2H5CFeH2FeH4SCH2CFeNHCHSH3C2FeHCH2CH5CH6C2HCH5C2H
_chemical_formula_sum              "H1920 S480 Fe240 C1200 N120"
_cell_length_a       107.573
_cell_length_b       107.844
_cell_length_c       37.8707
_cell_angle_alpha    79.0489
_cell_angle_beta     79.0747
_cell_angle_gamma    102.258

_space_group_name_H-M_alt    "P 1"
_space_group_IT_number       1

loop_
  _space_group_symop_operation_xyz
  'x, y, z'

loop_
  _atom_site_type_symbol
  _atom_site_label
  _atom_site_symmetry_multiplicity
  _atom_site_fract_x
  _atom_site_fract_y
  _atom_site_fract_z
  _atom_site_occupancy
  H   H1        1.0  0.07693  0.47287  0.98313  1.0000
  S   S1        1.0  0.00155  0.47861  0.81210  1.0000
  S   S2        1.0  0.01572  0.49006  0.72408  1.0000
  Fe  Fe1       1.0  0.01921  0.47144  0.81851  1.0000
  S   S3        1.0  0.01916  0.46241  0.76909  1.0000
  S   S4        1.0  0.01879  0.46017  0.87632  1.0000
  Fe  Fe2       1.0  0.03255  0.48209  0.73633  1.0000
  H   H2        1.0  0.05097  0.49414  0.02696  1.0000
  Fe  Fe3       1.0  0.01592  0.49673  0.77629  1.0000
  C   C1        1.0  0.06938  0.49849  0.71569  1.0000
  H   H3        1.0  0.04200  0.47228  0.01726  1.0000
  C   C2        1.0  0.07610  0.48916  0.35495  1.0000
  S   S5        1.0  0.03375  0.49033  0.78610  1.0000
  H   H4        1.0  0.07172  0.49900  0.62467  1.0000
  Fe  Fe4       1.0  0.04088  0.48866  0.12408  1.0000
  Fe  Fe5       1.0  0.01323  0.46960  0.14578  1.0000
  S   S6        1.0  0.06251  0.49324  0.12661  1.0000
  C   C3        1.0  0.06201  0.48897  0.96386  1.0000
  Fe  Fe6       1.0  0.02428  0.48562  0.06587  1.0000
  H   H5        1.0  0.06981  0.49828  0.95248  1.0000
  Fe  Fe7       1.0  0.01622  0.49853  0.12865  1.0000
  S   S7        1.0  0.03178  0.47143  0.10296  1.0000
  S   S8        1.0  0.02305  0.48547  0.16986  1.0000
  C   C4        1.0  0.02073  0.46863  0.91177  1.0000
  C   C5        1.0  0.02416  0.48229  0.90395  1.0000
  C   C6        1.0  0.02588  0.48877  0.93235  1.0000
  C   C7        1.0  0.02404  0.48173  0.96905  1.0000
  C   C8        1.0  0.02053  0.46805  0.97704  1.0000
  C   C9        1.0  0.01896  0.46155  0.94846  1.0000
  H   H6        1.0  0.02556  0.48790  0.87594  1.0000
  C   C10       1.0  0.06558  0.49584  0.68399  1.0000
  H   H7        1.0  0.01904  0.46248  0.00512  1.0000
  H   H8        1.0  0.01630  0.45098  0.95483  1.0000
  H   H9        1.0  0.05273  0.46354  0.99711  1.0000
  H   H10       1.0  0.06035  0.48693  0.05551  1.0000
  H   H11       1.0  0.02861  0.49935  0.92578  1.0000
  H   H12       1.0  0.10056  0.48617  0.34998  1.0000
  S   S9        1.0  0.02695  0.49064  0.00301  1.0000
  H   H13       1.0  0.06326  0.48250  0.94451  1.0000
  H   H14       1.0  0.06753  0.49041  0.34343  1.0000
  S   S10       1.0  0.04971  0.48626  0.68646  1.0000
  H   H15       1.0  0.05193  0.46517  0.04390  1.0000
  Fe  Fe8       1.0  0.00235  0.47122  0.76013  1.0000
  H   H16       1.0  0.07422  0.49086  0.38337  1.0000
  C   C11       1.0  0.07519  0.47965  0.00120  1.0000
  N   N1        1.0  0.06237  0.48262  0.00175  1.0000
  H   H17       1.0  0.07578  0.47499  0.02955  1.0000
  H   H18       1.0  0.07646  0.47879  0.35757  1.0000
  H   H19       1.0  0.05247  0.49140  0.96342  1.0000
  H   H20       1.0  0.06264  0.49441  0.74257  1.0000
  S   S11       1.0  0.00522  0.48265  0.10735  1.0000
  N   N2        1.0  0.08839  0.49823  0.33110  1.0000
  H   H21       1.0  0.09835  0.49841  0.37536  1.0000
  H   H22       1.0  0.08337  0.48870  0.99074  1.0000
  H   H23       1.0  0.08231  0.49720  0.28045  1.0000
  C   C12       1.0  0.05183  0.47035  0.01561  1.0000
  C   C13       1.0  0.06044  0.49150  0.02645  1.0000
  H   H24       1.0  0.09128  0.48554  0.29438  1.0000
  C   C14       1.0  0.09951  0.49633  0.34736  1.0000
  C   C15       1.0  0.09048  0.49570  0.29365  1.0000
  S   S12       1.0  0.00040  0.45187  0.19015  1.0000
  H   H25       1.0  0.00033  0.44694  0.83942  1.0000
  H   H26       1.0  0.00045  0.43007  0.84927  1.0000
  Fe  Fe9       1.0  0.22837  0.59796  0.11159  1.0000
  S   S13       1.0  0.20722  0.59134  0.14534  1.0000
  S   S14       1.0  0.22959  0.61151  0.05753  1.0000
  H   H27       1.0  0.00600  0.57738  0.82085  1.0000
  H   H28       1.0  0.03130  0.59378  0.04042  1.0000
  C   C16       1.0  0.08745  0.51183  0.32843  1.0000
  H   H29       1.0  0.16711  0.57716  0.72667  1.0000
  S   S15       1.0  0.24331  0.71428  0.15860  1.0000
  C   C17       1.0  0.24328  0.72611  0.96390  1.0000
  H   H30       1.0  0.00458  0.59895  0.88623  1.0000
  H   H31       1.0  0.14015  0.65563  0.11675  1.0000
  S   S16       1.0  0.23504  0.69428  0.80219  1.0000
  Fe  Fe10      1.0  0.14100  0.54063  0.22718  1.0000
  S   S17       1.0  0.12456  0.52336  0.26277  1.0000
  S   S18       1.0  0.16057  0.53933  0.19484  1.0000
  Fe  Fe11      1.0  0.12640  0.56013  0.24355  1.0000
  S   S19       1.0  0.10907  0.54501  0.28029  1.0000
  S   S20       1.0  0.12428  0.58057  0.23487  1.0000
  Fe  Fe12      1.0  0.12327  0.53579  0.30439  1.0000
  S   S21       1.0  0.11581  0.52749  0.36681  1.0000
  Fe  Fe13      1.0  0.11104  0.53353  0.23665  1.0000
  S   S22       1.0  0.09027  0.52511  0.23033  1.0000
  S   S23       1.0  0.14066  0.55208  0.27108  1.0000
  S   S24       1.0  0.12755  0.54971  0.19776  1.0000
  Fe  Fe14      1.0  0.14229  0.65123  0.25170  1.0000
  S   S25       1.0  0.14610  0.63961  0.30272  1.0000
  S   S26       1.0  0.12217  0.64983  0.23878  1.0000
  Fe  Fe15      1.0  0.17115  0.66795  0.22544  1.0000
  S   S27       1.0  0.17720  0.65744  0.27383  1.0000
  S   S28       1.0  0.18374  0.68425  0.17647  1.0000
  Fe  Fe16      1.0  0.16468  0.63946  0.26392  1.0000
  S   S29       1.0  0.17118  0.62119  0.26073  1.0000
  Fe  Fe17      1.0  0.15818  0.65856  0.30868  1.0000
  S   S30       1.0  0.15506  0.66589  0.36161  1.0000
  S   S31       1.0  0.16015  0.64984  0.21270  1.0000
  S   S32       1.0  0.15290  0.67036  0.26051  1.0000
  Fe  Fe18      1.0  0.12638  0.56610  0.60546  1.0000
  S   S33       1.0  0.13076  0.55268  0.65137  1.0000
  S   S34       1.0  0.12002  0.58368  0.61758  1.0000
  Fe  Fe19      1.0  0.13407  0.55101  0.54810  1.0000
  S   S35       1.0  0.13924  0.53637  0.59045  1.0000
  S   S36       1.0  0.13972  0.55389  0.48507  1.0000
  Fe  Fe20      1.0  0.12043  0.53671  0.62857  1.0000
  S   S37       1.0  0.10705  0.52034  0.67639  1.0000
  Fe  Fe21      1.0  0.14903  0.55362  0.61013  1.0000
  S   S38       1.0  0.16953  0.55608  0.62128  1.0000
  S   S39       1.0  0.11465  0.55028  0.58522  1.0000
  S   S40       1.0  0.14524  0.56814  0.56529  1.0000
  Fe  Fe22      1.0  0.17102  0.66892  0.63452  1.0000
  S   S41       1.0  0.18199  0.65670  0.60529  1.0000
  S   S42       1.0  0.17755  0.68262  0.67080  1.0000
  Fe  Fe23      1.0  0.14476  0.65514  0.62127  1.0000
  S   S43       1.0  0.15381  0.64219  0.59110  1.0000
  S   S44       1.0  0.12289  0.65247  0.62751  1.0000
  Fe  Fe24      1.0  0.16464  0.64008  0.63564  1.0000
  S   S45       1.0  0.16604  0.62004  0.65989  1.0000
  Fe  Fe25      1.0  0.17024  0.65975  0.56208  1.0000
  S   S46       1.0  0.17956  0.65945  0.50286  1.0000
  S   S47       1.0  0.15444  0.65170  0.66826  1.0000
  S   S48       1.0  0.16044  0.67338  0.58896  1.0000
  H   H32       1.0  0.06996  0.54091  0.63652  1.0000
  S   S49       1.0  0.00768  0.51438  0.14556  1.0000
  Fe  Fe26      1.0  0.03975  0.58898  0.85642  1.0000
  S   S50       1.0  0.04133  0.60543  0.80778  1.0000
  Fe  Fe27      1.0  0.05227  0.57387  0.80582  1.0000
  S   S51       1.0  0.05496  0.58897  0.75367  1.0000
  S   S52       1.0  0.05903  0.55576  0.80403  1.0000
  Fe  Fe28      1.0  0.06169  0.60323  0.78667  1.0000
  S   S53       1.0  0.08172  0.61758  0.77391  1.0000
  S   S54       1.0  0.06032  0.58776  0.83747  1.0000
  Fe  Fe29      1.0  0.05345  0.60245  0.09454  1.0000
  S   S55       1.0  0.05735  0.61074  0.03229  1.0000
  Fe  Fe30      1.0  0.05346  0.57740  0.14677  1.0000
  S   S56       1.0  0.05364  0.58627  0.19524  1.0000
  S   S57       1.0  0.05669  0.55744  0.15001  1.0000
  Fe  Fe31      1.0  0.06893  0.60346  0.15648  1.0000
  S   S58       1.0  0.08966  0.60863  0.16654  1.0000
  S   S59       1.0  0.06947  0.59372  0.10892  1.0000
  C   C18       1.0  0.05032  0.60144  0.93735  1.0000
  C   C19       1.0  0.05624  0.60662  0.96340  1.0000
  C   C20       1.0  0.04950  0.60379  0.00080  1.0000
  H   H33       1.0  0.05563  0.60374  0.90865  1.0000
  H   H34       1.0  0.06611  0.61291  0.95447  1.0000
  C   C21       1.0  0.02097  0.52627  0.14909  1.0000
  C   C22       1.0  0.01977  0.53884  0.15044  1.0000
  C   C23       1.0  0.03058  0.54836  0.15242  1.0000
  C   C24       1.0  0.04265  0.54540  0.15206  1.0000
  C   C25       1.0  0.04377  0.53279  0.15123  1.0000
  C   C26       1.0  0.03293  0.52323  0.14997  1.0000
  H   H35       1.0  0.01060  0.54130  0.14924  1.0000
  H   H36       1.0  0.02960  0.55801  0.15367  1.0000
  H   H37       1.0  0.05307  0.53043  0.15112  1.0000
  H   H38       1.0  0.03394  0.51353  0.14951  1.0000
  C   C27       1.0  0.02450  0.52703  0.78650  1.0000
  C   C28       1.0  0.03333  0.52238  0.80484  1.0000
  C   C29       1.0  0.04398  0.53119  0.81045  1.0000
  C   C30       1.0  0.04569  0.54464  0.79793  1.0000
  C   C31       1.0  0.03673  0.54927  0.78012  1.0000
  C   C32       1.0  0.02612  0.54047  0.77457  1.0000
  H   H39       1.0  0.03186  0.51202  0.81527  1.0000
  H   H40       1.0  0.05079  0.52759  0.82473  1.0000
  H   H41       1.0  0.03808  0.55965  0.76996  1.0000
  H   H42       1.0  0.01937  0.54405  0.76001  1.0000
  C   C33       1.0  0.11161  0.64115  0.66633  1.0000
  C   C34       1.0  0.09818  0.63805  0.66707  1.0000
  C   C35       1.0  0.08886  0.63013  0.69913  1.0000
  C   C36       1.0  0.09293  0.62560  0.73102  1.0000
  C   C37       1.0  0.10638  0.62845  0.72993  1.0000
  C   C38       1.0  0.11570  0.63593  0.69753  1.0000
  H   H43       1.0  0.09493  0.64202  0.64303  1.0000
  H   H44       1.0  0.07852  0.62811  0.69977  1.0000
  H   H45       1.0  0.10961  0.62503  0.75454  1.0000
  H   H46       1.0  0.12599  0.63806  0.69729  1.0000
  H   H47       1.0  0.10894  0.50308  0.33013  1.0000
  H   H48       1.0  0.17329  0.69181  0.35253  1.0000
  C   C39       1.0  0.24512  0.64774  0.73739  1.0000
  H   H49       1.0  0.17013  0.68653  0.29420  1.0000
  H   H50       1.0  0.19906  0.68488  0.33311  1.0000
  H   H51       1.0  0.16187  0.53807  0.70838  1.0000
  C   C40       1.0  0.08376  0.50475  0.15120  1.0000
  C   C41       1.0  0.06930  0.51421  0.20416  1.0000
  C   C42       1.0  0.09098  0.51146  0.67811  1.0000
  N   N3        1.0  0.15033  0.52104  0.69691  1.0000
  C   C43       1.0  0.13239  0.59324  0.63247  1.0000
  C   C44       1.0  0.14375  0.58921  0.63580  1.0000
  C   C45       1.0  0.15383  0.59714  0.64633  1.0000
  C   C46       1.0  0.15259  0.60913  0.65333  1.0000
  C   C47       1.0  0.14103  0.61294  0.65135  1.0000
  C   C48       1.0  0.13099  0.60506  0.64059  1.0000
  H   H52       1.0  0.14495  0.58012  0.62963  1.0000
  H   H53       1.0  0.16276  0.59417  0.64774  1.0000
  H   H54       1.0  0.13991  0.62209  0.65751  1.0000
  H   H55       1.0  0.12228  0.60828  0.63787  1.0000
  C   C49       1.0  0.16146  0.66297  0.40147  1.0000
  C   C50       1.0  0.17246  0.65800  0.40153  1.0000
  C   C51       1.0  0.17790  0.65704  0.43273  1.0000
  C   C52       1.0  0.17218  0.66063  0.46460  1.0000
  C   C53       1.0  0.16093  0.66519  0.46497  1.0000
  C   C54       1.0  0.15572  0.66651  0.43338  1.0000
  H   H56       1.0  0.17695  0.65515  0.37734  1.0000
  H   H57       1.0  0.18662  0.65353  0.43216  1.0000
  H   H58       1.0  0.15643  0.66801  0.48922  1.0000
  H   H59       1.0  0.14722  0.67038  0.43363  1.0000
  C   C55       1.0  0.11310  0.63799  0.21984  1.0000
  C   C56       1.0  0.10022  0.63821  0.21769  1.0000
  C   C57       1.0  0.09284  0.62929  0.20174  1.0000
  C   C58       1.0  0.09832  0.62007  0.18749  1.0000
  C   C59       1.0  0.11124  0.61993  0.18943  1.0000
  C   C60       1.0  0.11859  0.62883  0.20543  1.0000
  H   H60       1.0  0.09587  0.64530  0.22854  1.0000
  H   H61       1.0  0.08294  0.62957  0.20043  1.0000
  H   H62       1.0  0.11562  0.61287  0.17848  1.0000
  H   H63       1.0  0.12853  0.62864  0.20639  1.0000
  C   C61       1.0  0.12270  0.53445  0.39998  1.0000
  C   C62       1.0  0.11535  0.53156  0.43684  1.0000
  C   C63       1.0  0.12045  0.53717  0.46360  1.0000
  C   C64       1.0  0.13300  0.54571  0.45372  1.0000
  C   C65       1.0  0.14038  0.54843  0.41697  1.0000
  C   C66       1.0  0.13531  0.54279  0.39034  1.0000
  H   H64       1.0  0.10562  0.52502  0.44475  1.0000
  H   H65       1.0  0.11465  0.53498  0.49174  1.0000
  H   H66       1.0  0.15015  0.55491  0.40910  1.0000
  H   H67       1.0  0.14123  0.54481  0.36241  1.0000
  C   C67       1.0  0.08294  0.51656  0.20024  1.0000
  H   H68       1.0  0.14640  0.51039  0.75357  1.0000
  S   S60       1.0  0.24186  0.61294  0.13049  1.0000
  C   C68       1.0  0.03070  0.59076  0.98576  1.0000
  H   H69       1.0  0.18354  0.69119  0.25382  1.0000
  S   S61       1.0  0.03458  0.50287  0.08425  1.0000
  C   C69       1.0  0.15169  0.53384  0.70650  1.0000
  H   H70       1.0  0.20761  0.70838  0.29893  1.0000
  S   S62       1.0  0.21365  0.60473  0.87546  1.0000
  C   C70       1.0  0.06292  0.50721  0.18182  1.0000
  C   C71       1.0  0.13793  0.59211  0.23807  1.0000
  C   C72       1.0  0.13652  0.60438  0.24205  1.0000
  C   C73       1.0  0.14687  0.61343  0.24794  1.0000
  C   C74       1.0  0.15866  0.61019  0.25035  1.0000
  C   C75       1.0  0.16020  0.59800  0.24558  1.0000
  C   C76       1.0  0.14987  0.58899  0.23914  1.0000
  H   H71       1.0  0.12727  0.60675  0.24155  1.0000
  H   H72       1.0  0.14554  0.62277  0.25154  1.0000
  H   H73       1.0  0.16930  0.59544  0.24731  1.0000
  H   H74       1.0  0.15110  0.57960  0.23551  1.0000
  C   C77       1.0  0.21823  0.69975  0.69013  1.0000
  H   H75       1.0  0.02072  0.58474  0.99450  1.0000
  C   C78       1.0  0.20491  0.68908  0.65294  1.0000
  C   C79       1.0  0.19338  0.68880  0.67785  1.0000
  C   C80       1.0  0.19438  0.69383  0.70922  1.0000
  C   C81       1.0  0.20671  0.69913  0.71559  1.0000
  H   H76       1.0  0.20434  0.68534  0.62858  1.0000
  H   H77       1.0  0.18555  0.69375  0.72859  1.0000
  H   H78       1.0  0.20729  0.70314  0.73951  1.0000
  C   C82       1.0  0.20064  0.69165  0.17088  1.0000
  C   C83       1.0  0.20704  0.68908  0.19930  1.0000
  C   C84       1.0  0.22017  0.69593  0.19494  1.0000
  C   C85       1.0  0.22717  0.70510  0.16171  1.0000
  C   C86       1.0  0.22092  0.70728  0.13277  1.0000
  C   C87       1.0  0.20768  0.70070  0.13752  1.0000
  H   H79       1.0  0.20184  0.68193  0.22469  1.0000
  H   H80       1.0  0.22496  0.69412  0.21735  1.0000
  H   H81       1.0  0.22616  0.71437  0.10715  1.0000
  H   H82       1.0  0.20286  0.70275  0.11530  1.0000
  H   H83       1.0  0.24979  0.58972  0.91571  1.0000
  Fe  Fe32      1.0  0.24719  0.60503  0.03446  1.0000
  S   S63       1.0  0.23830  0.64493  0.07795  1.0000
  C   C88       1.0  0.18650  0.57480  0.70787  1.0000
  C   C89       1.0  0.17331  0.57374  0.70672  1.0000
  C   C90       1.0  0.16804  0.56831  0.67998  1.0000
  C   C91       1.0  0.17588  0.56375  0.65416  1.0000
  C   C92       1.0  0.18908  0.56485  0.65520  1.0000
  C   C93       1.0  0.19439  0.57039  0.68175  1.0000
  H   H84       1.0  0.15788  0.56760  0.67955  1.0000
  H   H85       1.0  0.19523  0.56131  0.63544  1.0000
  H   H86       1.0  0.20452  0.57105  0.68236  1.0000
  H   H87       1.0  0.16339  0.51521  0.72932  1.0000
  H   H88       1.0  0.21656  0.64824  0.80339  1.0000
  H   H89       1.0  0.01446  0.59027  0.86249  1.0000
  S   S64       1.0  0.24499  0.59010  0.08691  1.0000
  C   C94       1.0  0.24134  0.64339  0.77601  1.0000
  Fe  Fe33      1.0  0.23982  0.59199  0.76775  1.0000
  S   S65       1.0  0.01203  0.51630  0.77538  1.0000
  C   C95       1.0  0.19468  0.57655  0.15909  1.0000
  C   C96       1.0  0.18191  0.57702  0.17484  1.0000
  C   C97       1.0  0.17147  0.56568  0.18583  1.0000
  C   C98       1.0  0.17366  0.55370  0.18131  1.0000
  C   C99       1.0  0.18642  0.55320  0.16540  1.0000
  C   C100      1.0  0.19693  0.56457  0.15448  1.0000
  H   H90       1.0  0.18004  0.58621  0.17862  1.0000
  H   H91       1.0  0.16170  0.56622  0.19771  1.0000
  H   H92       1.0  0.18820  0.54393  0.16205  1.0000
  H   H93       1.0  0.20674  0.56402  0.14297  1.0000
  S   S66       1.0  0.03726  0.58516  0.12915  1.0000
  N   N4        1.0  0.20414  0.62788  0.16836  1.0000
  C   C101      1.0  0.19386  0.63501  0.17324  1.0000
  C   C102      1.0  0.20026  0.61560  0.19759  1.0000
  C   C103      1.0  0.21666  0.63610  0.17095  1.0000
  C   C104      1.0  0.20580  0.62482  0.13160  1.0000
  H   H94       1.0  0.19626  0.64417  0.15113  1.0000
  H   H95       1.0  0.19263  0.63778  0.20033  1.0000
  H   H96       1.0  0.18416  0.62889  0.17286  1.0000
  H   H97       1.0  0.20786  0.61001  0.19503  1.0000
  H   H98       1.0  0.19863  0.61750  0.22578  1.0000
  H   H99       1.0  0.19097  0.60906  0.19597  1.0000
  H   H100      1.0  0.22467  0.63107  0.16686  1.0000
  H   H101      1.0  0.21583  0.63854  0.19842  1.0000
  H   H102      1.0  0.21985  0.64546  0.14923  1.0000
  H   H103      1.0  0.19669  0.61826  0.12901  1.0000
  H   H104      1.0  0.21376  0.61977  0.12675  1.0000
  H   H105      1.0  0.20853  0.63385  0.10886  1.0000
  N   N5        1.0  0.05134  0.56255  0.03393  1.0000
  C   C105      1.0  0.04279  0.54908  0.04563  1.0000
  C   C106      1.0  0.04615  0.57056  0.05773  1.0000
  C   C107      1.0  0.05168  0.56830  0.99494  1.0000
  C   C108      1.0  0.06472  0.56234  0.03767  1.0000
  H   H106      1.0  0.03254  0.54891  0.04383  1.0000
  H   H107      1.0  0.04241  0.54444  0.07485  1.0000
  H   H108      1.0  0.04633  0.54275  0.02807  1.0000
  H   H109      1.0  0.04599  0.56663  0.08715  1.0000
  H   H110      1.0  0.05232  0.58083  0.04960  1.0000
  H   H111      1.0  0.03599  0.57084  0.05625  1.0000
  H   H112      1.0  0.04169  0.56849  0.99116  1.0000
  H   H113      1.0  0.05573  0.56267  0.97593  1.0000
  H   H114      1.0  0.05780  0.57859  0.98554  1.0000
  H   H115      1.0  0.06901  0.55639  0.02013  1.0000
  H   H116      1.0  0.06475  0.55810  0.06692  1.0000
  H   H117      1.0  0.07136  0.57239  0.02938  1.0000
  C   C109      1.0  0.11392  0.57957  0.34287  1.0000
  H   H118      1.0  0.10684  0.56989  0.34763  1.0000
  H   H119      1.0  0.10882  0.58585  0.35716  1.0000
  C   C110      1.0  0.20236  0.66000  0.73590  1.0000
  H   H120      1.0  0.20618  0.65491  0.71495  1.0000
  H   H121      1.0  0.19202  0.65456  0.74960  1.0000
  H   H122      1.0  0.20222  0.66982  0.72058  1.0000
  H   H123      1.0  0.22829  0.66402  0.72168  1.0000
  H   H124      1.0  0.22441  0.67874  0.72953  1.0000
  N   N6        1.0  0.20253  0.57869  0.03715  1.0000
  C   C111      1.0  0.20057  0.59196  0.03458  1.0000
  C   C112      1.0  0.21424  0.57789  0.05166  1.0000
  C   C113      1.0  0.20445  0.57592  0.99999  1.0000
  C   C114      1.0  0.19086  0.56903  0.06245  1.0000
  H   H125      1.0  0.19173  0.59289  0.02414  1.0000
  H   H126      1.0  0.20909  0.59950  0.01539  1.0000
  H   H127      1.0  0.19930  0.59441  0.06216  1.0000
  H   H128      1.0  0.21324  0.58019  0.07935  1.0000
  H   H129      1.0  0.21589  0.56793  0.05478  1.0000
  H   H130      1.0  0.22326  0.58489  0.03282  1.0000
  H   H131      1.0  0.20571  0.56588  0.00108  1.0000
  H   H132      1.0  0.21335  0.58285  0.98041  1.0000
  H   H133      1.0  0.19599  0.57680  0.98759  1.0000
  H   H134      1.0  0.19221  0.55894  0.06688  1.0000
  H   H135      1.0  0.18195  0.56895  0.05152  1.0000
  H   H136      1.0  0.18873  0.57125  0.09016  1.0000
  N   N7        1.0  0.20307  0.61622  0.65731  1.0000
  C   C115      1.0  0.21424  0.62548  0.66356  1.0000
  C   C116      1.0  0.19888  0.62248  0.62495  1.0000
  C   C117      1.0  0.19206  0.61242  0.69050  1.0000
  C   C118      1.0  0.20709  0.60446  0.65029  1.0000
  H   H137      1.0  0.21154  0.63443  0.66934  1.0000
  H   H138      1.0  0.22276  0.62861  0.63914  1.0000
  H   H139      1.0  0.21768  0.62099  0.68762  1.0000
  H   H140      1.0  0.19562  0.63131  0.62945  1.0000
  H   H141      1.0  0.20694  0.62551  0.59937  1.0000
  H   H142      1.0  0.19043  0.61569  0.61972  1.0000
  H   H143      1.0  0.19502  0.60829  0.71582  1.0000
  H   H144      1.0  0.18372  0.60484  0.68770  1.0000
  H   H145      1.0  0.18823  0.62090  0.69549  1.0000
  H   H146      1.0  0.21000  0.59931  0.67454  1.0000
  H   H147      1.0  0.21554  0.60694  0.62589  1.0000
  H   H148      1.0  0.19891  0.59735  0.64498  1.0000
  N   N8        1.0  0.15392  0.61803  0.51755  1.0000
  C   C119      1.0  0.16100  0.61754  0.54744  1.0000
  C   C120      1.0  0.14659  0.62815  0.51852  1.0000
  C   C121      1.0  0.14467  0.60516  0.52294  1.0000
  C   C122      1.0  0.16346  0.62128  0.48137  1.0000
  H   H149      1.0  0.16642  0.60981  0.54811  1.0000
  H   H150      1.0  0.15412  0.61534  0.57503  1.0000
  H   H151      1.0  0.16820  0.62705  0.54403  1.0000
  H   H152      1.0  0.13924  0.62598  0.54541  1.0000
  H   H153      1.0  0.15328  0.63796  0.51488  1.0000
  H   H154      1.0  0.14125  0.62893  0.49606  1.0000
  H   H155      1.0  0.13915  0.60513  0.50090  1.0000
  H   H156      1.0  0.13734  0.60246  0.55005  1.0000
  H   H157      1.0  0.14983  0.59724  0.52270  1.0000
  H   H158      1.0  0.16901  0.61373  0.47937  1.0000
  H   H159      1.0  0.17073  0.63082  0.47707  1.0000
  H   H160      1.0  0.15853  0.62210  0.45802  1.0000
  Fe  Fe34      1.0  0.23212  0.61679  0.74090  1.0000
  H   H161      1.0  0.06357  0.51785  0.22463  1.0000
  C   C123      1.0  0.00419  0.59005  0.87520  1.0000
  H   H162      1.0  0.10207  0.58669  0.14395  1.0000
  H   H163      1.0  0.12603  0.68874  0.73237  1.0000
  C   C124      1.0  0.13861  0.68065  0.10671  1.0000
  C   C125      1.0  0.03747  0.59355  0.94838  1.0000
  S   S67       1.0  0.23404  0.70723  0.69516  1.0000
  H   H164      1.0  0.07114  0.56548  0.20788  1.0000
  H   H165      1.0  0.00121  0.61032  0.82540  1.0000
  H   H166      1.0  0.19761  0.68113  0.28959  1.0000
  H   H167      1.0  0.13471  0.57387  0.30579  1.0000
  H   H168      1.0  0.13531  0.50645  0.68632  1.0000
  N   N9        1.0  0.09627  0.58583  0.72871  1.0000
  C   C126      1.0  0.10954  0.58371  0.72489  1.0000
  C   C127      1.0  0.09227  0.58941  0.76414  1.0000
  C   C128      1.0  0.08691  0.57369  0.72820  1.0000
  C   C129      1.0  0.09634  0.59649  0.69761  1.0000
  H   H169      1.0  0.11268  0.58059  0.69896  1.0000
  H   H170      1.0  0.10994  0.57598  0.74841  1.0000
  H   H171      1.0  0.11695  0.59281  0.72388  1.0000
  H   H172      1.0  0.09906  0.59857  0.76554  1.0000
  H   H173      1.0  0.08232  0.59112  0.76778  1.0000
  H   H174      1.0  0.09194  0.58155  0.78832  1.0000
  H   H175      1.0  0.08649  0.56547  0.75157  1.0000
  H   H176      1.0  0.08967  0.57066  0.70189  1.0000
  H   H177      1.0  0.07678  0.57494  0.73112  1.0000
  H   H178      1.0  0.09913  0.59401  0.67043  1.0000
  H   H179      1.0  0.10346  0.60575  0.69679  1.0000
  H   H180      1.0  0.08654  0.59858  0.70008  1.0000
  H   H181      1.0  0.21497  0.64255  0.76251  1.0000
  H   H182      1.0  0.21675  0.61490  0.93861  1.0000
  S   S68       1.0  0.03136  0.57339  0.82910  1.0000
  H   H183      1.0  0.10063  0.51347  0.17003  1.0000
  H   H184      1.0  0.23207  0.61308  0.97959  1.0000
  H   H185      1.0  0.11644  0.58412  0.31254  1.0000
  S   S69       1.0  0.02950  0.58701  0.91652  1.0000
  Fe  Fe35      1.0  0.03436  0.58955  0.77890  1.0000
  S   S70       1.0  0.05382  0.61362  0.13961  1.0000
  N   N10       1.0  0.21052  0.66105  0.76302  1.0000
  C   C130      1.0  0.22403  0.66858  0.74345  1.0000
  S   S71       1.0  0.21149  0.60878  0.77390  1.0000
  H   H186      1.0  0.09960  0.50247  0.27477  1.0000
  H   H187      1.0  0.21114  0.66886  0.81104  1.0000
  C   C131      1.0  0.22397  0.60941  0.93361  1.0000
  C   C132      1.0  0.03669  0.59580  0.01189  1.0000
  H   H188      1.0  0.20494  0.67789  0.77662  1.0000
  H   H189      1.0  0.20058  0.64175  0.79685  1.0000
  H   H190      1.0  0.24257  0.64816  0.82816  1.0000
  H   H191      1.0  0.08846  0.56635  0.13380  1.0000
  C   C133      1.0  0.20511  0.66785  0.79033  1.0000
  C   C134      1.0  0.21064  0.64782  0.78229  1.0000
  H   H192      1.0  0.19491  0.66248  0.80567  1.0000
  N   N11       1.0  0.18854  0.69617  0.30274  1.0000
  S   S72       1.0  0.19243  0.58159  0.74273  1.0000
  C   C135      1.0  0.23256  0.60829  0.95700  1.0000
  H   H193      1.0  0.23058  0.66929  0.76288  1.0000
  S   S73       1.0  0.23895  0.63786  0.70941  1.0000
  Fe  Fe36      1.0  0.24359  0.62606  0.07553  1.0000
  C   C136      1.0  0.22476  0.60354  0.90356  1.0000
  H   H194      1.0  0.11551  0.56208  0.40273  1.0000
  Fe  Fe37      1.0  0.03849  0.59539  0.17538  1.0000
  C   C137      1.0  0.13968  0.67746  0.17074  1.0000
  H   H195      1.0  0.12553  0.55979  0.34165  1.0000
  H   H196      1.0  0.18885  0.70124  0.35495  1.0000
  C   C138      1.0  0.00490  0.56432  0.75955  1.0000
  H   H197      1.0  0.13437  0.52291  0.67156  1.0000
  H   H198      1.0  0.11692  0.57799  0.41218  1.0000
  C   C139      1.0  0.19243  0.68394  0.31394  1.0000
  C   C140      1.0  0.08712  0.50902  0.64629  1.0000
  H   H199      1.0  0.24924  0.62472  0.84619  1.0000
  H   H200      1.0  0.07036  0.54327  0.70042  1.0000
  H   H201      1.0  0.14952  0.69727  0.66500  1.0000
  N   N12       1.0  0.12576  0.57818  0.35604  1.0000
  C   C141      1.0  0.12207  0.57213  0.39627  1.0000
  H   H202      1.0  0.18371  0.67569  0.32850  1.0000
  H   H203      1.0  0.14945  0.54106  0.68510  1.0000
  C   C142      1.0  0.21724  0.69467  0.65885  1.0000
  C   C143      1.0  0.00683  0.57717  0.73953  1.0000
  H   H204      1.0  0.14492  0.53312  0.73337  1.0000
  S   S74       1.0  0.02100  0.59343  0.22250  1.0000
  Fe  Fe38      1.0  0.22019  0.60080  0.81953  1.0000
  C   C144      1.0  0.13212  0.56978  0.33619  1.0000
  H   H205      1.0  0.08502  0.50778  0.73759  1.0000
  H   H206      1.0  0.12883  0.67527  0.18074  1.0000
  C   C145      1.0  0.13498  0.59120  0.34858  1.0000
  H   H207      1.0  0.13050  0.59787  0.36282  1.0000
  H   H208      1.0  0.13085  0.57124  0.40717  1.0000
  H   H209      1.0  0.05677  0.53425  0.73834  1.0000
  C   C146      1.0  0.24584  0.65146  0.79834  1.0000
  S   S75       1.0  0.01894  0.59046  0.74465  1.0000
  H   H210      1.0  0.17627  0.70332  0.26928  1.0000
  Fe  Fe39      1.0  0.21221  0.59036  0.75452  1.0000
  H   H211      1.0  0.09913  0.55727  0.15173  1.0000
  H   H212      1.0  0.13802  0.59593  0.31844  1.0000
  H   H213      1.0  0.14131  0.56880  0.34448  1.0000
  C   C147      1.0  0.17923  0.69422  0.27892  1.0000
  H   H214      1.0  0.08602  0.51422  0.35602  1.0000
  S   S76       1.0  0.24588  0.72634  0.77255  1.0000
  H   H215      1.0  0.14119  0.67772  0.08018  1.0000
  N   N13       1.0  0.09191  0.56917  0.18614  1.0000
  H   H216      1.0  0.14408  0.59051  0.35792  1.0000
  C   C148      1.0  0.09030  0.56089  0.15952  1.0000
  H   H217      1.0  0.13436  0.67877  0.62803  1.0000
  H   H218      1.0  0.22720  0.71094  0.96026  1.0000
  Fe  Fe40      1.0  0.24153  0.70893  0.74729  1.0000
  H   H219      1.0  0.12774  0.67882  0.11465  1.0000
  H   H220      1.0  0.08179  0.55216  0.17148  1.0000
  C   C149      1.0  0.18214  0.69970  0.33621  1.0000
  C   C150      1.0  0.24268  0.59534  0.92055  1.0000
  H   H221      1.0  0.07828  0.57965  0.17030  1.0000
  H   H222      1.0  0.05497  0.55225  0.66787  1.0000
  C   C151      1.0  0.13679  0.51609  0.69361  1.0000
  C   C152      1.0  0.20028  0.70676  0.28200  1.0000
  H   H223      1.0  0.23488  0.59205  0.87361  1.0000
  H   H224      1.0  0.01201  0.60194  0.80388  1.0000
  C   C153      1.0  0.07454  0.50106  0.64933  1.0000
  H   H225      1.0  0.11257  0.57754  0.16274  1.0000
  H   H226      1.0  0.22607  0.69514  0.63885  1.0000
  C   C154      1.0  0.10332  0.58058  0.16960  1.0000
  H   H227      1.0  0.04124  0.54127  0.65980  1.0000
  H   H228      1.0  0.15925  0.51298  0.65376  1.0000
  H   H229      1.0  0.14289  0.69137  0.10134  1.0000
  H   H230      1.0  0.23992  0.66934  0.09763  1.0000
  H   H231      1.0  0.14385  0.68811  0.16728  1.0000
  H   H232      1.0  0.06753  0.52589  0.71636  1.0000
  H   H233      1.0  0.16180  0.67064  0.14620  1.0000
  H   H234      1.0  0.11355  0.68667  0.70686  1.0000
  C   C155      1.0  0.06260  0.53392  0.71113  1.0000
  H   H235      1.0  0.12661  0.65679  0.15085  1.0000
  C   C156      1.0  0.06235  0.53153  0.64921  1.0000
  C   C157      1.0  0.08001  0.57378  0.19549  1.0000
  H   H236      1.0  0.04145  0.54303  0.70575  1.0000
  H   H237      1.0  0.20520  0.70446  0.25629  1.0000
  H   H238      1.0  0.09395  0.51291  0.61949  1.0000
  C   C158      1.0  0.15786  0.67606  0.12471  1.0000
  H   H239      1.0  0.23451  0.63398  0.78885  1.0000
  H   H240      1.0  0.24796  0.70113  0.98394  1.0000
  H   H241      1.0  0.10465  0.58706  0.18904  1.0000
  N   N14       1.0  0.14343  0.67334  0.13605  1.0000
  H   H242      1.0  0.19771  0.71617  0.27340  1.0000
  H   H243      1.0  0.06755  0.52368  0.65285  1.0000
  H   H244      1.0  0.00575  0.52329  0.22835  1.0000
  C   C159      1.0  0.04415  0.51927  0.70037  1.0000
  H   H245      1.0  0.08089  0.58018  0.21526  1.0000
  C   C160      1.0  0.09015  0.51181  0.17346  1.0000
  S   S77       1.0  0.21949  0.58173  0.80354  1.0000
  H   H246      1.0  0.10282  0.55782  0.21374  1.0000
  C   C161      1.0  0.09394  0.56145  0.22011  1.0000
  Fe  Fe41      1.0  0.24129  0.71136  0.82675  1.0000
  H   H247      1.0  0.08551  0.55276  0.23338  1.0000
  H   H248      1.0  0.12826  0.66650  0.73062  1.0000
  H   H249      1.0  0.12942  0.51499  0.71973  1.0000
  H   H250      1.0  0.09533  0.56743  0.24070  1.0000
  S   S78       1.0  0.22999  0.71158  0.88295  1.0000
  H   H251      1.0  0.04866  0.51097  0.70580  1.0000
  C   C162      1.0  0.24178  0.60108  0.95087  1.0000
  C   C163      1.0  0.23425  0.59665  0.89673  1.0000
  H   H252      1.0  0.24925  0.68492  0.00178  1.0000
  H   H253      1.0  0.24482  0.69591  0.92478  1.0000
  C   C164      1.0  0.23569  0.71877  0.94487  1.0000
  H   H254      1.0  0.05631  0.52961  0.62905  1.0000
  H   H255      1.0  0.15110  0.68120  0.66332  1.0000
  C   C165      1.0  0.04770  0.54258  0.67926  1.0000
  C   C166      1.0  0.23915  0.72143  0.90606  1.0000
  H   H256      1.0  0.17891  0.70880  0.32893  1.0000
  H   H257      1.0  0.16268  0.68662  0.12057  1.0000
  C   C167      1.0  0.08207  0.50609  0.71277  1.0000
  C   C168      1.0  0.15322  0.51172  0.72627  1.0000
  H   H258      1.0  0.14797  0.68539  0.70701  1.0000
  H   H259      1.0  0.13186  0.66227  0.68700  1.0000
  C   C169      1.0  0.14556  0.68675  0.67944  1.0000
  H   H260      1.0  0.14076  0.65335  0.16457  1.0000
  H   H261      1.0  0.03776  0.51718  0.68118  1.0000
  S   S79       1.0  0.23257  0.59922  0.71724  1.0000
  H   H262      1.0  0.15732  0.52904  0.63816  1.0000
  H   H263      1.0  0.01110  0.56219  0.77806  1.0000
  N   N15       1.0  0.05420  0.53184  0.68497  1.0000
  H   H264      1.0  0.16111  0.67318  0.09848  1.0000
  C   C170      1.0  0.12878  0.68400  0.64527  1.0000
  N   N16       1.0  0.13133  0.68224  0.68271  1.0000
  H   H265      1.0  0.13171  0.69448  0.63024  1.0000
  C   C171      1.0  0.12664  0.66826  0.70213  1.0000
  H   H266      1.0  0.11823  0.68000  0.64645  1.0000
  H   H267      1.0  0.05243  0.50550  0.18534  1.0000
  C   C172      1.0  0.13752  0.65918  0.14216  1.0000
  H   H268      1.0  0.11600  0.66435  0.70428  1.0000
  H   H269      1.0  0.12762  0.70050  0.69015  1.0000
  H   H270      1.0  0.14326  0.67218  0.19329  1.0000
  C   C173      1.0  0.12432  0.68989  0.70396  1.0000
  S   S80       1.0  0.24082  0.61022  0.78782  1.0000
  H   H271      1.0  0.03773  0.51921  0.72712  1.0000
  H   H272      1.0  0.24058  0.72400  0.99384  1.0000
  H   H273      1.0  0.16988  0.52699  0.66182  1.0000
  C   C174      1.0  0.15960  0.52252  0.66122  1.0000
  H   H274      1.0  0.07929  0.51377  0.31583  1.0000
  C   C175      1.0  0.24944  0.66962  0.08131  1.0000
  H   H275      1.0  0.01324  0.54635  0.22907  1.0000
  H   H276      1.0  0.06832  0.50078  0.01740  1.0000
  H   H277      1.0  0.00551  0.52928  0.28906  1.0000
  H   H278      1.0  0.00668  0.58383  0.17058  1.0000
  H   H279      1.0  0.09658  0.51881  0.31067  1.0000
  C   C176      1.0  0.00508  0.58332  0.22834  1.0000
  H   H280      1.0  0.24553  0.67951  0.94274  1.0000
  C   C177      1.0  0.00156  0.60112  0.81653  1.0000
  C   C178      1.0  0.00292  0.54705  0.23238  1.0000
  H   H281      1.0  0.00147  0.55054  0.20422  1.0000
  C   C179      1.0  0.07010  0.50238  0.15519  1.0000
  H   H282      1.0  0.15225  0.50193  0.71998  1.0000
  H   H283      1.0  0.08944  0.50107  0.13079  1.0000
  C   C180      1.0  0.00038  0.58024  0.19822  1.0000
  H   H284      1.0  0.00185  0.55482  0.24747  1.0000
  H   H285      1.0  0.00053  0.58138  0.89917  1.0000
  H   H286      1.0  0.00022  0.58116  0.28745  1.0000
  S   S81       1.0  0.48402  0.02546  0.15789  1.0000
  Fe  Fe42      1.0  0.47112  0.01520  0.81609  1.0000
  S   S82       1.0  0.45629  0.01712  0.78154  1.0000
  S   S83       1.0  0.46854  0.00947  0.87887  1.0000
  S   S84       1.0  0.47904  0.01777  0.70899  1.0000
  Fe  Fe43      1.0  0.47307  0.03239  0.73956  1.0000
  Fe  Fe44      1.0  0.49777  0.02551  0.10524  1.0000
  C   C181      1.0  0.43976  0.03166  0.70576  1.0000
  H   H287      1.0  0.48400  0.07284  0.63736  1.0000
  Fe  Fe45      1.0  0.46844  0.01695  0.13097  1.0000
  S   S85       1.0  0.48234  0.01539  0.08058  1.0000
  N   N17       1.0  0.44146  0.02377  0.67811  1.0000
  Fe  Fe46      1.0  0.48366  0.04535  0.12691  1.0000
  Fe  Fe47      1.0  0.48166  0.03575  0.05525  1.0000
  S   S86       1.0  0.48003  0.04308  0.99614  1.0000
  H   H288      1.0  0.45601  0.02389  0.63030  1.0000
  S   S87       1.0  0.46667  0.03682  0.10413  1.0000
  H   H289      1.0  0.48495  0.06307  0.75195  1.0000
  C   C182      1.0  0.47190  0.01911  0.91070  1.0000
  C   C183      1.0  0.47207  0.01279  0.94666  1.0000
  C   C184      1.0  0.47480  0.01999  0.97292  1.0000
  C   C185      1.0  0.47713  0.03360  0.96367  1.0000
  C   C186      1.0  0.47696  0.03992  0.92772  1.0000
  C   C187      1.0  0.47445  0.03273  0.90124  1.0000
  C   C188      1.0  0.48360  0.06632  0.69513  1.0000
  H   H290      1.0  0.47500  0.01502  0.00035  1.0000
  H   H291      1.0  0.47873  0.05045  0.92036  1.0000
  H   H292      1.0  0.47429  0.03772  0.87375  1.0000
  C   C189      1.0  0.49517  0.08287  0.72145  1.0000
  H   H293      1.0  0.43107  0.03360  0.64350  1.0000
  H   H294      1.0  0.44059  0.01904  0.10964  1.0000
  C   C190      1.0  0.43277  0.01367  0.09850  1.0000
  S   S88       1.0  0.45001  0.00103  0.16265  1.0000
  H   H295      1.0  0.49857  0.16047  0.73777  1.0000
  S   S89       1.0  0.48706  0.03156  0.77649  1.0000
  H   H296      1.0  0.49781  0.08577  0.74542  1.0000
  H   H297      1.0  0.44946  0.02187  0.00805  1.0000
  H   H298      1.0  0.45550  0.00762  0.07928  1.0000
  H   H299      1.0  0.45380  0.02878  0.04478  1.0000
  C   C191      1.0  0.43092  0.02356  0.65806  1.0000
  S   S90       1.0  0.47244  0.05096  0.70043  1.0000
  C   C192      1.0  0.49865  0.09214  0.68728  1.0000
  H   H300      1.0  0.45523  0.03986  0.63697  1.0000
  H   H301      1.0  0.48193  0.08112  0.19981  1.0000
  Fe  Fe48      1.0  0.46354  0.00244  0.75312  1.0000
  S   S91       1.0  0.48265  0.06228  0.15518  1.0000
  C   C193      1.0  0.45433  0.02960  0.65153  1.0000
  H   H302      1.0  0.44052  0.04201  0.69236  1.0000
  H   H303      1.0  0.49488  0.00853  0.89559  1.0000
  H   H304      1.0  0.48425  0.13769  0.75347  1.0000
  H   H305      1.0  0.42565  0.01971  0.09577  1.0000
  S   S92       1.0  0.49852  0.04587  0.07572  1.0000
  H   H306      1.0  0.47014  0.00224  0.95417  1.0000
  C   C194      1.0  0.48734  0.07551  0.66076  1.0000
  H   H307      1.0  0.44748  0.03190  0.72161  1.0000
  Fe  Fe49      1.0  0.49194  0.01609  0.74844  1.0000
  C   C195      1.0  0.44084  0.01027  0.69711  1.0000
  C   C196      1.0  0.49502  0.08829  0.65666  1.0000
  H   H308      1.0  0.49197  0.13064  0.14119  1.0000
  H   H309      1.0  0.44890  0.01003  0.71159  1.0000
  C   C197      1.0  0.49208  0.08105  0.19102  1.0000
  C   C198      1.0  0.48789  0.06997  0.72522  1.0000
  H   H310      1.0  0.43012  0.02766  0.72616  1.0000
  H   H311      1.0  0.46249  0.02995  0.66582  1.0000
  H   H312      1.0  0.49386  0.13241  0.78455  1.0000
  C   C199      1.0  0.49532  0.07254  0.16880  1.0000
  H   H313      1.0  0.42770  0.00445  0.11997  1.0000
  H   H314      1.0  0.44173  0.00390  0.67734  1.0000
  H   H315      1.0  0.42053  0.01006  0.04407  1.0000
  C   C200      1.0  0.44539  0.02347  0.03563  1.0000
  C   C201      1.0  0.49312  0.13407  0.75520  1.0000
  H   H316      1.0  0.49913  0.09560  0.22001  1.0000
  H   H317      1.0  0.49148  0.12439  0.74790  1.0000
  H   H318      1.0  0.43891  0.03014  0.03155  1.0000
  H   H319      1.0  0.49023  0.00114  0.22551  1.0000
  N   N18       1.0  0.43830  0.01100  0.06273  1.0000
  H   H320      1.0  0.43147  0.00563  0.71836  1.0000
  H   H321      1.0  0.43147  0.00187  0.02176  1.0000
  H   H322      1.0  0.42109  0.01914  0.67733  1.0000
  H   H323      1.0  0.49524  0.14357  0.18816  1.0000
  H   H324      1.0  0.43195  0.01770  0.63690  1.0000
  H   H325      1.0  0.49683  0.11749  0.16729  1.0000
  H   H326      1.0  0.49675  0.02872  0.84957  1.0000
  H   H327      1.0  0.49747  0.09535  0.63031  1.0000
  C   C202      1.0  0.42760  0.00409  0.04866  1.0000
  H   H328      1.0  0.49490  0.14889  0.68821  1.0000
  C   C203      1.0  0.44745  0.00274  0.06816  1.0000
  H   H329      1.0  0.45197  0.00063  0.04173  1.0000
  H   H330      1.0  0.49969  0.13023  0.21472  1.0000
  H   H331      1.0  0.47791  0.49033  0.64809  1.0000
  S   S93       1.0  0.47412  0.49015  0.06911  1.0000
  H   H332      1.0  0.46050  0.49364  0.90592  1.0000
  C   C204      1.0  0.47593  0.46989  0.00408  1.0000
  H   H333      1.0  0.46892  0.46680  0.03177  1.0000
  H   H334      1.0  0.47834  0.48073  0.99574  1.0000
  C   C205      1.0  0.47915  0.49598  0.86882  1.0000
  C   C206      1.0  0.49662  0.46915  0.96740  1.0000
  S   S94       1.0  0.47227  0.49217  0.83211  1.0000
  H   H335      1.0  0.49162  0.46533  0.94700  1.0000
  C   C207      1.0  0.48648  0.49867  0.57405  1.0000
  Fe  Fe50      1.0  0.48997  0.49210  0.10032  1.0000
  C   C208      1.0  0.48415  0.45084  0.01801  1.0000
  S   S95       1.0  0.48539  0.49427  0.72325  1.0000
  H   H336      1.0  0.47886  0.44614  0.99943  1.0000
  H   H337      1.0  0.48908  0.48038  0.65453  1.0000
  H   H338      1.0  0.49779  0.48192  0.02143  1.0000
  H   H339      1.0  0.49558  0.47684  0.57665  1.0000
  N   N19       1.0  0.49361  0.49319  0.60029  1.0000
  C   C209      1.0  0.47100  0.49583  0.90274  1.0000
  H   H340      1.0  0.47074  0.46616  0.98392  1.0000
  S   S96       1.0  0.49505  0.47370  0.12641  1.0000
  N   N20       1.0  0.48786  0.46523  0.00500  1.0000
  H   H341      1.0  0.47761  0.44760  0.04645  1.0000
  H   H342      1.0  0.47737  0.47651  0.62777  1.0000
  C   C210      1.0  0.48408  0.48472  0.63411  1.0000
  H   H343      1.0  0.47999  0.49081  0.56576  1.0000
  H   H344      1.0  0.48838  0.46843  0.05916  1.0000
  H   H345      1.0  0.49839  0.46797  0.30132  1.0000
  C   C211      1.0  0.49474  0.47105  0.03059  1.0000
  H   H346      1.0  0.49292  0.44698  0.01906  1.0000
  H   H347      1.0  0.49987  0.47998  0.95722  1.0000
  H   H348      1.0  0.49904  0.49853  0.83947  1.0000
  C   C212      1.0  0.49269  0.49869  0.86504  1.0000
  C   C213      1.0  0.47640  0.49882  0.93221  1.0000
  H   H349      1.0  0.47008  0.49899  0.95788  1.0000
  Fe  Fe51      1.0  0.45176  0.57845  0.24371  1.0000
  S   S97       1.0  0.43867  0.59183  0.25167  1.0000
  S   S98       1.0  0.47306  0.58523  0.24327  1.0000
  Fe  Fe52      1.0  0.43024  0.55663  0.23696  1.0000
  S   S99       1.0  0.41499  0.56786  0.24703  1.0000
  S   S100      1.0  0.42296  0.53678  0.22594  1.0000
  Fe  Fe53      1.0  0.43004  0.58478  0.20732  1.0000
  S   S101      1.0  0.42521  0.59689  0.15841  1.0000
  Fe  Fe54      1.0  0.42467  0.57390  0.29097  1.0000
  S   S102      1.0  0.41361  0.57760  0.34345  1.0000
  S   S103      1.0  0.44484  0.57329  0.19481  1.0000
  S   S104      1.0  0.43826  0.56080  0.28542  1.0000
  Fe  Fe55      1.0  0.42228  0.55947  0.62687  1.0000
  S   S105      1.0  0.43886  0.56945  0.57758  1.0000
  S   S106      1.0  0.42423  0.54291  0.67040  1.0000
  Fe  Fe56      1.0  0.40487  0.57688  0.60190  1.0000
  S   S107      1.0  0.42022  0.58767  0.54957  1.0000
  S   S108      1.0  0.38704  0.58503  0.61010  1.0000
  Fe  Fe57      1.0  0.42334  0.56806  0.54526  1.0000
  S   S109      1.0  0.42896  0.55988  0.49549  1.0000
  Fe  Fe58      1.0  0.43401  0.58784  0.58696  1.0000
  S   S110      1.0  0.44920  0.60635  0.58073  1.0000
  S   S111      1.0  0.40675  0.55706  0.59449  1.0000
  S   S112      1.0  0.41863  0.57817  0.63943  1.0000
  C   C214      1.0  0.43634  0.51909  0.57427  1.0000
  H   H350      1.0  0.48889  0.59469  0.76343  1.0000
  H   H351      1.0  0.26196  0.60928  0.82589  1.0000
  H   H352      1.0  0.40923  0.72854  0.01733  1.0000
  H   H353      1.0  0.39336  0.55080  0.11500  1.0000
  H   H354      1.0  0.36532  0.64918  0.94214  1.0000
  S   S113      1.0  0.26365  0.74589  0.96718  1.0000
  S   S114      1.0  0.27631  0.60290  0.12092  1.0000
  H   H355      1.0  0.49180  0.74020  0.75319  1.0000
  H   H356      1.0  0.45599  0.73755  0.77606  1.0000
  N   N21       1.0  0.27020  0.62802  0.83547  1.0000
  S   S115      1.0  0.47592  0.65738  0.31286  1.0000
  S   S116      1.0  0.25225  0.59911  0.98068  1.0000
  H   H357      1.0  0.47193  0.63696  0.80666  1.0000
  C   C215      1.0  0.46951  0.68634  0.23813  1.0000
  S   S117      1.0  0.25736  0.58372  0.77180  1.0000
  C   C216      1.0  0.48999  0.50166  0.92807  1.0000
  C   C217      1.0  0.40927  0.61273  0.62037  1.0000
  H   H358      1.0  0.27550  0.68517  0.92240  1.0000
  H   H359      1.0  0.31884  0.67921  0.12122  1.0000
  H   H360      1.0  0.30355  0.68209  0.06106  1.0000
  Fe  Fe59      1.0  0.35044  0.64159  0.08469  1.0000
  S   S118      1.0  0.35531  0.62214  0.08803  1.0000
  S   S119      1.0  0.33068  0.64595  0.08265  1.0000
  Fe  Fe60      1.0  0.37940  0.65679  0.06861  1.0000
  S   S120      1.0  0.38637  0.63865  0.07049  1.0000
  S   S121      1.0  0.39578  0.67538  0.04886  1.0000
  Fe  Fe61      1.0  0.37163  0.63293  0.03828  1.0000
  S   S122      1.0  0.37810  0.62616  0.98720  1.0000
  Fe  Fe62      1.0  0.36978  0.62948  0.12027  1.0000
  S   S123      1.0  0.37360  0.61729  0.17110  1.0000
  S   S124      1.0  0.36590  0.65176  0.03219  1.0000
  S   S125      1.0  0.36364  0.64825  0.12126  1.0000
  Fe  Fe63      1.0  0.35013  0.60457  0.78161  1.0000
  S   S126      1.0  0.34969  0.62185  0.73878  1.0000
  S   S127      1.0  0.35736  0.58724  0.76953  1.0000
  Fe  Fe64      1.0  0.33936  0.61563  0.84585  1.0000
  S   S128      1.0  0.33803  0.63367  0.80766  1.0000
  S   S129      1.0  0.33211  0.61412  0.90702  1.0000
  Fe  Fe65      1.0  0.32981  0.61999  0.77489  1.0000
  S   S130      1.0  0.31301  0.62324  0.74888  1.0000
  Fe  Fe66      1.0  0.35791  0.63377  0.77584  1.0000
  S   S131      1.0  0.37415  0.65249  0.75377  1.0000
  S   S132      1.0  0.32967  0.60186  0.81554  1.0000
  S   S133      1.0  0.35982  0.61658  0.81599  1.0000
  Fe  Fe67      1.0  0.46246  0.72466  0.09049  1.0000
  S   S134      1.0  0.44327  0.72789  0.11560  1.0000
  S   S135      1.0  0.46848  0.73113  0.02824  1.0000
  Fe  Fe68      1.0  0.46826  0.71603  0.16570  1.0000
  S   S136      1.0  0.44944  0.71903  0.19656  1.0000
  S   S137      1.0  0.48432  0.71002  0.19103  1.0000
  Fe  Fe69      1.0  0.44049  0.70909  0.15665  1.0000
  S   S138      1.0  0.42092  0.69406  0.17423  1.0000
  Fe  Fe70      1.0  0.45400  0.73777  0.15235  1.0000
  H   H361      1.0  0.26571  0.74727  0.88978  1.0000
  S   S139      1.0  0.45896  0.70492  0.12866  1.0000
  S   S140      1.0  0.47349  0.73562  0.12449  1.0000
  Fe  Fe71      1.0  0.45277  0.70119  0.80517  1.0000
  S   S141      1.0  0.43370  0.70638  0.80168  1.0000
  Fe  Fe72      1.0  0.44640  0.69605  0.88881  1.0000
  S   S142      1.0  0.42714  0.70088  0.89131  1.0000
  S   S143      1.0  0.44951  0.68787  0.94467  1.0000
  Fe  Fe73      1.0  0.42468  0.68891  0.84961  1.0000
  S   S144      1.0  0.40649  0.67206  0.86486  1.0000
  Fe  Fe74      1.0  0.43812  0.71795  0.84371  1.0000
  S   S145      1.0  0.44341  0.68300  0.84997  1.0000
  S   S146      1.0  0.45777  0.71395  0.84400  1.0000
  Fe  Fe75      1.0  0.27714  0.71300  0.05308  1.0000
  Fe  Fe76      1.0  0.25603  0.69377  0.79485  1.0000
  C   C218      1.0  0.46388  0.71888  0.00510  1.0000
  C   C219      1.0  0.45854  0.70581  0.02449  1.0000
  C   C220      1.0  0.45441  0.69627  0.00562  1.0000
  C   C221      1.0  0.45549  0.69979  0.96739  1.0000
  C   C222      1.0  0.46093  0.71283  0.94796  1.0000
  C   C223      1.0  0.46513  0.72235  0.96677  1.0000
  H   H362      1.0  0.45754  0.70305  0.05401  1.0000
  H   H363      1.0  0.45023  0.68620  0.02077  1.0000
  H   H364      1.0  0.46193  0.71560  0.91842  1.0000
  H   H365      1.0  0.46930  0.73243  0.95163  1.0000
  H   H366      1.0  0.46132  0.68823  0.22721  1.0000
  H   H367      1.0  0.27436  0.70791  0.89803  1.0000
  H   H368      1.0  0.42877  0.66087  0.99895  1.0000
  C   C224      1.0  0.48049  0.68581  0.78442  1.0000
  H   H369      1.0  0.42456  0.55075  0.14324  1.0000
  C   C225      1.0  0.38443  0.65738  0.78260  1.0000
  C   C226      1.0  0.38435  0.64889  0.81557  1.0000
  C   C227      1.0  0.39183  0.65332  0.83945  1.0000
  C   C228      1.0  0.39940  0.66630  0.83077  1.0000
  C   C229      1.0  0.39996  0.67466  0.79709  1.0000
  C   C230      1.0  0.39250  0.67019  0.77305  1.0000
  H   H370      1.0  0.37833  0.63897  0.82309  1.0000
  H   H371      1.0  0.39151  0.64673  0.86521  1.0000
  H   H372      1.0  0.40573  0.68470  0.79017  1.0000
  H   H373      1.0  0.39267  0.67680  0.74747  1.0000
  C   C231      1.0  0.40269  0.68076  0.08355  1.0000
  C   C232      1.0  0.39501  0.67871  0.11932  1.0000
  C   C233      1.0  0.40065  0.68310  0.14669  1.0000
  C   C234      1.0  0.41399  0.68960  0.13846  1.0000
  C   C235      1.0  0.42167  0.69177  0.10255  1.0000
  C   C236      1.0  0.41602  0.68731  0.07518  1.0000
  H   H374      1.0  0.38468  0.67382  0.12584  1.0000
  H   H375      1.0  0.39465  0.68150  0.17436  1.0000
  H   H376      1.0  0.43200  0.69663  0.09610  1.0000
  H   H377      1.0  0.42207  0.68869  0.04773  1.0000
  C   C237      1.0  0.36500  0.62174  0.96686  1.0000
  C   C238      1.0  0.35251  0.62285  0.98237  1.0000
  C   C239      1.0  0.34234  0.62013  0.96438  1.0000
  C   C240      1.0  0.34465  0.61639  0.93076  1.0000
  C   C241      1.0  0.35705  0.61501  0.91582  1.0000
  C   C242      1.0  0.36722  0.61769  0.93378  1.0000
  H   H378      1.0  0.35074  0.62597  0.00796  1.0000
  H   H379      1.0  0.33278  0.62126  0.97611  1.0000
  H   H380      1.0  0.35882  0.61171  0.89067  1.0000
  H   H381      1.0  0.37684  0.61674  0.92181  1.0000
  C   C243      1.0  0.48933  0.67787  0.78369  1.0000
  H   H382      1.0  0.40292  0.53640  0.17893  1.0000
  H   H383      1.0  0.38861  0.54269  0.18333  1.0000
  S   S147      1.0  0.47871  0.52071  0.74630  1.0000
  H   H384      1.0  0.36964  0.67818  0.90554  1.0000
  H   H385      1.0  0.28107  0.59771  0.97942  1.0000
  C   C244      1.0  0.28205  0.59190  0.00594  1.0000
  H   H386      1.0  0.31320  0.67051  0.06866  1.0000
  C   C245      1.0  0.27265  0.59483  0.76660  1.0000
  C   C246      1.0  0.27561  0.60763  0.74517  1.0000
  C   C247      1.0  0.28805  0.61614  0.73994  1.0000
  C   C248      1.0  0.29751  0.61210  0.75699  1.0000
  C   C249      1.0  0.29446  0.59939  0.77921  1.0000
  C   C250      1.0  0.28214  0.59073  0.78346  1.0000
  H   H387      1.0  0.26844  0.61087  0.73173  1.0000
  H   H388      1.0  0.29035  0.62590  0.72243  1.0000
  H   H389      1.0  0.30156  0.59618  0.79293  1.0000
  H   H390      1.0  0.27989  0.58085  0.80019  1.0000
  H   H391      1.0  0.35608  0.67008  0.84681  1.0000
  H   H392      1.0  0.43111  0.54262  0.56460  1.0000
  H   H393      1.0  0.28344  0.67099  0.02164  1.0000
  C   C251      1.0  0.29150  0.61484  0.10892  1.0000
  C   C252      1.0  0.29296  0.62757  0.08874  1.0000
  C   C253      1.0  0.30517  0.63682  0.07973  1.0000
  C   C254      1.0  0.31599  0.63352  0.09112  1.0000
  C   C255      1.0  0.31463  0.62072  0.11047  1.0000
  C   C256      1.0  0.30242  0.61142  0.11935  1.0000
  H   H394      1.0  0.28467  0.63031  0.08037  1.0000
  H   H395      1.0  0.30623  0.64660  0.06407  1.0000
  H   H396      1.0  0.32287  0.61805  0.11949  1.0000
  H   H397      1.0  0.30139  0.60160  0.13493  1.0000
  C   C257      1.0  0.42317  0.51859  0.18537  1.0000
  Fe  Fe77      1.0  0.26631  0.72364  0.76757  1.0000
  H   H398      1.0  0.37281  0.67040  0.84727  1.0000
  H   H399      1.0  0.43134  0.51833  0.50729  1.0000
  H   H400      1.0  0.46154  0.63737  0.71815  1.0000
  H   H401      1.0  0.43870  0.63093  0.78684  1.0000
  H   H402      1.0  0.36778  0.64399  0.89961  1.0000
  C   C258      1.0  0.30328  0.67217  0.07689  1.0000
  S   S148      1.0  0.47798  0.60044  0.39239  1.0000
  H   H403      1.0  0.47908  0.72526  0.76770  1.0000
  C   C259      1.0  0.37924  0.58582  0.65466  1.0000
  C   C260      1.0  0.37982  0.57716  0.68646  1.0000
  C   C261      1.0  0.37312  0.57776  0.72155  1.0000
  C   C262      1.0  0.36613  0.58725  0.72517  1.0000
  C   C263      1.0  0.36591  0.59618  0.69343  1.0000
  C   C264      1.0  0.37222  0.59530  0.65823  1.0000
  H   H404      1.0  0.38513  0.56977  0.68399  1.0000
  H   H405      1.0  0.37331  0.57080  0.74602  1.0000
  H   H406      1.0  0.36070  0.60361  0.69597  1.0000
  H   H407      1.0  0.37177  0.60204  0.63367  1.0000
  C   C265      1.0  0.43812  0.53646  0.66457  1.0000
  C   C266      1.0  0.43998  0.52790  0.69485  1.0000
  C   C267      1.0  0.45049  0.52201  0.69075  1.0000
  C   C268      1.0  0.45904  0.52437  0.65602  1.0000
  C   C269      1.0  0.45727  0.53300  0.62575  1.0000
  C   C270      1.0  0.44697  0.53918  0.63011  1.0000
  H   H408      1.0  0.43320  0.52574  0.72163  1.0000
  H   H409      1.0  0.40475  0.59495  0.68398  1.0000
  S   S149      1.0  0.43292  0.73722  0.84631  1.0000
  H   H410      1.0  0.44577  0.54583  0.60667  1.0000
  C   C271      1.0  0.45509  0.60704  0.62058  1.0000
  C   C272      1.0  0.45069  0.59659  0.65202  1.0000
  C   C273      1.0  0.45486  0.59777  0.68448  1.0000
  C   C274      1.0  0.46376  0.60922  0.68501  1.0000
  S   S150      1.0  0.25966  0.67390  0.81074  1.0000
  C   C275      1.0  0.46396  0.61846  0.62124  1.0000
  H   H411      1.0  0.44408  0.58761  0.65146  1.0000
  H   H412      1.0  0.45136  0.58973  0.70886  1.0000
  H   H413      1.0  0.36177  0.65574  0.84475  1.0000
  S   S151      1.0  0.26190  0.70975  0.82332  1.0000
  C   C276      1.0  0.48173  0.69545  0.22537  1.0000
  H   H414      1.0  0.37817  0.65887  0.90326  1.0000
  H   H415      1.0  0.29636  0.65623  0.16763  1.0000
  C   C277      1.0  0.34532  0.65148  0.91066  1.0000
  C   C278      1.0  0.41041  0.60172  0.16257  1.0000
  C   C279      1.0  0.40749  0.60814  0.13050  1.0000
  C   C280      1.0  0.39603  0.61253  0.13266  1.0000
  C   C281      1.0  0.38740  0.61066  0.16698  1.0000
  C   C282      1.0  0.39017  0.60397  0.19902  1.0000
  C   C283      1.0  0.40163  0.59952  0.19687  1.0000
  H   H416      1.0  0.41418  0.60977  0.10383  1.0000
  H   H417      1.0  0.39392  0.61737  0.10771  1.0000
  H   H418      1.0  0.38350  0.60237  0.22570  1.0000
  H   H419      1.0  0.40374  0.59451  0.22178  1.0000
  C   C284      1.0  0.41787  0.57255  0.38565  1.0000
  C   C285      1.0  0.41237  0.57648  0.41703  1.0000
  C   C286      1.0  0.41585  0.57288  0.45080  1.0000
  C   C287      1.0  0.42476  0.56520  0.45339  1.0000
  C   C288      1.0  0.43031  0.56134  0.42197  1.0000
  C   C289      1.0  0.42694  0.56506  0.38816  1.0000
  H   H420      1.0  0.40534  0.58228  0.41525  1.0000
  H   H421      1.0  0.41147  0.57584  0.47494  1.0000
  H   H422      1.0  0.43725  0.55545  0.42374  1.0000
  H   H423      1.0  0.43128  0.56203  0.36418  1.0000
  C   C290      1.0  0.43092  0.52931  0.19366  1.0000
  C   C291      1.0  0.44438  0.53346  0.17651  1.0000
  C   C292      1.0  0.45000  0.52666  0.15176  1.0000
  C   C293      1.0  0.49383  0.67391  0.75140  1.0000
  C   C294      1.0  0.49227  0.69290  0.23995  1.0000
  C   C295      1.0  0.49062  0.68139  0.26715  1.0000
  H   H424      1.0  0.45048  0.54171  0.18280  1.0000
  H   H425      1.0  0.46038  0.52975  0.13889  1.0000
  H   H426      1.0  0.34449  0.64274  0.89872  1.0000
  C   C296      1.0  0.43197  0.72424  0.94834  1.0000
  C   C297      1.0  0.47512  0.58745  0.28667  1.0000
  C   C298      1.0  0.48686  0.59545  0.28898  1.0000
  C   C299      1.0  0.48817  0.59848  0.32264  1.0000
  C   C300      1.0  0.47775  0.59354  0.35410  1.0000
  C   C301      1.0  0.46642  0.58467  0.35260  1.0000
  C   C302      1.0  0.46503  0.58178  0.31872  1.0000
  C   C303      1.0  0.25739  0.73925  0.90527  1.0000
  N   N22       1.0  0.26152  0.69446  0.94733  1.0000
  H   H427      1.0  0.45843  0.58060  0.37703  1.0000
  H   H428      1.0  0.45601  0.57545  0.31737  1.0000
  H   H429      1.0  0.43793  0.53500  0.50857  1.0000
  H   H430      1.0  0.48795  0.64026  0.23353  1.0000
  H   H431      1.0  0.30605  0.67997  0.15833  1.0000
  H   H432      1.0  0.40733  0.70903  0.96811  1.0000
  H   H433      1.0  0.29190  0.64992  0.12995  1.0000
  H   H434      1.0  0.28596  0.68305  0.11277  1.0000
  H   H435      1.0  0.40613  0.70505  0.01719  1.0000
  H   H436      1.0  0.26410  0.67815  0.73102  1.0000
  H   H437      1.0  0.26493  0.67567  0.96622  1.0000
  C   C304      1.0  0.42250  0.53397  0.57406  1.0000
  H   H438      1.0  0.47776  0.73842  0.78986  1.0000
  C   C305      1.0  0.26517  0.74294  0.67746  1.0000
  H   H439      1.0  0.43978  0.73335  0.94453  1.0000
  C   C306      1.0  0.44844  0.62953  0.78985  1.0000
  Fe  Fe78      1.0  0.25863  0.60662  0.10036  1.0000
  H   H440      1.0  0.45012  0.62128  0.77730  1.0000
  H   H441      1.0  0.49335  0.50532  0.54848  1.0000
  H   H442      1.0  0.49472  0.59981  0.26437  1.0000
  H   H443      1.0  0.42621  0.56788  0.12446  1.0000
  C   C307      1.0  0.29559  0.58910  0.04944  1.0000
  C   C308      1.0  0.30554  0.59647  0.98383  1.0000
  H   H444      1.0  0.40746  0.54422  0.11047  1.0000
  H   H445      1.0  0.42256  0.56138  0.17343  1.0000
  C   C309      1.0  0.42056  0.55924  0.14727  1.0000
  H   H446      1.0  0.35686  0.66868  0.94523  1.0000
  S   S152      1.0  0.46608  0.70094  0.75152  1.0000
  C   C310      1.0  0.25776  0.66846  0.74362  1.0000
  H   H447      1.0  0.28793  0.61153  0.03798  1.0000
  H   H448      1.0  0.48759  0.56224  0.74183  1.0000
  H   H449      1.0  0.47536  0.62831  0.65309  1.0000
  H   H450      1.0  0.26940  0.72590  0.61119  1.0000
  N   N23       1.0  0.41420  0.65633  0.96819  1.0000
  C   C311      1.0  0.41899  0.66235  0.99669  1.0000
  C   C312      1.0  0.40149  0.65903  0.96504  1.0000
  C   C313      1.0  0.41254  0.64205  0.97852  1.0000
  C   C314      1.0  0.42381  0.66195  0.93223  1.0000
  H   H451      1.0  0.41211  0.65822  0.02442  1.0000
  H   H452      1.0  0.42009  0.67310  0.98992  1.0000
  H   H453      1.0  0.39753  0.65446  0.94408  1.0000
  H   H454      1.0  0.39406  0.65510  0.99183  1.0000
  H   H455      1.0  0.40242  0.66971  0.95659  1.0000
  H   H456      1.0  0.40528  0.63744  0.00541  1.0000
  H   H457      1.0  0.42194  0.63964  0.98102  1.0000
  H   H458      1.0  0.40881  0.63725  0.95763  1.0000
  H   H459      1.0  0.42062  0.65758  0.91000  1.0000
  H   H460      1.0  0.43365  0.66045  0.93363  1.0000
  H   H461      1.0  0.42504  0.67266  0.92349  1.0000
  N   N24       1.0  0.40675  0.64626  0.18480  1.0000
  C   C315      1.0  0.41340  0.65863  0.19227  1.0000
  C   C316      1.0  0.41655  0.63910  0.17356  1.0000
  C   C317      1.0  0.40006  0.64912  0.15469  1.0000
  C   C318      1.0  0.39698  0.63816  0.21867  1.0000
  H   H462      1.0  0.40630  0.66424  0.20121  1.0000
  H   H463      1.0  0.42069  0.66513  0.16716  1.0000
  H   H464      1.0  0.41868  0.65690  0.21454  1.0000
  H   H465      1.0  0.41184  0.62966  0.16809  1.0000
  H   H466      1.0  0.42396  0.64488  0.14781  1.0000
  H   H467      1.0  0.42183  0.63679  0.19552  1.0000
  H   H468      1.0  0.40696  0.65583  0.12925  1.0000
  H   H469      1.0  0.39203  0.65375  0.16313  1.0000
  H   H470      1.0  0.39555  0.64005  0.14701  1.0000
  H   H471      1.0  0.40167  0.63553  0.24181  1.0000
  H   H472      1.0  0.39155  0.62890  0.21375  1.0000
  H   H473      1.0  0.38954  0.64335  0.22814  1.0000
  C   C319      1.0  0.36791  0.65269  0.91144  1.0000
  C   C320      1.0  0.40416  0.60491  0.68694  1.0000
  N   N25       1.0  0.32459  0.59290  0.69530  1.0000
  C   C321      1.0  0.32580  0.59145  0.73398  1.0000
  C   C322      1.0  0.33052  0.58349  0.67890  1.0000
  C   C323      1.0  0.33146  0.60638  0.67385  1.0000
  C   C324      1.0  0.31058  0.59032  0.69465  1.0000
  H   H474      1.0  0.32051  0.58151  0.75140  1.0000
  H   H475      1.0  0.32172  0.59864  0.74678  1.0000
  H   H476      1.0  0.33622  0.59306  0.73564  1.0000
  H   H477      1.0  0.32993  0.58436  0.64954  1.0000
  H   H478      1.0  0.34106  0.58509  0.67942  1.0000
  H   H479      1.0  0.32552  0.57323  0.69448  1.0000
  H   H480      1.0  0.33064  0.60791  0.64458  1.0000
  H   H481      1.0  0.34206  0.60866  0.67361  1.0000
  H   H482      1.0  0.32731  0.61372  0.68595  1.0000
  H   H483      1.0  0.30925  0.59098  0.66598  1.0000
  H   H484      1.0  0.30594  0.59752  0.70585  1.0000
  H   H485      1.0  0.30494  0.58041  0.71174  1.0000
  H   H486      1.0  0.34227  0.64787  0.94136  1.0000
  C   C325      1.0  0.42655  0.61481  0.65280  1.0000
  H   H487      1.0  0.33815  0.65669  0.90168  1.0000
  H   H488      1.0  0.42971  0.61672  0.67801  1.0000
  H   H489      1.0  0.42795  0.60508  0.65012  1.0000
  H   H490      1.0  0.43338  0.62214  0.62830  1.0000
  H   H491      1.0  0.39372  0.60513  0.69003  1.0000
  H   H492      1.0  0.40679  0.60613  0.71332  1.0000
  H   H493      1.0  0.35280  0.67736  0.90531  1.0000
  N   N26       1.0  0.29930  0.67083  0.11726  1.0000
  C   C326      1.0  0.30877  0.68062  0.12805  1.0000
  C   C327      1.0  0.29909  0.65755  0.13706  1.0000
  C   C328      1.0  0.28608  0.67303  0.12689  1.0000
  H   H494      1.0  0.30920  0.69076  0.11338  1.0000
  H   H495      1.0  0.49317  0.62403  0.52832  1.0000
  H   H496      1.0  0.25468  0.72961  0.63292  1.0000
  C   C329      1.0  0.42913  0.52652  0.51912  1.0000
  C   C330      1.0  0.47523  0.62075  0.48815  1.0000
  H   H497      1.0  0.45750  0.72474  0.75263  1.0000
  H   H498      1.0  0.28266  0.67194  0.15721  1.0000
  S   S153      1.0  0.26150  0.62110  0.04670  1.0000
  H   H499      1.0  0.29073  0.73550  0.62552  1.0000
  N   N27       1.0  0.44561  0.61282  0.34636  1.0000
  C   C331      1.0  0.43356  0.61261  0.33287  1.0000
  C   C332      1.0  0.44950  0.62491  0.35899  1.0000
  C   C333      1.0  0.45625  0.61235  0.31600  1.0000
  C   C334      1.0  0.44312  0.60133  0.37753  1.0000
  H   H500      1.0  0.42520  0.61262  0.35528  1.0000
  H   H501      1.0  0.43050  0.60363  0.32283  1.0000
  H   H502      1.0  0.43498  0.62118  0.30955  1.0000
  H   H503      1.0  0.45147  0.63381  0.33617  1.0000
  H   H504      1.0  0.44174  0.62556  0.38209  1.0000
  H   H505      1.0  0.45865  0.62536  0.36901  1.0000
  H   H506      1.0  0.46541  0.61224  0.32547  1.0000
  H   H507      1.0  0.45852  0.62094  0.29215  1.0000
  H   H508      1.0  0.45363  0.60338  0.30562  1.0000
  H   H509      1.0  0.44083  0.59208  0.36836  1.0000
  H   H510      1.0  0.43469  0.60092  0.40027  1.0000
  H   H511      1.0  0.45178  0.60138  0.38959  1.0000
  N   N28       1.0  0.47416  0.74136  0.73527  1.0000
  H   H512      1.0  0.43872  0.51054  0.56479  1.0000
  H   H513      1.0  0.40522  0.51415  0.56282  1.0000
  H   H514      1.0  0.41051  0.73257  0.96821  1.0000
  H   H515      1.0  0.29067  0.63335  0.83492  1.0000
  H   H516      1.0  0.49254  0.63996  0.18564  1.0000
  C   C335      1.0  0.26922  0.70778  0.92659  1.0000
  C   C336      1.0  0.48935  0.67789  0.71983  1.0000
  H   H517      1.0  0.47844  0.61257  0.55665  1.0000
  C   C337      1.0  0.28492  0.73763  0.65019  1.0000
  H   H518      1.0  0.43690  0.71641  0.94381  1.0000
  H   H519      1.0  0.47982  0.59059  0.51696  1.0000
  H   H520      1.0  0.27225  0.64551  0.79397  1.0000
  H   H521      1.0  0.46553  0.59628  0.53020  1.0000
  C   C338      1.0  0.48100  0.73610  0.76272  1.0000
  N   N29       1.0  0.35882  0.66001  0.89850  1.0000
  C   C339      1.0  0.36253  0.66426  0.85760  1.0000
  C   C340      1.0  0.35954  0.67158  0.91436  1.0000
  H   H522      1.0  0.40093  0.54752  0.20767  1.0000
  H   H523      1.0  0.30544  0.61483  0.02395  1.0000
  N   N30       1.0  0.42292  0.72059  0.98543  1.0000
  H   H524      1.0  0.49638  0.51030  0.62194  1.0000
  S   S154      1.0  0.46940  0.61072  0.72486  1.0000
  H   H525      1.0  0.41556  0.62027  0.59552  1.0000
  C   C341      1.0  0.27402  0.67054  0.03881  1.0000
  H   H526      1.0  0.27670  0.71192  0.94085  1.0000
  H   H527      1.0  0.44698  0.65444  0.78578  1.0000
  H   H528      1.0  0.45171  0.51532  0.71426  1.0000
  H   H529      1.0  0.45438  0.73940  0.72920  1.0000
  H   H530      1.0  0.30538  0.60246  0.95658  1.0000
  C   C342      1.0  0.46840  0.61948  0.65321  1.0000
  H   H531      1.0  0.49278  0.67484  0.80820  1.0000
  C   C343      1.0  0.41365  0.51162  0.57299  1.0000
  C   C344      1.0  0.48701  0.61387  0.53335  1.0000
  H   H532      1.0  0.29630  0.66498  0.06778  1.0000
  H   H533      1.0  0.28067  0.58157  0.00383  1.0000
  H   H534      1.0  0.29605  0.61713  0.98973  1.0000
  H   H535      1.0  0.47770  0.68948  0.69534  1.0000
  C   C345      1.0  0.47842  0.67227  0.27982  1.0000
  N   N31       1.0  0.41278  0.61514  0.65482  1.0000
  C   C346      1.0  0.47636  0.69014  0.75247  1.0000
  H   H536      1.0  0.28186  0.63484  0.77939  1.0000
  H   H537      1.0  0.30493  0.59299  0.05699  1.0000
  H   H538      1.0  0.25564  0.62357  0.88677  1.0000
  N   N32       1.0  0.29484  0.59705  0.01389  1.0000
  C   C347      1.0  0.41116  0.62809  0.65909  1.0000
  H   H539      1.0  0.42393  0.71641  0.04262  1.0000
  H   H540      1.0  0.25625  0.68903  0.89921  1.0000
  H   H541      1.0  0.41361  0.63018  0.68499  1.0000
  H   H542      1.0  0.27374  0.59222  0.02812  1.0000
  H   H543      1.0  0.40337  0.57088  0.17959  1.0000
  H   H544      1.0  0.40685  0.57667  0.13045  1.0000
  S   S155      1.0  0.48232  0.52214  0.04181  1.0000
  S   S156      1.0  0.48881  0.63800  0.39141  1.0000
  S   S157      1.0  0.28442  0.69603  0.03839  1.0000
  H   H545      1.0  0.47990  0.64793  0.76260  1.0000
  C   C348      1.0  0.25411  0.73641  0.94411  1.0000
  S   S158      1.0  0.27895  0.72004  0.10423  1.0000
  N   N33       1.0  0.40636  0.55639  0.14917  1.0000
  C   C349      1.0  0.40164  0.56804  0.15380  1.0000
  H   H546      1.0  0.47720  0.68889  0.80937  1.0000
  C   C350      1.0  0.39935  0.54527  0.18108  1.0000
  C   C351      1.0  0.40398  0.55299  0.11460  1.0000
  H   H547      1.0  0.39096  0.56630  0.15539  1.0000
  H   H548      1.0  0.46743  0.62658  0.59703  1.0000
  C   C352      1.0  0.48079  0.68612  0.72023  1.0000
  C   C353      1.0  0.27190  0.68152  0.05126  1.0000
  H   H549      1.0  0.40924  0.56116  0.09001  1.0000
  C   C354      1.0  0.46788  0.67482  0.26528  1.0000
  H   H550      1.0  0.26542  0.65066  0.03773  1.0000
  H   H551      1.0  0.25766  0.63929  0.85698  1.0000
  H   H552      1.0  0.46393  0.53497  0.59889  1.0000
  C   C355      1.0  0.29615  0.61076  0.01642  1.0000
  H   H553      1.0  0.46427  0.66155  0.77584  1.0000
  H   H554      1.0  0.31534  0.60022  0.98900  1.0000
  H   H555      1.0  0.28746  0.58905  0.07258  1.0000
  H   H556      1.0  0.47634  0.58549  0.72173  1.0000
  C   C356      1.0  0.47883  0.73805  0.69980  1.0000
  C   C357      1.0  0.25332  0.66032  0.72122  1.0000
  H   H557      1.0  0.30485  0.58629  0.98085  1.0000
  H   H558      1.0  0.28163  0.64451  0.84922  1.0000
  C   C358      1.0  0.25764  0.62895  0.85729  1.0000
  H   H559      1.0  0.29496  0.57876  0.04833  1.0000
  C   C359      1.0  0.41313  0.70817  0.98945  1.0000
  C   C360      1.0  0.43039  0.71891  0.01421  1.0000
  N   N34       1.0  0.42542  0.52278  0.56009  1.0000
  C   C361      1.0  0.47448  0.59791  0.50782  1.0000
  H   H560      1.0  0.44792  0.62642  0.81997  1.0000
  H   H561      1.0  0.41790  0.70009  0.98646  1.0000
  H   H562      1.0  0.45004  0.64699  0.72715  1.0000
  C   C362      1.0  0.48580  0.58521  0.70424  1.0000
  Fe  Fe79      1.0  0.26627  0.73547  0.02169  1.0000
  N   N35       1.0  0.45899  0.64158  0.77197  1.0000
  H   H563      1.0  0.27974  0.62898  0.88021  1.0000
  H   H564      1.0  0.49312  0.65683  0.51438  1.0000
  C   C363      1.0  0.27040  0.68576  0.95024  1.0000
  H   H565      1.0  0.45621  0.65005  0.81906  1.0000
  H   H566      1.0  0.41282  0.51523  0.19855  1.0000
  H   H567      1.0  0.41051  0.60309  0.61609  1.0000
  Fe  Fe80      1.0  0.49073  0.62069  0.36852  1.0000
  H   H568      1.0  0.49165  0.57071  0.25594  1.0000
  H   H569      1.0  0.39887  0.61265  0.62098  1.0000
  H   H570      1.0  0.41760  0.63605  0.63543  1.0000
  H   H571      1.0  0.43395  0.51653  0.60517  1.0000
  H   H572      1.0  0.46729  0.65435  0.71772  1.0000
  C   C364      1.0  0.47166  0.63923  0.77695  1.0000
  H   H573      1.0  0.47374  0.63093  0.76540  1.0000
  H   H574      1.0  0.45837  0.66787  0.27507  1.0000
  Fe  Fe81      1.0  0.49172  0.64866  0.33175  1.0000
  C   C365      1.0  0.45946  0.64522  0.73199  1.0000
  C   C366      1.0  0.45646  0.65234  0.78898  1.0000
  H   H575      1.0  0.40086  0.62865  0.66043  1.0000
  C   C367      1.0  0.49630  0.64325  0.20864  1.0000
  C   C368      1.0  0.44208  0.51591  0.14364  1.0000
  C   C369      1.0  0.26989  0.61412  0.83756  1.0000
  H   H576      1.0  0.49285  0.67501  0.69468  1.0000
  S   S159      1.0  0.44802  0.50700  0.11221  1.0000
  H   H577      1.0  0.42117  0.52962  0.50757  1.0000
  S   S160      1.0  0.28492  0.74008  0.74089  1.0000
  H   H578      1.0  0.41970  0.53165  0.60493  1.0000
  H   H579      1.0  0.43821  0.72791  0.01142  1.0000
  S   S161      1.0  0.47133  0.51588  0.64912  1.0000
  C   C370      1.0  0.41618  0.73101  0.98967  1.0000
  Fe  Fe82      1.0  0.48393  0.50274  0.77378  1.0000
  C   C371      1.0  0.27229  0.63505  0.79642  1.0000
  H   H580      1.0  0.48067  0.57062  0.77410  1.0000
  C   C372      1.0  0.48988  0.57060  0.75493  1.0000
  H   H581      1.0  0.47170  0.61902  0.46328  1.0000
  H   H582      1.0  0.48366  0.57727  0.68958  1.0000
  H   H583      1.0  0.41435  0.53701  0.56360  1.0000
  H   H584      1.0  0.27872  0.66599  0.11836  1.0000
  H   H585      1.0  0.47119  0.59575  0.48291  1.0000
  H   H586      1.0  0.48125  0.63104  0.48147  1.0000
  N   N36       1.0  0.48280  0.61141  0.49978  1.0000
  Fe  Fe83      1.0  0.48212  0.51328  0.69482  1.0000
  H   H587      1.0  0.43527  0.71088  0.01229  1.0000
  H   H588      1.0  0.26819  0.60851  0.86667  1.0000
  H   H589      1.0  0.26212  0.69884  0.00005  1.0000
  Fe  Fe84      1.0  0.25872  0.72298  0.10396  1.0000
  H   H590      1.0  0.25275  0.73380  0.85634  1.0000
  H   H591      1.0  0.30887  0.65547  0.12984  1.0000
  Fe  Fe85      1.0  0.48871  0.62567  0.70492  1.0000
  C   C373      1.0  0.28104  0.63398  0.85069  1.0000
  C   C374      1.0  0.25161  0.68948  0.92768  1.0000
  S   S162      1.0  0.48375  0.50757  0.12652  1.0000
  C   C375      1.0  0.25969  0.68094  0.07318  1.0000
  S   S163      1.0  0.28649  0.73280  0.01628  1.0000
  Fe  Fe86      1.0  0.28679  0.74048  0.06738  1.0000
  H   H592      1.0  0.27927  0.61306  0.82181  1.0000
  H   H593      1.0  0.28327  0.72917  0.67414  1.0000
  H   H594      1.0  0.49596  0.67526  0.18552  1.0000
  H   H595      1.0  0.49696  0.56856  0.77182  1.0000
  H   H596      1.0  0.26326  0.73469  0.70192  1.0000
  H   H597      1.0  0.27774  0.74450  0.81528  1.0000
  S   S164      1.0  0.25669  0.71487  0.05427  1.0000
  H   H598      1.0  0.27802  0.68935  0.96479  1.0000
  H   H599      1.0  0.48957  0.74228  0.68859  1.0000
  S   S165      1.0  0.26673  0.74413  0.07118  1.0000
  C   C376      1.0  0.45989  0.73553  0.74892  1.0000
  H   H600      1.0  0.41056  0.50868  0.60383  1.0000
  S   S166      1.0  0.26238  0.70729  0.73856  1.0000
  H   H601      1.0  0.42333  0.74049  0.98681  1.0000
  H   H602      1.0  0.26451  0.63065  0.78355  1.0000
  H   H603      1.0  0.49943  0.65852  0.25579  1.0000
  C   C377      1.0  0.26384  0.65907  0.04777  1.0000
  H   H604      1.0  0.42672  0.72594  0.92592  1.0000
  H   H605      1.0  0.46648  0.61984  0.51047  1.0000
  C   C378      1.0  0.42866  0.51207  0.16034  1.0000
  S   S167      1.0  0.49071  0.64674  0.68121  1.0000
  H   H606      1.0  0.26239  0.71959  0.65994  1.0000
  S   S168      1.0  0.49193  0.63074  0.31032  1.0000
  Fe  Fe87      1.0  0.46915  0.50700  0.09136  1.0000
  H   H607      1.0  0.47695  0.72725  0.70327  1.0000
  H   H608      1.0  0.49524  0.54525  0.92756  1.0000
  H   H609      1.0  0.49874  0.67969  0.27868  1.0000
  H   H610      1.0  0.25618  0.66380  0.69137  1.0000
  H   H611      1.0  0.49711  0.60504  0.32386  1.0000
  H   H612      1.0  0.25809  0.68922  0.08385  1.0000
  N   N37       1.0  0.27238  0.74005  0.64403  1.0000
  C   C379      1.0  0.26440  0.72831  0.63654  1.0000
  H   H613      1.0  0.44538  0.52731  0.56469  1.0000
  S   S169      1.0  0.49755  0.50528  0.96371  1.0000
  C   C380      1.0  0.25149  0.65870  0.06858  1.0000
  Fe  Fe88      1.0  0.48861  0.50552  0.02259  1.0000
  H   H614      1.0  0.48019  0.50446  0.58667  1.0000
  H   H615      1.0  0.46155  0.74749  0.82742  1.0000
  H   H616      1.0  0.49282  0.60709  0.54288  1.0000
  H   H617      1.0  0.25553  0.74460  0.67435  1.0000
  H   H618      1.0  0.26282  0.71455  0.92386  1.0000
  C   C381      1.0  0.49445  0.61314  0.46967  1.0000
  H   H619      1.0  0.49161  0.61121  0.44407  1.0000
  H   H620      1.0  0.47380  0.74172  0.67847  1.0000
  C   C382      1.0  0.25412  0.66397  0.78223  1.0000
  H   H621      1.0  0.49639  0.53210  0.96275  1.0000
  H   H622      1.0  0.48802  0.66203  0.16835  1.0000
  H   H623      1.0  0.42247  0.50382  0.15430  1.0000
  H   H624      1.0  0.41545  0.50295  0.56301  1.0000
  H   H625      1.0  0.48361  0.66179  0.21669  1.0000
  C   C383      1.0  0.49200  0.66444  0.19198  1.0000
  N   N38       1.0  0.49534  0.58311  0.72674  1.0000
  H   H626      1.0  0.48951  0.59465  0.68299  1.0000
  C   C384      1.0  0.25491  0.69484  0.98490  1.0000
  H   H627      1.0  0.29106  0.74619  0.65681  1.0000
  Fe  Fe89      1.0  0.49734  0.52170  0.07529  1.0000
  H   H628      1.0  0.28047  0.74950  0.58639  1.0000
  H   H629      1.0  0.49518  0.55657  0.28096  1.0000
  C   C385      1.0  0.49799  0.59392  0.74532  1.0000
  C   C386      1.0  0.49873  0.56739  0.27105  1.0000
  H   H630      1.0  0.49822  0.57162  0.29575  1.0000
  H   H631      1.0  0.49909  0.53035  0.80144  1.0000
  H   H632      1.0  0.49951  0.54662  0.00636  1.0000
  C   C387      1.0  0.49804  0.50135  0.89468  1.0000
  H   H633      1.0  0.49737  0.55951  0.97231  1.0000
  C   C388      1.0  0.25007  0.73163  0.88629  1.0000
  C   C389      1.0  0.43019  0.78647  0.28888  1.0000
  H   H634      1.0  0.48601  0.89177  0.77488  1.0000
  S   S170      1.0  0.48514  0.94141  0.35755  1.0000
  H   H635      1.0  0.49320  0.96815  0.73924  1.0000
  H   H636      1.0  0.44069  0.76884  0.26029  1.0000
  H   H637      1.0  0.43501  0.95819  0.74935  1.0000
  Fe  Fe90      1.0  0.43669  0.90155  0.29780  1.0000
  S   S171      1.0  0.41541  0.89287  0.32255  1.0000
  S   S172      1.0  0.45216  0.89317  0.31722  1.0000
  Fe  Fe91      1.0  0.43264  0.92364  0.24141  1.0000
  S   S173      1.0  0.41056  0.91645  0.26193  1.0000
  S   S174      1.0  0.44735  0.94019  0.19654  1.0000
  Fe  Fe92      1.0  0.41450  0.91357  0.31952  1.0000
  S   S175      1.0  0.40532  0.92009  0.36994  1.0000
  Fe  Fe93      1.0  0.41346  0.89604  0.26326  1.0000
  S   S176      1.0  0.40394  0.87679  0.25032  1.0000
  S   S177      1.0  0.43613  0.92207  0.29816  1.0000
  S   S178      1.0  0.43514  0.90356  0.23925  1.0000
  C   C390      1.0  0.43816  0.97509  0.19562  1.0000
  S   S179      1.0  0.48626  0.93871  0.72126  1.0000
  Fe  Fe94      1.0  0.42831  0.93358  0.62232  1.0000
  S   S180      1.0  0.44232  0.92458  0.59020  1.0000
  Fe  Fe95      1.0  0.40687  0.90734  0.64591  1.0000
  S   S181      1.0  0.41981  0.89698  0.61585  1.0000
  S   S182      1.0  0.38724  0.89595  0.68545  1.0000
  Fe  Fe96      1.0  0.43527  0.90756  0.63934  1.0000
  S   S183      1.0  0.44951  0.89791  0.66285  1.0000
  Fe  Fe97      1.0  0.42546  0.91503  0.56896  1.0000
  S   S184      1.0  0.43074  0.91240  0.50971  1.0000
  S   S185      1.0  0.42210  0.91683  0.67269  1.0000
  S   S186      1.0  0.41164  0.92513  0.59767  1.0000
  Fe  Fe98      1.0  0.37450  0.83951  0.10549  1.0000
  S   S187      1.0  0.39090  0.83518  0.06776  1.0000
  S   S188      1.0  0.38033  0.85953  0.11870  1.0000
  Fe  Fe99      1.0  0.35488  0.81426  0.10222  1.0000
  S   S189      1.0  0.37024  0.80831  0.06513  1.0000
  S   S190      1.0  0.33344  0.80231  0.11982  1.0000
  Fe  Fe100     1.0  0.38319  0.81467  0.10178  1.0000
  S   S191      1.0  0.39899  0.80488  0.11288  1.0000
  Fe  Fe101     1.0  0.37654  0.82936  0.03452  1.0000
  S   S192      1.0  0.38368  0.83421  0.97247  1.0000
  S   S193      1.0  0.36746  0.81906  0.14214  1.0000
  S   S194      1.0  0.36046  0.83524  0.06894  1.0000
  C   C391      1.0  0.33377  0.78367  0.07787  1.0000
  Fe  Fe102     1.0  0.34366  0.81933  0.83774  1.0000
  S   S195      1.0  0.33210  0.81841  0.79434  1.0000
  S   S196      1.0  0.34012  0.83055  0.88147  1.0000
  Fe  Fe103     1.0  0.36116  0.80334  0.80704  1.0000
  S   S197      1.0  0.35065  0.80054  0.76208  1.0000
  S   S198      1.0  0.37927  0.79599  0.80860  1.0000
  Fe  Fe104     1.0  0.35174  0.82205  0.75472  1.0000
  S   S199      1.0  0.36173  0.83573  0.69839  1.0000
  Fe  Fe105     1.0  0.33196  0.79699  0.80551  1.0000
  S   S200      1.0  0.31275  0.78081  0.82297  1.0000
  S   S201      1.0  0.36312  0.82482  0.79734  1.0000
  S   S202      1.0  0.34256  0.79794  0.85147  1.0000
  Fe  Fe106     1.0  0.45126  0.83804  0.18800  1.0000
  S   S203      1.0  0.46080  0.85921  0.16252  1.0000
  S   S204      1.0  0.42985  0.83149  0.21643  1.0000
  Fe  Fe107     1.0  0.47607  0.82963  0.16504  1.0000
  H   H638      1.0  0.45344  0.80403  0.25715  1.0000
  S   S205      1.0  0.48320  0.81109  0.16900  1.0000
  Fe  Fe108     1.0  0.47754  0.85606  0.18802  1.0000
  S   S206      1.0  0.48276  0.86872  0.22852  1.0000
  Fe  Fe109     1.0  0.47045  0.85217  0.11493  1.0000
  S   S207      1.0  0.46870  0.86055  0.05711  1.0000
  S   S208      1.0  0.46705  0.83501  0.21674  1.0000
  S   S209      1.0  0.45944  0.83129  0.13867  1.0000
  Fe  Fe110     1.0  0.46231  0.82284  0.90249  1.0000
  S   S210      1.0  0.44760  0.80902  0.88392  1.0000
  S   S211      1.0  0.46433  0.81817  0.96152  1.0000
  Fe  Fe111     1.0  0.47263  0.84217  0.82525  1.0000
  S   S212      1.0  0.45896  0.82944  0.80046  1.0000
  S   S213      1.0  0.48084  0.86420  0.80167  1.0000
  Fe  Fe112     1.0  0.44378  0.82713  0.85240  1.0000
  S   S214      1.0  0.42480  0.83282  0.85346  1.0000
  Fe  Fe113     1.0  0.46402  0.81220  0.83393  1.0000
  S   S215      1.0  0.46976  0.79502  0.81418  1.0000
  S   S216      1.0  0.45700  0.84051  0.87585  1.0000
  S   S217      1.0  0.47912  0.82523  0.85437  1.0000
  S   S218      1.0  0.48809  0.85042  0.13795  1.0000
  C   C392      1.0  0.45943  0.77887  0.82593  1.0000
  C   C393      1.0  0.44579  0.77634  0.83703  1.0000
  C   C394      1.0  0.43786  0.76352  0.84348  1.0000
  H   H639      1.0  0.46111  0.94534  0.61052  1.0000
  H   H640      1.0  0.27089  0.75170  0.68424  1.0000
  C   C395      1.0  0.46504  0.76836  0.82245  1.0000
  H   H641      1.0  0.44133  0.78432  0.83963  1.0000
  H   H642      1.0  0.42731  0.76176  0.85111  1.0000
  H   H643      1.0  0.48582  0.92378  0.15637  1.0000
  H   H644      1.0  0.47559  0.77021  0.81425  1.0000
  C   C396      1.0  0.46764  0.84894  0.02999  1.0000
  C   C397      1.0  0.46301  0.85121  0.99769  1.0000
  C   C398      1.0  0.46201  0.84188  0.97618  1.0000
  C   C399      1.0  0.46566  0.83028  0.98692  1.0000
  C   C400      1.0  0.47026  0.82806  0.01914  1.0000
  C   C401      1.0  0.47135  0.83738  0.04041  1.0000
  H   H645      1.0  0.46011  0.86013  0.98953  1.0000
  H   H646      1.0  0.45824  0.84359  0.95171  1.0000
  H   H647      1.0  0.47312  0.81912  0.02763  1.0000
  H   H648      1.0  0.47525  0.83566  0.06468  1.0000
  C   C402      1.0  0.47434  0.79638  0.16128  1.0000
  C   C403      1.0  0.46302  0.79576  0.14790  1.0000
  C   C404      1.0  0.45559  0.78370  0.14518  1.0000
  H   H649      1.0  0.45984  0.80452  0.14019  1.0000
  H   H650      1.0  0.44668  0.78330  0.13558  1.0000
  C   C405      1.0  0.39179  0.80588  0.82263  1.0000
  C   C406      1.0  0.38960  0.81640  0.83727  1.0000
  C   C407      1.0  0.39978  0.82454  0.84683  1.0000
  C   C408      1.0  0.41223  0.82218  0.84200  1.0000
  C   C409      1.0  0.41446  0.81159  0.82770  1.0000
  C   C410      1.0  0.40423  0.80345  0.81801  1.0000
  H   H651      1.0  0.37999  0.81811  0.84194  1.0000
  H   H652      1.0  0.39795  0.83254  0.85867  1.0000
  H   H653      1.0  0.42404  0.80967  0.82406  1.0000
  H   H654      1.0  0.40597  0.79526  0.80696  1.0000
  H   H655      1.0  0.45603  0.92769  0.47223  1.0000
  C   C411      1.0  0.49280  0.85164  0.88918  1.0000
  H   H656      1.0  0.47966  0.75993  0.00212  1.0000
  C   C412      1.0  0.30533  0.76957  0.79934  1.0000
  C   C413      1.0  0.31100  0.76942  0.76302  1.0000
  C   C414      1.0  0.47691  0.75572  0.72964  1.0000
  H   H657      1.0  0.40630  0.85341  0.10442  1.0000
  H   H658      1.0  0.46909  0.92435  0.17207  1.0000
  H   H659      1.0  0.32022  0.77633  0.74834  1.0000
  S   S219      1.0  0.43769  0.95516  0.61941  1.0000
  C   C415      1.0  0.40691  0.81122  0.14449  1.0000
  C   C416      1.0  0.41932  0.80949  0.14620  1.0000
  C   C417      1.0  0.42622  0.81538  0.16914  1.0000
  C   C418      1.0  0.42070  0.82291  0.19078  1.0000
  C   C419      1.0  0.40799  0.82405  0.19063  1.0000
  C   C420      1.0  0.40120  0.81842  0.16698  1.0000
  H   H660      1.0  0.42370  0.80378  0.12925  1.0000
  H   H661      1.0  0.43571  0.81388  0.17047  1.0000
  H   H662      1.0  0.40353  0.82961  0.20791  1.0000
  H   H663      1.0  0.39155  0.81967  0.16620  1.0000
  C   C421      1.0  0.37114  0.83272  0.94880  1.0000
  C   C422      1.0  0.37052  0.82434  0.92473  1.0000
  C   C423      1.0  0.36084  0.82347  0.90447  1.0000
  C   C424      1.0  0.35200  0.83124  0.90748  1.0000
  C   C425      1.0  0.35276  0.83978  0.93107  1.0000
  C   C426      1.0  0.36224  0.84043  0.95200  1.0000
  H   H664      1.0  0.37747  0.81844  0.92192  1.0000
  H   H665      1.0  0.36025  0.81680  0.88649  1.0000
  H   H666      1.0  0.34608  0.84598  0.93296  1.0000
  H   H667      1.0  0.36287  0.84709  0.97006  1.0000
  H   H668      1.0  0.41262  0.87068  0.09541  1.0000
  S   S220      1.0  0.44895  0.75716  0.15492  1.0000
  C   C427      1.0  0.32642  0.78840  0.10440  1.0000
  C   C428      1.0  0.31288  0.78245  0.11735  1.0000
  C   C429      1.0  0.30674  0.77203  0.10374  1.0000
  C   C430      1.0  0.45944  0.77214  0.15540  1.0000
  H   H669      1.0  0.30707  0.78599  0.13791  1.0000
  H   H670      1.0  0.45566  0.76868  0.07130  1.0000
  C   C431      1.0  0.38030  0.87922  0.68833  1.0000
  C   C432      1.0  0.38570  0.87259  0.66349  1.0000
  C   C433      1.0  0.37990  0.85929  0.66675  1.0000
  C   C434      1.0  0.36888  0.85238  0.69549  1.0000
  C   C435      1.0  0.36356  0.85894  0.72064  1.0000
  C   C436      1.0  0.36909  0.87235  0.71658  1.0000
  H   H671      1.0  0.39413  0.87780  0.64112  1.0000
  H   H672      1.0  0.38390  0.85442  0.64661  1.0000
  H   H673      1.0  0.35485  0.85380  0.74224  1.0000
  H   H674      1.0  0.36461  0.87749  0.73521  1.0000
  C   C437      1.0  0.46035  0.97970  0.15901  1.0000
  N   N39       1.0  0.43185  0.95584  0.33537  1.0000
  C   C438      1.0  0.31233  0.76594  0.95617  1.0000
  H   H675      1.0  0.46228  0.75485  0.07984  1.0000
  H   H676      1.0  0.42363  0.77594  0.23314  1.0000
  C   C439      1.0  0.44108  0.96896  0.32270  1.0000
  H   H677      1.0  0.48430  0.75548  0.04472  1.0000
  H   H678      1.0  0.49082  0.85712  0.95584  1.0000
  N   N40       1.0  0.47968  0.92239  0.21472  1.0000
  C   C440      1.0  0.47519  0.92598  0.71193  1.0000
  C   C441      1.0  0.47921  0.91530  0.70242  1.0000
  C   C442      1.0  0.47114  0.90645  0.68836  1.0000
  C   C443      1.0  0.45898  0.90824  0.68396  1.0000
  C   C444      1.0  0.45461  0.91843  0.69584  1.0000
  C   C445      1.0  0.46261  0.92716  0.71038  1.0000
  H   H679      1.0  0.48860  0.91390  0.70551  1.0000
  H   H680      1.0  0.47459  0.89855  0.67953  1.0000
  H   H681      1.0  0.44518  0.91979  0.69336  1.0000
  H   H682      1.0  0.45926  0.93520  0.71872  1.0000
  C   C446      1.0  0.39780  0.87230  0.21275  1.0000
  C   C447      1.0  0.39695  0.88154  0.18252  1.0000
  C   C448      1.0  0.39162  0.87743  0.15405  1.0000
  C   C449      1.0  0.38717  0.86406  0.15518  1.0000
  C   C450      1.0  0.38834  0.85482  0.18490  1.0000
  C   C451      1.0  0.39358  0.85893  0.21352  1.0000
  H   H683      1.0  0.40010  0.89184  0.18151  1.0000
  H   H684      1.0  0.39074  0.88467  0.13125  1.0000
  H   H685      1.0  0.38496  0.84451  0.18627  1.0000
  H   H686      1.0  0.39416  0.85167  0.23676  1.0000
  C   C452      1.0  0.41146  0.91714  0.41043  1.0000
  C   C453      1.0  0.40774  0.92284  0.43995  1.0000
  C   C454      1.0  0.41323  0.92122  0.47116  1.0000
  C   C455      1.0  0.42258  0.91398  0.47291  1.0000
  C   C456      1.0  0.42616  0.90824  0.44344  1.0000
  C   C457      1.0  0.42052  0.90967  0.41274  1.0000
  H   H687      1.0  0.40061  0.92853  0.43874  1.0000
  H   H688      1.0  0.41033  0.92569  0.49361  1.0000
  H   H689      1.0  0.43321  0.90246  0.44449  1.0000
  H   H690      1.0  0.42304  0.90483  0.39095  1.0000
  H   H691      1.0  0.43623  0.85960  0.21832  1.0000
  H   H692      1.0  0.42836  0.95465  0.21996  1.0000
  C   C458      1.0  0.49354  0.88675  0.26448  1.0000
  C   C459      1.0  0.43853  0.94630  0.35143  1.0000
  H   H693      1.0  0.48395  0.84516  0.91002  1.0000
  C   C460      1.0  0.47492  0.78278  0.01181  1.0000
  N   N41       1.0  0.48121  0.95431  0.60755  1.0000
  H   H694      1.0  0.46489  0.90887  0.42737  1.0000
  H   H695      1.0  0.48767  0.88070  0.90180  1.0000
  H   H696      1.0  0.46023  0.92333  0.23846  1.0000
  H   H697      1.0  0.43634  0.97641  0.31050  1.0000
  H   H698      1.0  0.48222  0.93829  0.16789  1.0000
  H   H699      1.0  0.49685  0.97480  0.23988  1.0000
  C   C461      1.0  0.47585  0.92709  0.35044  1.0000
  C   C462      1.0  0.46218  0.92397  0.36103  1.0000
  C   C463      1.0  0.45481  0.91289  0.35329  1.0000
  C   C464      1.0  0.46104  0.90485  0.33550  1.0000
  C   C465      1.0  0.47466  0.90748  0.32729  1.0000
  C   C466      1.0  0.48205  0.91881  0.33364  1.0000
  H   H700      1.0  0.45728  0.93020  0.37453  1.0000
  H   H701      1.0  0.44428  0.91063  0.36058  1.0000
  H   H702      1.0  0.47948  0.90122  0.31385  1.0000
  H   H703      1.0  0.31621  0.77245  0.97329  1.0000
  N   N42       1.0  0.41942  0.81561  0.99632  1.0000
  C   C467      1.0  0.42707  0.82199  0.01953  1.0000
  C   C468      1.0  0.40648  0.81854  0.00149  1.0000
  C   C469      1.0  0.41759  0.80132  0.00750  1.0000
  C   C470      1.0  0.42652  0.82055  0.95691  1.0000
  H   H704      1.0  0.43683  0.81980  0.01670  1.0000
  H   H705      1.0  0.42188  0.81856  0.04942  1.0000
  H   H706      1.0  0.42877  0.83280  0.01163  1.0000
  H   H707      1.0  0.40051  0.81413  0.98379  1.0000
  H   H708      1.0  0.40072  0.81467  0.03076  1.0000
  H   H709      1.0  0.40743  0.82925  0.99409  1.0000
  H   H710      1.0  0.41173  0.79617  0.99083  1.0000
  H   H711      1.0  0.41230  0.79734  0.03725  1.0000
  H   H712      1.0  0.42717  0.79875  0.00375  1.0000
  H   H713      1.0  0.42781  0.83126  0.94731  1.0000
  H   H714      1.0  0.42111  0.81580  0.93859  1.0000
  H   H715      1.0  0.43643  0.81869  0.95219  1.0000
  N   N43       1.0  0.39447  0.81993  0.70072  1.0000
  C   C471      1.0  0.39870  0.82860  0.66303  1.0000
  C   C472      1.0  0.39205  0.82778  0.72808  1.0000
  C   C473      1.0  0.40476  0.81335  0.70827  1.0000
  C   C474      1.0  0.38230  0.80996  0.70366  1.0000
  H   H716      1.0  0.40071  0.82304  0.64160  1.0000
  H   H717      1.0  0.40774  0.83640  0.65985  1.0000
  H   H718      1.0  0.39095  0.83350  0.65671  1.0000
  H   H719      1.0  0.38859  0.82150  0.75673  1.0000
  H   H720      1.0  0.40107  0.83526  0.72704  1.0000
  H   H721      1.0  0.38442  0.83297  0.72306  1.0000
  H   H722      1.0  0.40171  0.80673  0.73665  1.0000
  H   H723      1.0  0.41409  0.82053  0.70653  1.0000
  H   H724      1.0  0.40681  0.80726  0.68831  1.0000
  H   H725      1.0  0.37886  0.80317  0.73166  1.0000
  H   H726      1.0  0.38371  0.80393  0.68319  1.0000
  H   H727      1.0  0.37424  0.81455  0.69865  1.0000
  H   H728      1.0  0.47177  0.94931  0.56507  1.0000
  H   H729      1.0  0.33801  0.80975  0.03909  1.0000
  H   H730      1.0  0.46915  0.95165  0.66197  1.0000
  H   H731      1.0  0.47105  0.92424  0.26887  1.0000
  H   H732      1.0  0.49252  0.92128  0.32418  1.0000
  H   H733      1.0  0.31699  0.79478  0.03797  1.0000
  H   H734      1.0  0.46571  0.90413  0.22094  1.0000
  C   C475      1.0  0.49245  0.96421  0.58127  1.0000
  H   H735      1.0  0.45298  0.80392  0.21033  1.0000
  C   C476      1.0  0.46216  0.76326  0.05789  1.0000
  H   H736      1.0  0.47352  0.92080  0.52337  1.0000
  N   N44       1.0  0.30168  0.77004  0.94134  1.0000
  H   H737      1.0  0.42383  0.79339  0.28961  1.0000
  H   H738      1.0  0.48713  0.92214  0.42417  1.0000
  C   C477      1.0  0.47579  0.90795  0.22399  1.0000
  H   H739      1.0  0.45333  0.78062  0.27029  1.0000
  C   C478      1.0  0.49726  0.99892  0.20349  1.0000
  H   H740      1.0  0.42105  0.85490  0.25278  1.0000
  H   H741      1.0  0.48484  0.78940  0.99832  1.0000
  H   H742      1.0  0.42916  0.87188  0.23372  1.0000
  H   H743      1.0  0.42342  0.95873  0.38853  1.0000
  C   C479      1.0  0.29667  0.76092  0.91959  1.0000
  H   H744      1.0  0.41750  0.86211  0.06093  1.0000
  H   H745      1.0  0.47552  0.78293  0.08188  1.0000
  N   N45       1.0  0.47071  0.91689  0.47138  1.0000
  C   C480      1.0  0.44345  0.75305  0.83950  1.0000
  C   C481      1.0  0.46320  0.90633  0.45808  1.0000
  C   C482      1.0  0.48487  0.91919  0.45503  1.0000
  C   C483      1.0  0.46663  0.92901  0.46014  1.0000
  H   H746      1.0  0.49633  0.93780  0.21332  1.0000
  H   H747      1.0  0.49025  0.97388  0.57450  1.0000
  H   H748      1.0  0.28098  0.76032  0.61712  1.0000
  H   H749      1.0  0.31029  0.79064  0.93261  1.0000
  H   H750      1.0  0.29434  0.77660  0.98953  1.0000
  H   H751      1.0  0.47195  0.76002  0.70897  1.0000
  H   H752      1.0  0.29632  0.76763  0.11385  1.0000
  H   H753      1.0  0.26573  0.75340  0.60689  1.0000
  H   H754      1.0  0.49798  0.98625  0.77076  1.0000
  H   H755      1.0  0.46821  0.93204  0.42957  1.0000
  H   H756      1.0  0.42367  0.77636  0.29902  1.0000
  C   C484      1.0  0.29264  0.75123  0.76424  1.0000
  H   H757      1.0  0.44160  0.85000  0.76108  1.0000
  H   H758      1.0  0.43278  0.84778  0.07114  1.0000
  N   N46       1.0  0.42636  0.85951  0.10739  1.0000
  H   H759      1.0  0.47098  0.90392  0.52183  1.0000
  H   H760      1.0  0.38401  0.87893  0.76732  1.0000
  N   N47       1.0  0.32252  0.81561  0.01729  1.0000
  H   H761      1.0  0.30911  0.76033  0.71747  1.0000
  C   C485      1.0  0.49937  0.86343  0.93355  1.0000
  H   H762      1.0  0.49757  0.95740  0.77449  1.0000
  H   H763      1.0  0.45248  0.90438  0.46986  1.0000
  C   C486      1.0  0.32112  0.82535  0.98610  1.0000
  N   N48       1.0  0.43832  0.78847  0.25114  1.0000
  H   H764      1.0  0.33343  0.76987  0.04333  1.0000
  S   S221      1.0  0.44967  0.98398  0.74725  1.0000
  H   H765      1.0  0.48831  0.91024  0.46276  1.0000
  H   H766      1.0  0.32063  0.76601  0.93348  1.0000
  N   N49       1.0  0.49638  0.86473  0.89668  1.0000
  H   H767      1.0  0.47069  0.77933  0.98967  1.0000
  H   H768      1.0  0.49270  0.94231  0.63056  1.0000
  H   H769      1.0  0.49386  0.92305  0.24798  1.0000
  H   H770      1.0  0.45294  0.78046  0.22345  1.0000
  C   C487      1.0  0.46004  0.87279  0.74066  1.0000
  H   H771      1.0  0.45912  0.87614  0.71179  1.0000
  H   H772      1.0  0.46736  0.88074  0.74618  1.0000
  H   H773      1.0  0.46430  0.86421  0.74191  1.0000
  H   H774      1.0  0.44013  0.88447  0.73761  1.0000
  H   H775      1.0  0.43639  0.86191  0.73111  1.0000
  H   H776      1.0  0.49086  0.92710  0.46442  1.0000
  H   H777      1.0  0.44653  0.86931  0.10145  1.0000
  H   H778      1.0  0.42050  0.86779  0.15337  1.0000
  C   C488      1.0  0.43084  0.86207  0.24292  1.0000
  H   H779      1.0  0.32597  0.83547  0.98682  1.0000
  C   C489      1.0  0.49312  0.92697  0.21922  1.0000
  C   C490      1.0  0.46808  0.91306  0.51225  1.0000
  N   N50       1.0  0.44727  0.86961  0.76770  1.0000
  C   C491      1.0  0.44213  0.88134  0.76524  1.0000
  C   C492      1.0  0.43794  0.85898  0.75944  1.0000
  H   H780      1.0  0.44930  0.88977  0.76921  1.0000
  H   H781      1.0  0.45666  0.87052  0.23267  1.0000
  C   C493      1.0  0.44802  0.95708  0.18897  1.0000
  C   C494      1.0  0.43736  0.96159  0.20355  1.0000
  C   C495      1.0  0.49486  0.88902  0.76447  1.0000
  H   H782      1.0  0.44923  0.88191  0.25199  1.0000
  H   H783      1.0  0.42076  0.83876  0.11288  1.0000
  H   H784      1.0  0.42292  0.79271  0.22578  1.0000
  C   C496      1.0  0.30465  0.76032  0.74558  1.0000
  C   C497      1.0  0.47846  0.78487  0.17019  1.0000
  N   N51       1.0  0.43818  0.86186  0.27219  1.0000
  C   C498      1.0  0.45078  0.87195  0.25833  1.0000
  H   H785      1.0  0.44606  0.84833  0.30490  1.0000
  H   H786      1.0  0.46920  0.98659  0.14156  1.0000
  H   H787      1.0  0.45419  0.98023  0.61709  1.0000
  H   H788      1.0  0.48585  0.88103  0.28837  1.0000
  H   H789      1.0  0.43952  0.86274  0.82670  1.0000
  H   H790      1.0  0.42826  0.85618  0.77970  1.0000
  C   C499      1.0  0.41527  0.86154  0.09117  1.0000
  H   H791      1.0  0.43743  0.84514  0.11441  1.0000
  H   H792      1.0  0.45687  0.87174  0.27911  1.0000
  H   H793      1.0  0.34166  0.82672  0.01737  1.0000
  H   H794      1.0  0.49067  0.85231  0.86136  1.0000
  H   H795      1.0  0.47222  0.93725  0.46919  1.0000
  C   C500      1.0  0.44895  0.86529  0.80550  1.0000
  H   H796      1.0  0.45272  0.85641  0.80817  1.0000
  C   C501      1.0  0.42946  0.84726  0.10117  1.0000
  C   C502      1.0  0.44075  0.84888  0.28236  1.0000
  H   H797      1.0  0.32100  0.80019  0.98852  1.0000
  H   H798      1.0  0.48726  0.78525  0.18035  1.0000
  C   C503      1.0  0.47792  0.95864  0.64215  1.0000
  C   C504      1.0  0.45951  0.96620  0.16672  1.0000
  H   H799      1.0  0.43282  0.87951  0.78640  1.0000
  H   H800      1.0  0.44690  0.84674  0.25831  1.0000
  H   H801      1.0  0.43147  0.84097  0.29176  1.0000
  C   C505      1.0  0.47053  0.92723  0.23963  1.0000
  H   H802      1.0  0.45609  0.87298  0.81257  1.0000
  C   C506      1.0  0.43799  0.87059  0.08977  1.0000
  H   H803      1.0  0.41377  0.85059  0.16148  1.0000
  H   H804      1.0  0.43021  0.94660  0.70076  1.0000
  H   H805      1.0  0.37686  0.84900  0.86615  1.0000
  C   C507      1.0  0.43039  0.86457  0.30502  1.0000
  H   H806      1.0  0.42811  0.87417  0.29783  1.0000
  H   H807      1.0  0.47415  0.76396  0.17519  1.0000
  H   H808      1.0  0.35806  0.85616  0.84642  1.0000
  C   C508      1.0  0.42045  0.95608  0.36378  1.0000
  C   C509      1.0  0.42271  0.85863  0.14758  1.0000
  H   H809      1.0  0.44110  0.87148  0.05944  1.0000
  H   H810      1.0  0.43603  0.88001  0.09385  1.0000
  C   C510      1.0  0.38666  0.87011  0.78120  1.0000
  H   H811      1.0  0.49150  0.78281  0.05763  1.0000
  H   H812      1.0  0.42250  0.95914  0.29019  1.0000
  H   H813      1.0  0.42087  0.85707  0.31652  1.0000
  H   H814      1.0  0.43062  0.85664  0.16108  1.0000
  H   H815      1.0  0.43579  0.86493  0.32733  1.0000
  H   H816      1.0  0.38143  0.84529  0.82212  1.0000
  C   C511      1.0  0.48374  0.76398  0.02370  1.0000
  H   H817      1.0  0.42203  0.99464  0.06851  1.0000
  H   H818      1.0  0.31065  0.82486  0.98669  1.0000
  C   C512      1.0  0.47921  0.92742  0.17599  1.0000
  H   H819      1.0  0.30883  0.75587  0.97435  1.0000
  H   H820      1.0  0.44473  0.97214  0.34601  1.0000
  H   H821      1.0  0.49522  0.96123  0.55487  1.0000
  C   C513      1.0  0.47107  0.77280  0.16722  1.0000
  C   C514      1.0  0.44180  0.96257  0.65544  1.0000
  H   H822      1.0  0.44973  0.96911  0.30102  1.0000
  H   H823      1.0  0.39723  0.87318  0.78086  1.0000
  C   C515      1.0  0.43940  0.96299  0.72049  1.0000
  H   H824      1.0  0.38548  0.86294  0.76365  1.0000
  C   C516      1.0  0.29094  0.76992  0.97231  1.0000
  H   H825      1.0  0.48257  0.90395  0.20597  1.0000
  C   C517      1.0  0.27501  0.75132  0.61214  1.0000
  H   H826      1.0  0.42011  0.94229  0.31215  1.0000
  H   H827      1.0  0.41324  0.94634  0.37368  1.0000
  H   H828      1.0  0.31662  0.81051  0.07680  1.0000
  C   C518      1.0  0.31408  0.76745  0.07682  1.0000
  H   H829      1.0  0.34418  0.78807  0.06765  1.0000
  H   H830      1.0  0.49168  0.99128  0.19229  1.0000
  H   H831      1.0  0.42979  0.97848  0.20644  1.0000
  H   H832      1.0  0.30559  0.81748  0.05456  1.0000
  C   C519      1.0  0.36457  0.86024  0.81811  1.0000
  C   C520      1.0  0.42971  0.78622  0.22558  1.0000
  H   H833      1.0  0.47339  0.75852  0.75585  1.0000
  H   H834      1.0  0.46874  0.78879  0.02364  1.0000
  H   H835      1.0  0.36109  0.86847  0.80432  1.0000
  C   C521      1.0  0.46976  0.95268  0.59105  1.0000
  N   N52       1.0  0.37845  0.86454  0.81932  1.0000
  C   C522      1.0  0.32763  0.77334  0.06408  1.0000
  H   H836      1.0  0.39315  0.85602  0.83808  1.0000
  H   H837      1.0  0.32564  0.82372  0.95896  1.0000
  H   H838      1.0  0.28845  0.76360  0.90858  1.0000
  C   C523      1.0  0.37985  0.87458  0.84100  1.0000
  C   C524      1.0  0.31624  0.80234  0.01462  1.0000
  C   C525      1.0  0.49457  0.88282  0.23083  1.0000
  H   H839      1.0  0.32098  0.82767  0.05634  1.0000
  H   H840      1.0  0.36303  0.85248  0.80260  1.0000
  H   H841      1.0  0.47591  0.90379  0.25308  1.0000
  H   H842      1.0  0.43192  0.93625  0.36059  1.0000
  H   H843      1.0  0.37670  0.88324  0.82840  1.0000
  H   H844      1.0  0.30443  0.76097  0.89542  1.0000
  C   C526      1.0  0.44963  0.98420  0.17321  1.0000
  C   C527      1.0  0.48468  0.94170  0.61577  1.0000
  H   H845      1.0  0.44178  0.94865  0.37614  1.0000
  H   H846      1.0  0.44729  0.94594  0.33099  1.0000
  H   H847      1.0  0.41516  0.96318  0.35273  1.0000
  C   C528      1.0  0.33658  0.81681  0.01567  1.0000
  C   C529      1.0  0.38268  0.85323  0.83710  1.0000
  H   H848      1.0  0.39020  0.87808  0.84249  1.0000
  C   C530      1.0  0.45711  0.75549  0.82965  1.0000
  H   H849      1.0  0.44075  0.80928  0.23828  1.0000
  H   H850      1.0  0.37378  0.87066  0.86995  1.0000
  H   H851      1.0  0.34172  0.81493  0.98957  1.0000
  C   C531      1.0  0.45317  0.98182  0.67360  1.0000
  H   H852      1.0  0.31515  0.78384  0.89416  1.0000
  H   H853      1.0  0.43565  0.95138  0.28193  1.0000
  C   C532      1.0  0.42735  0.95202  0.30349  1.0000
  H   H854      1.0  0.46776  0.96279  0.15502  1.0000
  H   H855      1.0  0.48290  0.87204  0.86848  1.0000
  H   H856      1.0  0.28872  0.76057  0.84579  1.0000
  C   C533      1.0  0.45015  0.97531  0.64599  1.0000
  C   C534      1.0  0.48126  0.77674  0.06928  1.0000
  H   H857      1.0  0.43549  0.78816  0.19657  1.0000
  C   C535      1.0  0.44757  0.97578  0.71112  1.0000
  C   C536      1.0  0.29330  0.76049  0.81791  1.0000
  C   C537      1.0  0.43665  0.95636  0.69294  1.0000
  H   H858      1.0  0.30564  0.80109  0.01559  1.0000
  N   N53       1.0  0.47553  0.77170  0.04064  1.0000
  C   C538      1.0  0.31613  0.81795  0.05270  1.0000
  H   H859      1.0  0.46677  0.96197  0.58464  1.0000
  H   H860      1.0  0.45758  0.75911  0.03727  1.0000
  H   H861      1.0  0.29918  0.78651  0.90395  1.0000
  C   C539      1.0  0.44666  0.77918  0.25143  1.0000
  H   H862      1.0  0.45743  0.91125  0.52527  1.0000
  H   H863      1.0  0.47618  0.93378  0.63353  1.0000
  H   H864      1.0  0.44246  0.99325  0.08857  1.0000
  H   H865      1.0  0.48812  0.93858  0.59005  1.0000
  H   H866      1.0  0.28686  0.76000  0.99104  1.0000
  H   H867      1.0  0.48139  0.76861  0.09219  1.0000
  H   H868      1.0  0.49594  0.98509  0.27205  1.0000
  H   H869      1.0  0.48611  0.95943  0.65638  1.0000
  C   C540      1.0  0.28701  0.75135  0.80060  1.0000
  C   C541      1.0  0.49516  0.87584  0.77299  1.0000
  C   C542      1.0  0.30678  0.78337  0.91712  1.0000
  H   H870      1.0  0.46599  0.89702  0.46612  1.0000
  H   H871      1.0  0.47562  0.96831  0.63683  1.0000
  H   H872      1.0  0.47266  0.93808  0.23202  1.0000
  H   H873      1.0  0.49392  0.76997  0.01046  1.0000
  H   H874      1.0  0.48761  0.76046  0.71965  1.0000
  H   H875      1.0  0.47634  0.86480  0.91701  1.0000
  C   C543      1.0  0.44671  0.80201  0.23874  1.0000
  H   H876      1.0  0.45955  0.99160  0.66582  1.0000
  H   H877      1.0  0.28265  0.77278  0.96209  1.0000
  H   H878      1.0  0.43637  0.78804  0.30893  1.0000
  C   C544      1.0  0.48533  0.87083  0.89602  1.0000
  S   S222      1.0  0.30688  0.75507  0.05625  1.0000
  S   S223      1.0  0.47718  0.99961  0.79030  1.0000
  H   H879      1.0  0.29283  0.75072  0.93677  1.0000
  H   H880      1.0  0.60051  0.02681  0.01629  1.0000
  C   C545      1.0  0.50056  0.12692  0.14583  1.0000
  H   H881      1.0  0.71538  0.24013  0.02022  1.0000
  C   C546      1.0  0.58588  0.04730  0.00645  1.0000
  C   C547      1.0  0.59111  0.23152  0.90274  1.0000
  H   H882      1.0  0.52611  0.12847  0.13843  1.0000
  H   H883      1.0  0.62157  0.17039  0.48784  1.0000
  Fe  Fe114     1.0  0.59477  0.05685  0.76981  1.0000
  S   S224      1.0  0.58144  0.06275  0.81353  1.0000
  S   S225      1.0  0.61078  0.07010  0.72072  1.0000
  Fe  Fe115     1.0  0.56536  0.05125  0.79378  1.0000
  S   S226      1.0  0.54799  0.05823  0.78257  1.0000
  S   S227      1.0  0.57850  0.04671  0.74755  1.0000
  Fe  Fe116     1.0  0.57330  0.05800  0.15156  1.0000
  S   S228      1.0  0.55237  0.05836  0.16917  1.0000
  Fe  Fe117     1.0  0.60026  0.07312  0.15508  1.0000
  S   S229      1.0  0.60626  0.09285  0.16991  1.0000
  S   S230      1.0  0.58761  0.07593  0.11459  1.0000
  Fe  Fe118     1.0  0.53068  0.11472  0.23919  1.0000
  S   S231      1.0  0.54804  0.13131  0.20751  1.0000
  S   S232      1.0  0.52783  0.09931  0.20496  1.0000
  Fe  Fe119     1.0  0.52982  0.12585  0.30993  1.0000
  S   S233      1.0  0.54709  0.14310  0.28220  1.0000
  S   S234      1.0  0.52088  0.11938  0.37230  1.0000
  Fe  Fe120     1.0  0.53777  0.14451  0.23349  1.0000
  S   S235      1.0  0.53710  0.16264  0.19268  1.0000
  Fe  Fe121     1.0  0.55575  0.12849  0.25802  1.0000
  S   S236      1.0  0.57587  0.12551  0.25289  1.0000
  S   S237      1.0  0.51961  0.12813  0.26263  1.0000
  S   S238      1.0  0.53929  0.11116  0.28870  1.0000
  Fe  Fe122     1.0  0.64653  0.14168  0.27012  1.0000
  S   S239      1.0  0.63461  0.14485  0.32172  1.0000
  S   S240      1.0  0.64518  0.12200  0.25461  1.0000
  Fe  Fe123     1.0  0.66378  0.17027  0.24806  1.0000
  S   S241      1.0  0.65301  0.17566  0.29732  1.0000
  S   S242      1.0  0.68089  0.18304  0.20161  1.0000
  Fe  Fe124     1.0  0.65353  0.15611  0.33027  1.0000
  S   S243      1.0  0.66030  0.15179  0.38386  1.0000
  Fe  Fe125     1.0  0.63508  0.16403  0.28469  1.0000
  S   S244      1.0  0.61708  0.17115  0.28148  1.0000
  S   S245      1.0  0.66558  0.15143  0.28137  1.0000
  S   S246      1.0  0.64578  0.16018  0.23273  1.0000
  Fe  Fe126     1.0  0.52161  0.12313  0.63667  1.0000
  S   S247      1.0  0.53461  0.11958  0.58747  1.0000
  H   H884      1.0  0.50247  0.13581  0.68268  1.0000
  Fe  Fe127     1.0  0.53886  0.15134  0.62724  1.0000
  S   S248      1.0  0.55307  0.14984  0.57730  1.0000
  S   S249      1.0  0.53855  0.16788  0.65785  1.0000
  Fe  Fe128     1.0  0.53548  0.14020  0.55854  1.0000
  S   S250      1.0  0.53661  0.14786  0.49706  1.0000
  Fe  Fe129     1.0  0.55103  0.12946  0.60913  1.0000
  S   S251      1.0  0.56795  0.12092  0.61509  1.0000
  S   S252      1.0  0.52119  0.14318  0.60641  1.0000
  S   S253      1.0  0.53822  0.13152  0.66010  1.0000
  Fe  Fe130     1.0  0.64813  0.14601  0.66291  1.0000
  S   S254      1.0  0.63584  0.14744  0.62120  1.0000
  S   S255      1.0  0.64844  0.12669  0.69935  1.0000
  Fe  Fe131     1.0  0.65424  0.17560  0.66136  1.0000
  S   S256      1.0  0.64233  0.17868  0.61941  1.0000
  S   S257      1.0  0.65748  0.19284  0.68897  1.0000
  Fe  Fe132     1.0  0.62770  0.16053  0.65323  1.0000
  S   S258      1.0  0.60682  0.16128  0.66937  1.0000
  Fe  Fe133     1.0  0.65160  0.16559  0.58956  1.0000
  S   S259      1.0  0.65437  0.17459  0.52782  1.0000
  S   S260      1.0  0.63874  0.15799  0.69688  1.0000
  S   S261      1.0  0.66486  0.16357  0.62945  1.0000
  Fe  Fe134     1.0  0.59150  0.23399  0.11507  1.0000
  H   H885      1.0  0.59895  0.03079  0.73938  1.0000
  S   S262      1.0  0.58210  0.21542  0.16118  1.0000
  H   H886      1.0  0.61847  0.05012  0.67289  1.0000
  S   S263      1.0  0.61072  0.23429  0.07847  1.0000
  S   S264      1.0  0.58285  0.20768  0.70408  1.0000
  S   S265      1.0  0.59916  0.21922  0.77556  1.0000
  H   H887      1.0  0.73225  0.23063  0.75534  1.0000
  H   H888      1.0  0.62779  0.23209  0.81390  1.0000
  H   H889      1.0  0.65300  0.23349  0.86894  1.0000
  H   H890      1.0  0.53718  0.06009  0.07925  1.0000
  H   H891      1.0  0.60444  0.01668  0.73350  1.0000
  H   H892      1.0  0.53236  0.03543  0.84618  1.0000
  C   C548      1.0  0.59294  0.02433  0.67909  1.0000
  C   C549      1.0  0.62457  0.23367  0.84205  1.0000
  C   C550      1.0  0.58846  0.01647  0.08841  1.0000
  H   H893      1.0  0.58520  0.02777  0.69548  1.0000
  H   H894      1.0  0.51545  0.12859  0.72558  1.0000
  C   C551      1.0  0.64654  0.23666  0.85127  1.0000
  H   H895      1.0  0.51584  0.04128  0.89105  1.0000
  H   H896      1.0  0.50900  0.00842  0.25238  1.0000
  H   H897      1.0  0.61091  0.18669  0.56218  1.0000
  H   H898      1.0  0.52216  0.15617  0.13616  1.0000
  H   H899      1.0  0.50922  0.00506  0.90871  1.0000
  C   C552      1.0  0.50742  0.02957  0.84034  1.0000
  S   S266      1.0  0.51246  0.01455  0.73076  1.0000
  H   H900      1.0  0.60881  0.04783  0.63955  1.0000
  H   H901      1.0  0.58628  0.01684  0.11809  1.0000
  H   H902      1.0  0.59333  0.22818  0.99292  1.0000
  H   H903      1.0  0.58248  0.21613  0.95237  1.0000
  C   C553      1.0  0.67101  0.20164  0.70268  1.0000
  C   C554      1.0  0.68349  0.19944  0.69465  1.0000
  C   C555      1.0  0.69201  0.21657  0.72482  1.0000
  C   C556      1.0  0.67951  0.21869  0.73309  1.0000
  C   C557      1.0  0.66911  0.21130  0.72198  1.0000
  H   H904      1.0  0.68513  0.19207  0.67983  1.0000
  H   H905      1.0  0.67787  0.22610  0.74777  1.0000
  H   H906      1.0  0.65954  0.21313  0.72832  1.0000
  C   C558      1.0  0.55106  0.17880  0.67054  1.0000
  C   C559      1.0  0.56437  0.17933  0.65938  1.0000
  C   C560      1.0  0.57388  0.18816  0.67003  1.0000
  C   C561      1.0  0.57027  0.19665  0.69193  1.0000
  C   C562      1.0  0.55695  0.19610  0.70312  1.0000
  C   C563      1.0  0.54745  0.18726  0.69245  1.0000
  H   H907      1.0  0.56734  0.17303  0.64219  1.0000
  H   H908      1.0  0.58412  0.18846  0.66103  1.0000
  H   H909      1.0  0.55397  0.20255  0.71978  1.0000
  H   H910      1.0  0.53722  0.18707  0.70107  1.0000
  C   C564      1.0  0.57851  0.13156  0.63239  1.0000
  C   C565      1.0  0.57475  0.14214  0.64354  1.0000
  C   C566      1.0  0.58338  0.15097  0.65604  1.0000
  C   C567      1.0  0.59592  0.14949  0.65641  1.0000
  C   C568      1.0  0.59967  0.13885  0.64558  1.0000
  C   C569      1.0  0.59093  0.12982  0.63386  1.0000
  H   H911      1.0  0.56526  0.14368  0.64222  1.0000
  H   H912      1.0  0.58042  0.15912  0.66470  1.0000
  H   H913      1.0  0.60925  0.13753  0.64621  1.0000
  H   H914      1.0  0.59389  0.12167  0.62514  1.0000
  C   C570      1.0  0.68753  0.20003  0.19621  1.0000
  C   C571      1.0  0.68431  0.20631  0.22445  1.0000
  C   C572      1.0  0.69054  0.21959  0.22015  1.0000
  C   C573      1.0  0.69972  0.22683  0.18716  1.0000
  C   C574      1.0  0.70262  0.22064  0.15849  1.0000
  C   C575      1.0  0.69667  0.20727  0.16321  1.0000
  H   H915      1.0  0.67713  0.20092  0.24966  1.0000
  H   H916      1.0  0.68819  0.22434  0.24236  1.0000
  H   H917      1.0  0.70972  0.22607  0.13306  1.0000
  H   H918      1.0  0.69924  0.20252  0.14118  1.0000
  C   C576      1.0  0.65700  0.15743  0.42496  1.0000
  C   C577      1.0  0.66007  0.15102  0.45690  1.0000
  C   C578      1.0  0.65869  0.15575  0.48931  1.0000
  C   C579      1.0  0.65459  0.16719  0.48971  1.0000
  C   C580      1.0  0.65138  0.17353  0.45791  1.0000
  C   C581      1.0  0.65234  0.16856  0.42592  1.0000
  H   H919      1.0  0.66370  0.14241  0.45647  1.0000
  H   H920      1.0  0.66131  0.15084  0.51341  1.0000
  H   H921      1.0  0.64831  0.18245  0.45786  1.0000
  H   H922      1.0  0.64983  0.17354  0.40174  1.0000
  C   C582      1.0  0.54997  0.17712  0.18284  1.0000
  C   C583      1.0  0.55130  0.18740  0.15212  1.0000
  C   C584      1.0  0.56125  0.19913  0.14437  1.0000
  C   C585      1.0  0.56978  0.20075  0.16778  1.0000
  C   C586      1.0  0.56842  0.19046  0.19845  1.0000
  C   C587      1.0  0.55869  0.17867  0.20571  1.0000
  H   H923      1.0  0.54458  0.18634  0.13432  1.0000
  H   H924      1.0  0.56213  0.20700  0.12082  1.0000
  H   H925      1.0  0.57483  0.19165  0.21706  1.0000
  H   H926      1.0  0.55773  0.17091  0.22956  1.0000
  C   C588      1.0  0.52534  0.12743  0.40667  1.0000
  C   C589      1.0  0.52275  0.12018  0.44353  1.0000
  C   C590      1.0  0.52613  0.12622  0.47160  1.0000
  C   C591      1.0  0.53199  0.13965  0.46317  1.0000
  C   C592      1.0  0.53449  0.14691  0.42635  1.0000
  C   C593      1.0  0.53124  0.14084  0.39825  1.0000
  H   H927      1.0  0.51807  0.10982  0.45043  1.0000
  H   H928      1.0  0.52408  0.12051  0.49978  1.0000
  H   H929      1.0  0.53890  0.15733  0.41958  1.0000
  H   H930      1.0  0.53304  0.14660  0.37021  1.0000
  C   C594      1.0  0.58758  0.13885  0.25675  1.0000
  C   C595      1.0  0.58466  0.15081  0.25825  1.0000
  C   C596      1.0  0.59382  0.16090  0.26518  1.0000
  C   C597      1.0  0.60592  0.15902  0.27018  1.0000
  C   C598      1.0  0.60896  0.14723  0.26721  1.0000
  C   C599      1.0  0.59980  0.13715  0.26065  1.0000
  H   H931      1.0  0.57533  0.15226  0.25443  1.0000
  H   H932      1.0  0.59147  0.17005  0.26709  1.0000
  H   H933      1.0  0.61828  0.14569  0.27064  1.0000
  H   H934      1.0  0.60205  0.12789  0.25958  1.0000
  C   C600      1.0  0.61695  0.10048  0.19463  1.0000
  C   C601      1.0  0.61643  0.11300  0.19960  1.0000
  C   C602      1.0  0.62480  0.11960  0.21846  1.0000
  C   C603      1.0  0.63388  0.11380  0.23243  1.0000
  C   C604      1.0  0.63445  0.10131  0.22734  1.0000
  C   C605      1.0  0.62600  0.09465  0.20872  1.0000
  H   H935      1.0  0.60949  0.11764  0.18885  1.0000
  H   H936      1.0  0.62424  0.12920  0.22203  1.0000
  H   H937      1.0  0.64145  0.09673  0.23797  1.0000
  H   H938      1.0  0.62656  0.08506  0.20510  1.0000
  C   C606      1.0  0.61995  0.08626  0.71704  1.0000
  C   C607      1.0  0.62575  0.08953  0.74524  1.0000
  C   C608      1.0  0.63439  0.10197  0.73944  1.0000
  C   C609      1.0  0.63702  0.11140  0.70589  1.0000
  C   C610      1.0  0.63086  0.10827  0.67817  1.0000
  C   C611      1.0  0.62254  0.09571  0.68353  1.0000
  H   H939      1.0  0.62410  0.08228  0.77084  1.0000
  H   H940      1.0  0.63923  0.10423  0.76089  1.0000
  H   H941      1.0  0.63295  0.11535  0.65199  1.0000
  H   H942      1.0  0.61830  0.09321  0.66127  1.0000
  H   H943      1.0  0.57313  0.03164  0.99222  1.0000
  H   H944      1.0  0.58257  0.04313  0.03590  1.0000
  C   C612      1.0  0.58053  0.04084  0.98163  1.0000
  S   S267      1.0  0.50626  0.10866  0.68527  1.0000
  C   C613      1.0  0.51501  0.14877  0.12798  1.0000
  C   C614      1.0  0.51498  0.08919  0.19164  1.0000
  C   C615      1.0  0.52678  0.02500  0.85748  1.0000
  H   H945      1.0  0.56047  0.04814  0.06717  1.0000
  C   C616      1.0  0.67835  0.18958  0.34014  1.0000
  H   H946      1.0  0.58409  0.00627  0.08728  1.0000
  H   H947      1.0  0.55964  0.06151  0.08862  1.0000
  C   C617      1.0  0.58883  0.22588  0.94078  1.0000
  C   C618      1.0  0.52549  0.02879  0.12839  1.0000
  C   C619      1.0  0.53774  0.02703  0.13188  1.0000
  C   C620      1.0  0.54572  0.03559  0.14687  1.0000
  C   C621      1.0  0.54160  0.04606  0.15756  1.0000
  C   C622      1.0  0.52906  0.04734  0.15608  1.0000
  C   C623      1.0  0.52101  0.03874  0.14135  1.0000
  H   H948      1.0  0.54113  0.01917  0.12256  1.0000
  H   H949      1.0  0.55503  0.03407  0.15013  1.0000
  H   H950      1.0  0.52575  0.05524  0.16524  1.0000
  H   H951      1.0  0.51151  0.04012  0.13917  1.0000
  H   H952      1.0  0.69900  0.20295  0.28346  1.0000
  S   S268      1.0  0.57534  0.00802  0.77647  1.0000
  H   H953      1.0  0.62419  0.18545  0.50211  1.0000
  C   C624      1.0  0.65808  0.24621  0.73855  1.0000
  N   N54       1.0  0.51005  0.13649  0.15729  1.0000
  C   C625      1.0  0.50848  0.07257  0.15763  1.0000
  Fe  Fe135     1.0  0.57749  0.02838  0.78847  1.0000
  H   H954      1.0  0.50514  0.12465  0.11970  1.0000
  C   C626      1.0  0.56056  0.00631  0.72335  1.0000
  H   H955      1.0  0.52009  0.01438  0.20744  1.0000
  C   C627      1.0  0.52328  0.02740  0.73989  1.0000
  C   C628      1.0  0.52008  0.03929  0.74020  1.0000
  C   C629      1.0  0.52771  0.04879  0.75326  1.0000
  C   C630      1.0  0.53888  0.04665  0.76440  1.0000
  C   C631      1.0  0.54248  0.03504  0.76210  1.0000
  C   C632      1.0  0.53463  0.02538  0.75007  1.0000
  H   H956      1.0  0.55292  0.06380  0.98016  1.0000
  H   H957      1.0  0.52479  0.05765  0.75547  1.0000
  H   H958      1.0  0.55107  0.03325  0.77067  1.0000
  H   H959      1.0  0.53716  0.01620  0.74973  1.0000
  N   N55       1.0  0.60118  0.12066  0.75150  1.0000
  C   C633      1.0  0.60014  0.12683  0.78324  1.0000
  C   C634      1.0  0.61306  0.12820  0.72264  1.0000
  C   C635      1.0  0.58950  0.12059  0.73620  1.0000
  C   C636      1.0  0.60207  0.10710  0.76380  1.0000
  H   H960      1.0  0.59128  0.12143  0.80568  1.0000
  H   H961      1.0  0.59954  0.13712  0.77466  1.0000
  H   H962      1.0  0.60886  0.12708  0.79523  1.0000
  H   H963      1.0  0.61431  0.12379  0.69835  1.0000
  H   H964      1.0  0.61266  0.13845  0.71245  1.0000
  H   H965      1.0  0.62207  0.12858  0.73329  1.0000
  H   H966      1.0  0.59011  0.11618  0.71180  1.0000
  H   H967      1.0  0.58849  0.13069  0.72690  1.0000
  H   H968      1.0  0.58035  0.11487  0.75709  1.0000
  H   H969      1.0  0.61080  0.10681  0.77541  1.0000
  H   H970      1.0  0.60298  0.10222  0.74035  1.0000
  H   H971      1.0  0.59326  0.10105  0.78554  1.0000
  N   N56       1.0  0.61641  0.20713  0.17880  1.0000
  C   C637      1.0  0.61088  0.21751  0.19073  1.0000
  C   C638      1.0  0.62943  0.21313  0.15312  1.0000
  C   C639      1.0  0.60760  0.19990  0.15975  1.0000
  C   C640      1.0  0.61771  0.19800  0.21155  1.0000
  H   H972      1.0  0.60095  0.21339  0.20968  1.0000
  H   H973      1.0  0.60982  0.22457  0.16659  1.0000
  H   H974      1.0  0.61726  0.22319  0.20517  1.0000
  H   H975      1.0  0.63402  0.20561  0.14385  1.0000
  H   H976      1.0  0.62872  0.21999  0.12798  1.0000
  H   H977      1.0  0.63624  0.21892  0.16633  1.0000
  H   H978      1.0  0.60620  0.20652  0.13523  1.0000
  H   H979      1.0  0.59768  0.19526  0.17836  1.0000
  H   H980      1.0  0.61146  0.19202  0.15014  1.0000
  H   H981      1.0  0.62172  0.18992  0.20373  1.0000
  H   H982      1.0  0.60807  0.19336  0.23163  1.0000
  H   H983      1.0  0.62436  0.20304  0.22658  1.0000
  H   H984      1.0  0.50019  0.02992  0.91198  1.0000
  C   C641      1.0  0.50359  0.14517  0.69161  1.0000
  H   H985      1.0  0.59219  0.02644  0.64977  1.0000
  H   H986      1.0  0.52014  0.14711  0.10156  1.0000
  C   C642      1.0  0.59925  0.24416  0.88816  1.0000
  H   H987      1.0  0.52835  0.08065  0.16031  1.0000
  H   H988      1.0  0.62510  0.24425  0.83900  1.0000
  C   C643      1.0  0.60347  0.24513  0.94872  1.0000
  H   H989      1.0  0.69943  0.23017  0.98753  1.0000
  H   H990      1.0  0.60741  0.01183  0.12178  1.0000
  S   S269      1.0  0.63393  0.23858  0.72501  1.0000
  H   H991      1.0  0.63748  0.21151  0.88898  1.0000
  C   C644      1.0  0.70815  0.23768  0.97191  1.0000
  N   N57       1.0  0.69069  0.18588  0.32856  1.0000
  H   H992      1.0  0.61626  0.16029  0.58987  1.0000
  H   H993      1.0  0.63495  0.21313  0.84295  1.0000
  H   H994      1.0  0.51457  0.02658  0.92473  1.0000
  C   C645      1.0  0.59493  0.23269  0.96381  1.0000
  C   C646      1.0  0.60056  0.15720  0.54300  1.0000
  H   H995      1.0  0.56272  0.07358  0.22316  1.0000
  Fe  Fe136     1.0  0.58633  0.22370  0.73676  1.0000
  S   S270      1.0  0.58440  0.22226  0.87379  1.0000
  H   H996      1.0  0.57766  0.08075  0.18812  1.0000
  H   H997      1.0  0.68472  0.24510  0.97037  1.0000
  Fe  Fe137     1.0  0.58965  0.23051  0.81156  1.0000
  H   H998      1.0  0.51246  0.04013  0.82888  1.0000
  H   H999      1.0  0.55036  0.08443  0.18328  1.0000
  S   S271      1.0  0.60264  0.06757  0.02306  1.0000
  S   S272      1.0  0.61028  0.06062  0.12349  1.0000
  H   H1000     1.0  0.59922  0.17237  0.59186  1.0000
  Fe  Fe138     1.0  0.59643  0.06241  0.08598  1.0000
  N   N58       1.0  0.56837  0.13477  0.37308  1.0000
  H   H1001     1.0  0.61582  0.02306  0.01884  1.0000
  H   H1002     1.0  0.61756  0.22638  0.91612  1.0000
  H   H1003     1.0  0.67656  0.16217  0.11303  1.0000
  N   N59       1.0  0.61035  0.16922  0.54232  1.0000
  H   H1004     1.0  0.61886  0.03750  0.06183  1.0000
  H   H1005     1.0  0.55047  0.00486  0.67948  1.0000
  H   H1006     1.0  0.50873  0.02460  0.81720  1.0000
  C   C647      1.0  0.59413  0.05813  0.92970  1.0000
  H   H1007     1.0  0.62574  0.15948  0.54630  1.0000
  H   H1008     1.0  0.59593  0.18023  0.54968  1.0000
  S   S273      1.0  0.57545  0.23361  0.77584  1.0000
  C   C648      1.0  0.69393  0.20691  0.70555  1.0000
  H   H1009     1.0  0.62803  0.17456  0.56049  1.0000
  C   C649      1.0  0.61658  0.17645  0.50352  1.0000
  H   H1010     1.0  0.69811  0.17422  0.29354  1.0000
  H   H1011     1.0  0.62610  0.03035  0.66319  1.0000
  C   C650      1.0  0.67572  0.15152  0.11579  1.0000
  C   C651      1.0  0.57900  0.01153  0.20300  1.0000
  H   H1012     1.0  0.61600  0.02801  0.63097  1.0000
  H   H1013     1.0  0.68583  0.15019  0.11156  1.0000
  H   H1014     1.0  0.59048  0.01351  0.68959  1.0000
  H   H1015     1.0  0.58837  0.14033  0.37743  1.0000
  H   H1016     1.0  0.56345  0.12042  0.42489  1.0000
  H   H1017     1.0  0.60519  0.15057  0.52892  1.0000
  H   H1018     1.0  0.55009  0.12662  0.36066  1.0000
  S   S274      1.0  0.70552  0.22590  0.73739  1.0000
  H   H1019     1.0  0.56056  0.11576  0.36447  1.0000
  N   N60       1.0  0.60609  0.03063  0.68282  1.0000
  H   H1020     1.0  0.56531  0.09094  0.14788  1.0000
  S   S275      1.0  0.58504  0.05572  0.19389  1.0000
  C   C652      1.0  0.59550  0.05915  0.99298  1.0000
  H   H1021     1.0  0.52569  0.14496  0.71486  1.0000
  C   C653      1.0  0.58212  0.13395  0.36418  1.0000
  H   H1022     1.0  0.67156  0.14866  0.09286  1.0000
  H   H1023     1.0  0.60926  0.17941  0.48880  1.0000
  H   H1024     1.0  0.50111  0.00794  0.18068  1.0000
  Fe  Fe139     1.0  0.61289  0.23849  0.74522  1.0000
  H   H1025     1.0  0.56838  0.13711  0.42830  1.0000
  C   C654      1.0  0.56051  0.12616  0.35487  1.0000
  H   H1026     1.0  0.56435  0.12899  0.32429  1.0000
  C   C655      1.0  0.56299  0.13058  0.41362  1.0000
  H   H1027     1.0  0.58647  0.13714  0.33383  1.0000
  H   H1028     1.0  0.58289  0.12378  0.37346  1.0000
  H   H1029     1.0  0.67369  0.15849  0.18101  1.0000
  S   S276      1.0  0.69809  0.23585  0.91145  1.0000
  H   H1030     1.0  0.55253  0.13074  0.42111  1.0000
  H   H1031     1.0  0.65431  0.15622  0.15383  1.0000
  H   H1032     1.0  0.55768  0.14943  0.36603  1.0000
  H   H1033     1.0  0.57382  0.15523  0.37238  1.0000
  C   C656      1.0  0.56787  0.14841  0.35957  1.0000
  N   N61       1.0  0.66748  0.14374  0.15236  1.0000
  C   C657      1.0  0.65414  0.14572  0.15661  1.0000
  H   H1034     1.0  0.64926  0.14220  0.13564  1.0000
  H   H1035     1.0  0.58324  0.02289  0.07389  1.0000
  S   S277      1.0  0.58087  0.04468  0.11928  1.0000
  C   C658      1.0  0.60515  0.02007  0.03228  1.0000
  H   H1036     1.0  0.67167  0.24770  0.00284  1.0000
  H   H1037     1.0  0.50814  0.15522  0.76909  1.0000
  H   H1038     1.0  0.57166  0.15181  0.32902  1.0000
  C   C659      1.0  0.67327  0.14803  0.18185  1.0000
  C   C660      1.0  0.51651  0.13815  0.73336  1.0000
  Fe  Fe140     1.0  0.58042  0.04325  0.85047  1.0000
  H   H1039     1.0  0.66081  0.24791  0.14451  1.0000
  H   H1040     1.0  0.68342  0.14690  0.17927  1.0000
  H   H1041     1.0  0.64781  0.14028  0.18435  1.0000
  H   H1042     1.0  0.66231  0.12609  0.13374  1.0000
  H   H1043     1.0  0.55413  0.09344  0.62490  1.0000
  H   H1044     1.0  0.60112  0.01006  0.02907  1.0000
  C   C661      1.0  0.58460  0.04623  0.94315  1.0000
  C   C662      1.0  0.59959  0.06452  0.95454  1.0000
  S   S278      1.0  0.58672  0.24870  0.07165  1.0000
  H   H1045     1.0  0.52969  0.09550  0.70601  1.0000
  C   C663      1.0  0.66677  0.12973  0.15528  1.0000
  H   H1046     1.0  0.67665  0.12784  0.15233  1.0000
  H   H1047     1.0  0.55586  0.10167  0.16357  1.0000
  H   H1048     1.0  0.60706  0.07368  0.94386  1.0000
  C   C664      1.0  0.55853  0.06036  0.00018  1.0000
  H   H1049     1.0  0.61094  0.21117  0.66161  1.0000
  H   H1050     1.0  0.62030  0.19238  0.65349  1.0000
  H   H1051     1.0  0.54660  0.07671  0.62652  1.0000
  H   H1052     1.0  0.51868  0.07704  0.66070  1.0000
  H   H1053     1.0  0.66742  0.14222  0.20981  1.0000
  H   H1054     1.0  0.52643  0.06445  0.67592  1.0000
  H   H1055     1.0  0.60347  0.04107  0.05976  1.0000
  H   H1056     1.0  0.70354  0.20517  0.69901  1.0000
  H   H1057     1.0  0.60659  0.03472  0.10377  1.0000
  H   H1058     1.0  0.63381  0.22830  0.92350  1.0000
  H   H1059     1.0  0.60091  0.18932  0.70400  1.0000
  C   C665      1.0  0.53514  0.09654  0.67707  1.0000
  H   H1060     1.0  0.66065  0.12361  0.18267  1.0000
  H   H1061     1.0  0.62115  0.20937  0.88196  1.0000
  C   C666      1.0  0.61756  0.21329  0.68025  1.0000
  C   C667      1.0  0.62658  0.19505  0.67252  1.0000
  H   H1062     1.0  0.62680  0.22047  0.66344  1.0000
  H   H1063     1.0  0.63613  0.20165  0.65554  1.0000
  H   H1064     1.0  0.54446  0.10427  0.67132  1.0000
  S   S279      1.0  0.56311  0.03227  0.83356  1.0000
  H   H1065     1.0  0.59738  0.06236  0.90018  1.0000
  H   H1066     1.0  0.66081  0.23926  0.72333  1.0000
  N   N62       1.0  0.62014  0.20122  0.69982  1.0000
  C   C668      1.0  0.60765  0.19202  0.72193  1.0000
  H   H1067     1.0  0.61270  0.21818  0.70009  1.0000
  H   H1068     1.0  0.62867  0.18593  0.68652  1.0000
  C   C669      1.0  0.54457  0.08595  0.63208  1.0000
  C   C670      1.0  0.52498  0.07411  0.67932  1.0000
  H   H1069     1.0  0.52913  0.10015  0.65859  1.0000
  H   H1070     1.0  0.51928  0.07272  0.70820  1.0000
  C   C671      1.0  0.60880  0.04497  0.66936  1.0000
  C   C672      1.0  0.71029  0.24189  0.93338  1.0000
  H   H1071     1.0  0.56128  0.01662  0.72045  1.0000
  Fe  Fe141     1.0  0.59373  0.04347  0.15927  1.0000
  H   H1072     1.0  0.67011  0.18077  0.35384  1.0000
  S   S280      1.0  0.60465  0.24948  0.78428  1.0000
  H   H1073     1.0  0.56822  0.02610  0.19538  1.0000
  H   H1074     1.0  0.60237  0.19638  0.74253  1.0000
  H   H1075     1.0  0.60925  0.18281  0.73703  1.0000
  N   N63       1.0  0.53761  0.08405  0.67110  1.0000
  H   H1076     1.0  0.53874  0.08937  0.61267  1.0000
  H   H1077     1.0  0.51790  0.13666  0.76208  1.0000
  S   S281      1.0  0.59493  0.03799  0.80798  1.0000
  H   H1078     1.0  0.68125  0.16781  0.31800  1.0000
  C   C673      1.0  0.55926  0.09280  0.17262  1.0000
  H   H1079     1.0  0.67913  0.19586  0.36020  1.0000
  H   H1080     1.0  0.67559  0.19502  0.31606  1.0000
  C   C674      1.0  0.60915  0.01166  0.09188  1.0000
  C   C675      1.0  0.51074  0.03069  0.90103  1.0000
  C   C676      1.0  0.62885  0.20451  0.72441  1.0000
  H   H1081     1.0  0.63828  0.21162  0.70844  1.0000
  H   H1082     1.0  0.53433  0.06102  0.03376  1.0000
  C   C677      1.0  0.63152  0.21518  0.87038  1.0000
  H   H1083     1.0  0.53111  0.02080  0.87993  1.0000
  H   H1084     1.0  0.59278  0.15947  0.52916  1.0000
  S   S282      1.0  0.57736  0.03770  0.91346  1.0000
  C   C678      1.0  0.56758  0.01584  0.20524  1.0000
  C   C679      1.0  0.50357  0.13926  0.19193  1.0000
  H   H1085     1.0  0.63139  0.19571  0.73871  1.0000
  H   H1086     1.0  0.62426  0.20903  0.74577  1.0000
  H   H1087     1.0  0.60084  0.24876  0.85930  1.0000
  C   C680      1.0  0.55714  0.07813  0.02991  1.0000
  C   C681      1.0  0.50560  0.00980  0.88535  1.0000
  H   H1088     1.0  0.51230  0.15237  0.67204  1.0000
  S   S283      1.0  0.51597  0.01879  0.10696  1.0000
  H   H1089     1.0  0.55550  0.08688  0.68959  1.0000
  C   C682      1.0  0.54579  0.07971  0.69577  1.0000
  H   H1090     1.0  0.51113  0.06627  0.14008  1.0000
  H   H1091     1.0  0.54762  0.07012  0.69283  1.0000
  H   H1092     1.0  0.50694  0.15322  0.12238  1.0000
  H   H1093     1.0  0.54104  0.07854  0.72542  1.0000
  C   C683      1.0  0.62805  0.23162  0.90378  1.0000
  H   H1094     1.0  0.73408  0.22697  0.71097  1.0000
  C   C684      1.0  0.55526  0.00694  0.22067  1.0000
  C   C685      1.0  0.61607  0.02578  0.66086  1.0000
  H   H1095     1.0  0.55680  0.04959  0.00380  1.0000
  N   N64       1.0  0.51264  0.02376  0.87108  1.0000
  H   H1096     1.0  0.69554  0.18550  0.38132  1.0000
  H   H1097     1.0  0.59560  0.15163  0.57189  1.0000
  H   H1098     1.0  0.70275  0.20478  0.32676  1.0000
  N   N65       1.0  0.50504  0.14339  0.73015  1.0000
  H   H1099     1.0  0.54657  0.01052  0.22214  1.0000
  C   C686      1.0  0.60650  0.02742  0.72220  1.0000
  H   H1100     1.0  0.68593  0.18159  0.27870  1.0000
  H   H1101     1.0  0.61617  0.03217  0.72648  1.0000
  H   H1102     1.0  0.60133  0.04892  0.68500  1.0000
  S   S284      1.0  0.60078  0.24285  0.70492  1.0000
  H   H1103     1.0  0.61428  0.01499  0.67049  1.0000
  H   H1104     1.0  0.56914  0.06482  0.98705  1.0000
  H   H1105     1.0  0.55153  0.08215  0.01071  1.0000
  S   S285      1.0  0.63584  0.24874  0.13034  1.0000
  C   C687      1.0  0.70127  0.19776  0.30891  1.0000
  H   H1106     1.0  0.56774  0.08301  0.01783  1.0000
  H   H1107     1.0  0.51167  0.04112  0.73056  1.0000
  H   H1108     1.0  0.71075  0.19534  0.30003  1.0000
  H   H1109     1.0  0.56335  0.09749  0.25628  1.0000
  H   H1110     1.0  0.58417  0.10687  0.20733  1.0000
  C   C688      1.0  0.62051  0.16570  0.56055  1.0000
  C   C689      1.0  0.60381  0.17751  0.56229  1.0000
  H   H1111     1.0  0.51596  0.16332  0.72164  1.0000
  H   H1112     1.0  0.57516  0.11499  0.17958  1.0000
  H   H1113     1.0  0.57683  0.08325  0.23368  1.0000
  H   H1114     1.0  0.55469  0.10523  0.22644  1.0000
  C   C690      1.0  0.55811  0.09629  0.23397  1.0000
  H   H1115     1.0  0.65030  0.23531  0.82313  1.0000
  H   H1116     1.0  0.62890  0.24220  0.90221  1.0000
  H   H1117     1.0  0.55428  0.08099  0.05646  1.0000
  S   S286      1.0  0.59455  0.02272  0.18275  1.0000
  C   C691      1.0  0.51544  0.00552  0.23050  1.0000
  C   C692      1.0  0.57113  0.08242  0.21220  1.0000
  N   N66       1.0  0.56667  0.09431  0.20132  1.0000
  H   H1118     1.0  0.58470  0.10475  0.16134  1.0000
  C   C693      1.0  0.69413  0.17912  0.36172  1.0000
  H   H1119     1.0  0.54922  0.08796  0.24553  1.0000
  C   C694      1.0  0.57816  0.10573  0.18663  1.0000
  H   H1120     1.0  0.57298  0.06333  0.05001  1.0000
  S   S287      1.0  0.70792  0.24329  0.18373  1.0000
  Fe  Fe142     1.0  0.70228  0.24544  0.85076  1.0000
  H   H1121     1.0  0.68624  0.17016  0.37721  1.0000
  C   C695      1.0  0.54047  0.05767  0.05227  1.0000
  H   H1122     1.0  0.53821  0.04681  0.05752  1.0000
  H   H1123     1.0  0.50678  0.00433  0.86331  1.0000
  N   N67       1.0  0.55459  0.06378  0.03594  1.0000
  C   C696      1.0  0.56226  0.05896  0.06152  1.0000
  H   H1124     1.0  0.70331  0.17601  0.35414  1.0000
  N   N68       1.0  0.60272  0.02056  0.07170  1.0000
  S   S288      1.0  0.68709  0.24005  0.81917  1.0000
  N   N69       1.0  0.63268  0.22929  0.86688  1.0000
  C   C697      1.0  0.68892  0.17701  0.30357  1.0000
  C   C698      1.0  0.51823  0.08082  0.16899  1.0000
  H   H1125     1.0  0.61994  0.01450  0.08033  1.0000
  H   H1126     1.0  0.64781  0.24735  0.84870  1.0000
  S   S289      1.0  0.60063  0.24984  0.14024  1.0000
  C   C699      1.0  0.71713  0.24334  0.99045  1.0000
  C   C700      1.0  0.50697  0.15614  0.74022  1.0000
  C   C701      1.0  0.60813  0.03405  0.07438  1.0000
  H   H1127     1.0  0.61407  0.22822  0.85287  1.0000
  S   S290      1.0  0.71874  0.24407  0.80700  1.0000
  H   H1128     1.0  0.52858  0.01987  0.83486  1.0000
  C   C702      1.0  0.50183  0.08930  0.20247  1.0000
  C   C703      1.0  0.73959  0.23165  0.72921  1.0000
  H   H1129     1.0  0.52862  0.13815  0.17128  1.0000
  H   H1130     1.0  0.60534  0.00137  0.09050  1.0000
  H   H1131     1.0  0.51054  0.14636  0.20153  1.0000
  C   C704      1.0  0.52113  0.13101  0.16358  1.0000
  Fe  Fe143     1.0  0.70385  0.24066  0.77285  1.0000
  H   H1132     1.0  0.51784  0.12194  0.18627  1.0000
  H   H1133     1.0  0.52339  0.00258  0.24232  1.0000
  C   C705      1.0  0.64537  0.24789  0.74341  1.0000
  H   H1134     1.0  0.73104  0.24846  0.68383  1.0000
  H   H1135     1.0  0.74660  0.22589  0.73618  1.0000
  N   N70       1.0  0.74633  0.24552  0.71146  1.0000
  Fe  Fe144     1.0  0.60672  0.24999  0.03710  1.0000
  H   H1136     1.0  0.52120  0.00028  0.16359  1.0000
  H   H1137     1.0  0.62623  0.41192  0.62431  1.0000
  H   H1138     1.0  0.65930  0.43030  0.99988  1.0000
  H   H1139     1.0  0.59444  0.45847  0.44885  1.0000
  H   H1140     1.0  0.56177  0.47859  0.63381  1.0000
  C   C706      1.0  0.57571  0.48001  0.32417  1.0000
  H   H1141     1.0  0.65540  0.29699  0.66025  1.0000
  H   H1142     1.0  0.54249  0.47246  0.60687  1.0000
  H   H1143     1.0  0.74543  0.33972  0.81342  1.0000
  Fe  Fe145     1.0  0.57788  0.44973  0.21905  1.0000
  S   S291      1.0  0.56526  0.43033  0.25378  1.0000
  S   S292      1.0  0.59955  0.45472  0.21283  1.0000
  Fe  Fe146     1.0  0.55492  0.45929  0.19710  1.0000
  S   S293      1.0  0.54058  0.44040  0.22936  1.0000
  S   S294      1.0  0.54955  0.47755  0.17071  1.0000
  Fe  Fe147     1.0  0.55158  0.44206  0.27429  1.0000
  S   S295      1.0  0.54097  0.44296  0.33142  1.0000
  Fe  Fe148     1.0  0.55587  0.43077  0.20550  1.0000
  S   S296      1.0  0.55292  0.41478  0.17462  1.0000
  S   S297      1.0  0.56512  0.46144  0.24291  1.0000
  S   S298      1.0  0.56933  0.44965  0.16977  1.0000
  S   S299      1.0  0.60674  0.46852  0.36221  1.0000
  Fe  Fe149     1.0  0.56851  0.45260  0.57095  1.0000
  S   S300      1.0  0.55389  0.44463  0.62542  1.0000
  S   S301      1.0  0.58618  0.46898  0.56264  1.0000
  Fe  Fe150     1.0  0.55469  0.43367  0.53286  1.0000
  S   S302      1.0  0.53863  0.42401  0.58461  1.0000
  S   S303      1.0  0.55833  0.42571  0.48136  1.0000
  Fe  Fe151     1.0  0.53914  0.44449  0.59100  1.0000
  S   S304      1.0  0.52070  0.45059  0.61184  1.0000
  Fe  Fe152     1.0  0.55474  0.42498  0.61503  1.0000
  S   S305      1.0  0.55385  0.40880  0.66424  1.0000
  S   S306      1.0  0.55384  0.45405  0.53653  1.0000
  S   S307      1.0  0.57076  0.43311  0.56327  1.0000
  S   S308      1.0  0.61888  0.45729  0.67913  1.0000
  H   H1144     1.0  0.63787  0.27219  0.65041  1.0000
  H   H1145     1.0  0.61329  0.39775  0.64880  1.0000
  H   H1146     1.0  0.53596  0.36908  0.57719  1.0000
  C   C707      1.0  0.51204  0.47551  0.67529  1.0000
  H   H1147     1.0  0.62338  0.39504  0.70097  1.0000
  S   S309      1.0  0.59058  0.28205  0.10591  1.0000
  H   H1148     1.0  0.61960  0.29532  0.68361  1.0000
  H   H1149     1.0  0.66954  0.26974  0.00277  1.0000
  C   C708      1.0  0.51487  0.46369  0.14573  1.0000
  H   H1150     1.0  0.64779  0.27264  0.68364  1.0000
  Fe  Fe153     1.0  0.73551  0.28535  0.08958  1.0000
  H   H1151     1.0  0.65279  0.43384  0.93949  1.0000
  H   H1152     1.0  0.57245  0.46801  0.63675  1.0000
  S   S310      1.0  0.58744  0.27254  0.73017  1.0000
  C   C709      1.0  0.69685  0.42641  0.00420  1.0000
  H   H1153     1.0  0.58142  0.32377  0.91280  1.0000
  H   H1154     1.0  0.64356  0.30651  0.65985  1.0000
  Fe  Fe154     1.0  0.61232  0.37822  0.03901  1.0000
  S   S311      1.0  0.60066  0.35986  0.08149  1.0000
  S   S312      1.0  0.60879  0.38717  0.98408  1.0000
  Fe  Fe155     1.0  0.63060  0.38675  0.08837  1.0000
  S   S313      1.0  0.62063  0.36882  0.13438  1.0000
  S   S314      1.0  0.64345  0.40623  0.08974  1.0000
  Fe  Fe156     1.0  0.62036  0.35766  0.08939  1.0000
  S   S315      1.0  0.62699  0.33889  0.08938  1.0000
  Fe  Fe157     1.0  0.60184  0.37249  0.12257  1.0000
  S   S316      1.0  0.58538  0.37232  0.16987  1.0000
  S   S317      1.0  0.63201  0.37551  0.04406  1.0000
  S   S318      1.0  0.61169  0.39084  0.07951  1.0000
  Fe  Fe158     1.0  0.60080  0.36623  0.73482  1.0000
  S   S319      1.0  0.62075  0.36258  0.71879  1.0000
  S   S320      1.0  0.59429  0.37414  0.68303  1.0000
  Fe  Fe159     1.0  0.60037  0.35853  0.81699  1.0000
  S   S321      1.0  0.62039  0.35511  0.80569  1.0000
  S   S322      1.0  0.58982  0.35242  0.87748  1.0000
  Fe  Fe160     1.0  0.62577  0.37356  0.76118  1.0000
  S   S323      1.0  0.64419  0.39028  0.74492  1.0000
  Fe  Fe161     1.0  0.61318  0.34430  0.76495  1.0000
  S   S324      1.0  0.61716  0.32405  0.77027  1.0000
  S   S325      1.0  0.60620  0.37797  0.77545  1.0000
  S   S326      1.0  0.59287  0.34706  0.77798  1.0000
  Fe  Fe162     1.0  0.70793  0.43928  0.13511  1.0000
  S   S327      1.0  0.69799  0.45560  0.13267  1.0000
  S   S328      1.0  0.69956  0.41927  0.12567  1.0000
  Fe  Fe163     1.0  0.73406  0.45680  0.14250  1.0000
  S   S329      1.0  0.72580  0.47435  0.14049  1.0000
  H   H1155     1.0  0.70125  0.26031  0.99039  1.0000
  Fe  Fe164     1.0  0.70742  0.46024  0.17848  1.0000
  S   S330      1.0  0.69535  0.46271  0.23163  1.0000
  Fe  Fe165     1.0  0.71709  0.46808  0.09514  1.0000
  S   S331      1.0  0.72075  0.48056  0.03740  1.0000
  S   S332      1.0  0.71629  0.44290  0.18354  1.0000
  S   S333      1.0  0.72636  0.45149  0.09479  1.0000
  Fe  Fe166     1.0  0.69885  0.45527  0.81104  1.0000
  S   S334      1.0  0.70436  0.43618  0.81155  1.0000
  H   H1156     1.0  0.62147  0.28572  0.64986  1.0000
  Fe  Fe167     1.0  0.69233  0.45025  0.89481  1.0000
  S   S335      1.0  0.69698  0.43089  0.90120  1.0000
  S   S336      1.0  0.68281  0.45379  0.94884  1.0000
  Fe  Fe168     1.0  0.68616  0.42775  0.85731  1.0000
  S   S337      1.0  0.66968  0.40941  0.86976  1.0000
  S   S338      1.0  0.68015  0.44644  0.85436  1.0000
  C   C710      1.0  0.71003  0.47367  0.01237  1.0000
  C   C711      1.0  0.69739  0.46605  0.03068  1.0000
  C   C712      1.0  0.68905  0.46020  0.01078  1.0000
  C   C713      1.0  0.69338  0.46170  0.97256  1.0000
  C   C714      1.0  0.70608  0.46918  0.95419  1.0000
  C   C715      1.0  0.71432  0.47533  0.97400  1.0000
  H   H1157     1.0  0.69393  0.46485  0.06012  1.0000
  H   H1158     1.0  0.67925  0.45442  0.02516  1.0000
  H   H1159     1.0  0.70947  0.47043  0.92466  1.0000
  H   H1160     1.0  0.72409  0.48121  0.95966  1.0000
  H   H1161     1.0  0.71973  0.31898  0.15087  1.0000
  C   C716      1.0  0.61655  0.40854  0.64459  1.0000
  C   C717      1.0  0.65132  0.39527  0.77992  1.0000
  C   C718      1.0  0.66332  0.40483  0.76986  1.0000
  C   C719      1.0  0.66901  0.40936  0.79712  1.0000
  C   C720      1.0  0.66278  0.40422  0.83462  1.0000
  C   C721      1.0  0.65080  0.39464  0.84464  1.0000
  C   C722      1.0  0.64505  0.39022  0.81740  1.0000
  H   H1162     1.0  0.66827  0.40870  0.74090  1.0000
  H   H1163     1.0  0.67833  0.41662  0.78921  1.0000
  H   H1164     1.0  0.64594  0.39059  0.87362  1.0000
  H   H1165     1.0  0.63580  0.38286  0.82547  1.0000
  C   C723      1.0  0.65906  0.40944  0.09970  1.0000
  C   C724      1.0  0.66558  0.39967  0.10708  1.0000
  C   C725      1.0  0.67801  0.40280  0.11495  1.0000
  C   C726      1.0  0.68394  0.41566  0.11576  1.0000
  C   C727      1.0  0.67750  0.42543  0.10760  1.0000
  C   C728      1.0  0.66515  0.42233  0.09953  1.0000
  H   H1166     1.0  0.66100  0.38971  0.10712  1.0000
  H   H1167     1.0  0.68296  0.39519  0.12106  1.0000
  H   H1168     1.0  0.68201  0.43539  0.10751  1.0000
  H   H1169     1.0  0.66024  0.42998  0.09347  1.0000
  C   C729      1.0  0.60483  0.37712  0.95397  1.0000
  C   C730      1.0  0.59975  0.36359  0.96702  1.0000
  C   C731      1.0  0.59526  0.35605  0.94328  1.0000
  C   C732      1.0  0.59633  0.36190  0.90604  1.0000
  C   C733      1.0  0.60197  0.37534  0.89259  1.0000
  C   C734      1.0  0.60599  0.38295  0.91667  1.0000
  H   H1170     1.0  0.59902  0.35895  0.99555  1.0000
  H   H1171     1.0  0.59098  0.34565  0.95377  1.0000
  H   H1172     1.0  0.60282  0.37992  0.86393  1.0000
  H   H1173     1.0  0.60995  0.39340  0.90637  1.0000
  H   H1174     1.0  0.64880  0.42018  0.91867  1.0000
  H   H1175     1.0  0.62730  0.27781  0.11912  1.0000
  H   H1176     1.0  0.51924  0.44466  0.29281  1.0000
  H   H1177     1.0  0.63425  0.29667  0.72640  1.0000
  C   C735      1.0  0.64534  0.29692  0.65670  1.0000
  C   C736      1.0  0.59495  0.28664  0.74392  1.0000
  C   C737      1.0  0.60380  0.28619  0.76653  1.0000
  C   C738      1.0  0.61042  0.29772  0.77437  1.0000
  C   C739      1.0  0.60807  0.30983  0.76049  1.0000
  C   C740      1.0  0.59890  0.31027  0.73883  1.0000
  C   C741      1.0  0.59246  0.29874  0.73037  1.0000
  H   H1178     1.0  0.60565  0.27697  0.77775  1.0000
  H   H1179     1.0  0.61741  0.29724  0.79138  1.0000
  H   H1180     1.0  0.59698  0.31951  0.72792  1.0000
  H   H1181     1.0  0.58561  0.29923  0.71292  1.0000
  H   H1182     1.0  0.63268  0.40757  0.97706  1.0000
  H   H1183     1.0  0.63660  0.42103  0.99831  1.0000
  H   H1184     1.0  0.64520  0.29629  0.62778  1.0000
  H   H1185     1.0  0.54569  0.38046  0.51052  1.0000
  H   H1186     1.0  0.62849  0.27927  0.74303  1.0000
  C   C742      1.0  0.65507  0.42450  0.93580  1.0000
  C   C743      1.0  0.63946  0.41215  0.99256  1.0000
  H   H1187     1.0  0.69698  0.31222  0.14264  1.0000
  H   H1188     1.0  0.68756  0.26937  0.90929  1.0000
  C   C744      1.0  0.60064  0.29817  0.09764  1.0000
  C   C745      1.0  0.61409  0.30136  0.08166  1.0000
  C   C746      1.0  0.62198  0.31394  0.07873  1.0000
  C   C747      1.0  0.61648  0.32357  0.09084  1.0000
  C   C748      1.0  0.60295  0.32052  0.10567  1.0000
  C   C749      1.0  0.59510  0.30786  0.10925  1.0000
  H   H1189     1.0  0.61844  0.29410  0.07194  1.0000
  H   H1190     1.0  0.63241  0.31625  0.06689  1.0000
  H   H1191     1.0  0.59858  0.32779  0.11530  1.0000
  H   H1192     1.0  0.58470  0.30550  0.12162  1.0000
  H   H1193     1.0  0.68306  0.26252  0.11713  1.0000
  H   H1194     1.0  0.64576  0.28680  0.72720  1.0000
  C   C750      1.0  0.61647  0.47677  0.48457  1.0000
  H   H1195     1.0  0.55207  0.37244  0.58589  1.0000
  S   S339      1.0  0.70744  0.26212  0.74728  1.0000
  C   C751      1.0  0.56581  0.40003  0.66936  1.0000
  C   C752      1.0  0.57564  0.40013  0.63921  1.0000
  C   C753      1.0  0.58419  0.39204  0.64383  1.0000
  C   C754      1.0  0.58333  0.38418  0.67886  1.0000
  C   C755      1.0  0.57386  0.38450  0.70929  1.0000
  C   C756      1.0  0.56502  0.39225  0.70440  1.0000
  H   H1196     1.0  0.57648  0.40623  0.61226  1.0000
  H   H1197     1.0  0.59151  0.39184  0.62017  1.0000
  H   H1198     1.0  0.57308  0.37847  0.73635  1.0000
  H   H1199     1.0  0.55743  0.39211  0.72787  1.0000
  C   C757      1.0  0.59617  0.46434  0.59149  1.0000
  C   C758      1.0  0.59170  0.45271  0.61929  1.0000
  C   C759      1.0  0.59914  0.44991  0.64506  1.0000
  C   C760      1.0  0.61110  0.45867  0.64252  1.0000
  C   C761      1.0  0.61597  0.46972  0.61298  1.0000
  C   C762      1.0  0.60843  0.47268  0.58786  1.0000
  H   H1200     1.0  0.58226  0.44617  0.62211  1.0000
  H   H1201     1.0  0.59525  0.44141  0.66808  1.0000
  H   H1202     1.0  0.60065  0.39699  0.71315  1.0000
  H   H1203     1.0  0.61197  0.48172  0.56656  1.0000
  N   N71       1.0  0.59228  0.31315  0.88166  1.0000
  H   H1204     1.0  0.60942  0.41280  0.63177  1.0000
  C   C763      1.0  0.74810  0.30699  0.81618  1.0000
  C   C764      1.0  0.68627  0.47456  0.23188  1.0000
  C   C765      1.0  0.67474  0.47191  0.25969  1.0000
  H   H1205     1.0  0.74120  0.26324  0.68992  1.0000
  C   C766      1.0  0.62223  0.28626  0.67844  1.0000
  Fe  Fe169     1.0  0.62307  0.48662  0.34733  1.0000
  H   H1206     1.0  0.67102  0.46230  0.27832  1.0000
  C   C767      1.0  0.56372  0.40453  0.17450  1.0000
  C   C768      1.0  0.57222  0.40470  0.14119  1.0000
  C   C769      1.0  0.57950  0.39530  0.13975  1.0000
  C   C770      1.0  0.57793  0.38538  0.17131  1.0000
  C   C771      1.0  0.56965  0.38541  0.20468  1.0000
  C   C772      1.0  0.56266  0.39500  0.20637  1.0000
  H   H1207     1.0  0.57293  0.41195  0.11634  1.0000
  H   H1208     1.0  0.58593  0.39543  0.11401  1.0000
  H   H1209     1.0  0.56834  0.37776  0.22918  1.0000
  H   H1210     1.0  0.55594  0.39462  0.23197  1.0000
  C   C773      1.0  0.54670  0.43900  0.37206  1.0000
  C   C774      1.0  0.55644  0.43226  0.37322  1.0000
  C   C775      1.0  0.56007  0.42848  0.40674  1.0000
  C   C776      1.0  0.55421  0.43163  0.43921  1.0000
  C   C777      1.0  0.54478  0.43874  0.43774  1.0000
  C   C778      1.0  0.54097  0.44230  0.40440  1.0000
  H   H1211     1.0  0.56095  0.42966  0.34856  1.0000
  H   H1212     1.0  0.56739  0.42300  0.40753  1.0000
  H   H1213     1.0  0.54014  0.44117  0.46254  1.0000
  H   H1214     1.0  0.53340  0.44748  0.40382  1.0000
  C   C779      1.0  0.60226  0.45703  0.25547  1.0000
  C   C780      1.0  0.61440  0.46435  0.25745  1.0000
  C   C781      1.0  0.61607  0.46734  0.29098  1.0000
  C   C782      1.0  0.60566  0.46278  0.32252  1.0000
  C   C783      1.0  0.59380  0.45482  0.32103  1.0000
  C   C784      1.0  0.59202  0.45214  0.28735  1.0000
  C   C785      1.0  0.50912  0.47254  0.29160  1.0000
  C   C786      1.0  0.64757  0.49430  0.50801  1.0000
  H   H1215     1.0  0.58576  0.45120  0.34548  1.0000
  H   H1216     1.0  0.58265  0.44642  0.28612  1.0000
  Fe  Fe170     1.0  0.71487  0.44126  0.85533  1.0000
  N   N72       1.0  0.71091  0.42920  0.00407  1.0000
  H   H1217     1.0  0.62696  0.40791  0.72407  1.0000
  C   C787      1.0  0.53474  0.47639  0.15643  1.0000
  C   C788      1.0  0.53044  0.48775  0.14720  1.0000
  C   C789      1.0  0.51841  0.48709  0.13720  1.0000
  H   H1218     1.0  0.53225  0.47949  0.24153  1.0000
  H   H1219     1.0  0.72923  0.25209  0.72820  1.0000
  H   H1220     1.0  0.50213  0.45727  0.66561  1.0000
  H   H1221     1.0  0.68141  0.28374  0.97204  1.0000
  C   C790      1.0  0.52378  0.48526  0.66661  1.0000
  H   H1222     1.0  0.58662  0.29666  0.92866  1.0000
  C   C791      1.0  0.59724  0.41660  0.21178  1.0000
  C   C792      1.0  0.52224  0.46358  0.63432  1.0000
  C   C793      1.0  0.53406  0.47319  0.62632  1.0000
  C   C794      1.0  0.53481  0.48400  0.64238  1.0000
  S   S340      1.0  0.71080  0.46107  0.85133  1.0000
  C   C795      1.0  0.67672  0.27597  0.07909  1.0000
  N   N73       1.0  0.65326  0.41531  0.97176  1.0000
  C   C796      1.0  0.65663  0.40319  0.96541  1.0000
  C   C797      1.0  0.66193  0.42143  0.99309  1.0000
  H   H1223     1.0  0.66698  0.40522  0.94965  1.0000
  H   H1224     1.0  0.65035  0.39837  0.94904  1.0000
  H   H1225     1.0  0.65535  0.39602  0.99199  1.0000
  H   H1226     1.0  0.63775  0.40516  0.01969  1.0000
  H   H1227     1.0  0.66539  0.42697  0.91959  1.0000
  H   H1228     1.0  0.67232  0.42457  0.97712  1.0000
  H   H1229     1.0  0.66135  0.41458  0.01961  1.0000
  H   H1230     1.0  0.53079  0.39545  0.58297  1.0000
  H   H1231     1.0  0.57471  0.39695  0.05961  1.0000
  H   H1232     1.0  0.73957  0.26437  0.91613  1.0000
  H   H1233     1.0  0.60155  0.43815  0.15762  1.0000
  H   H1234     1.0  0.61206  0.26051  0.89913  1.0000
  H   H1235     1.0  0.63217  0.25823  0.76691  1.0000
  H   H1236     1.0  0.74861  0.35343  0.87679  1.0000
  S   S341      1.0  0.61296  0.25327  0.97471  1.0000
  H   H1237     1.0  0.67914  0.49818  0.39263  1.0000
  H   H1238     1.0  0.55561  0.39698  0.49845  1.0000
  H   H1239     1.0  0.68817  0.26244  0.02396  1.0000
  H   H1240     1.0  0.60923  0.47854  0.50685  1.0000
  H   H1241     1.0  0.66741  0.28750  0.04477  1.0000
  H   H1242     1.0  0.56135  0.36113  0.10172  1.0000
  Fe  Fe171     1.0  0.72952  0.26420  0.04655  1.0000
  H   H1243     1.0  0.64229  0.28354  0.13215  1.0000
  H   H1244     1.0  0.70074  0.26408  0.92447  1.0000
  H   H1245     1.0  0.60524  0.28097  0.20261  1.0000
  H   H1246     1.0  0.51508  0.49585  0.13068  1.0000
  H   H1247     1.0  0.67271  0.49691  0.31872  1.0000
  N   N74       1.0  0.51609  0.46371  0.27561  1.0000
  H   H1248     1.0  0.61973  0.48584  0.46193  1.0000
  C   C798      1.0  0.72328  0.31640  0.12436  1.0000
  C   C799      1.0  0.70123  0.30978  0.11649  1.0000
  C   C800      1.0  0.52699  0.46438  0.15524  1.0000
  N   N75       1.0  0.62478  0.28210  0.17276  1.0000
  C   C801      1.0  0.63132  0.29172  0.19086  1.0000
  C   C802      1.0  0.62438  0.26874  0.19241  1.0000
  C   C803      1.0  0.63217  0.28469  0.13389  1.0000
  H   H1249     1.0  0.73194  0.29110  0.81621  1.0000
  C   C804      1.0  0.67362  0.48778  0.71837  1.0000
  C   C805      1.0  0.67483  0.26476  0.10706  1.0000
  C   C806      1.0  0.68566  0.47859  0.33461  1.0000
  S   S342      1.0  0.73954  0.26050  0.99339  1.0000
  C   C807      1.0  0.56666  0.47335  0.65291  1.0000
  H   H1250     1.0  0.70791  0.43728  0.05183  1.0000
  H   H1251     1.0  0.53579  0.46391  0.25026  1.0000
  H   H1252     1.0  0.74233  0.31032  0.83729  1.0000
  H   H1253     1.0  0.70749  0.49815  0.31835  1.0000
  H   H1254     1.0  0.63299  0.29480  0.11839  1.0000
  H   H1255     1.0  0.72412  0.33861  0.07674  1.0000
  S   S343      1.0  0.73826  0.26493  0.09582  1.0000
  N   N76       1.0  0.65469  0.44255  0.76263  1.0000
  C   C808      1.0  0.66683  0.44274  0.73632  1.0000
  C   C809      1.0  0.64463  0.43030  0.76693  1.0000
  C   C810      1.0  0.64978  0.45386  0.74846  1.0000
  C   C811      1.0  0.65755  0.44330  0.79893  1.0000
  H   H1256     1.0  0.66516  0.44224  0.70849  1.0000
  H   H1257     1.0  0.67085  0.43439  0.74628  1.0000
  H   H1258     1.0  0.67466  0.45183  0.73272  1.0000
  H   H1259     1.0  0.64265  0.42912  0.73983  1.0000
  H   H1260     1.0  0.64778  0.42160  0.77910  1.0000
  H   H1261     1.0  0.63523  0.43004  0.78574  1.0000
  H   H1262     1.0  0.64059  0.45403  0.76750  1.0000
  H   H1263     1.0  0.64770  0.45377  0.72078  1.0000
  H   H1264     1.0  0.65705  0.46324  0.74553  1.0000
  H   H1265     1.0  0.64869  0.44331  0.81955  1.0000
  H   H1266     1.0  0.66521  0.45238  0.79650  1.0000
  H   H1267     1.0  0.66125  0.43487  0.81045  1.0000
  H   H1268     1.0  0.51274  0.47508  0.31565  1.0000
  H   H1269     1.0  0.59978  0.41037  0.23488  1.0000
  H   H1270     1.0  0.51777  0.45341  0.32836  1.0000
  Fe  Fe172     1.0  0.61947  0.25062  0.10207  1.0000
  H   H1271     1.0  0.67702  0.25189  0.75033  1.0000
  Fe  Fe173     1.0  0.72128  0.26557  0.78448  1.0000
  C   C812      1.0  0.51126  0.46474  0.65904  1.0000
  H   H1272     1.0  0.59933  0.30158  0.84593  1.0000
  C   C813      1.0  0.60349  0.32466  0.86432  1.0000
  H   H1273     1.0  0.61660  0.45547  0.42900  1.0000
  Fe  Fe174     1.0  0.62562  0.47821  0.68165  1.0000
  H   H1274     1.0  0.62234  0.46812  0.23281  1.0000
  H   H1275     1.0  0.58868  0.47056  0.67475  1.0000
  H   H1276     1.0  0.63660  0.40916  0.67860  1.0000
  C   C814      1.0  0.67967  0.47904  0.78614  1.0000
  C   C815      1.0  0.63805  0.27342  0.67882  1.0000
  H   H1277     1.0  0.63055  0.26495  0.69848  1.0000
  C   C816      1.0  0.61964  0.42953  0.18815  1.0000
  H   H1278     1.0  0.58850  0.41063  0.20553  1.0000
  C   C817      1.0  0.71377  0.41733  0.02380  1.0000
  C   C818      1.0  0.63602  0.28723  0.72178  1.0000
  H   H1279     1.0  0.54387  0.49156  0.63531  1.0000
  N   N77       1.0  0.63542  0.28596  0.68391  1.0000
  H   H1280     1.0  0.71681  0.42557  0.95008  1.0000
  C   C819      1.0  0.60439  0.42962  0.14890  1.0000
  H   H1281     1.0  0.58826  0.48162  0.70464  1.0000
  H   H1282     1.0  0.59424  0.42482  0.22206  1.0000
  H   H1283     1.0  0.70118  0.29927  0.12330  1.0000
  H   H1284     1.0  0.68793  0.47833  0.69550  1.0000
  H   H1285     1.0  0.69405  0.41847  0.99004  1.0000
  H   H1286     1.0  0.61459  0.27782  0.69770  1.0000
  H   H1287     1.0  0.62532  0.47339  0.29214  1.0000
  H   H1288     1.0  0.60434  0.41092  0.73204  1.0000
  N   N78       1.0  0.60834  0.42151  0.17872  1.0000
  C   C820      1.0  0.70088  0.49639  0.34630  1.0000
  H   H1289     1.0  0.50374  0.46769  0.03246  1.0000
  H   H1290     1.0  0.59580  0.42391  0.14138  1.0000
  H   H1291     1.0  0.61250  0.43349  0.12345  1.0000
  H   H1292     1.0  0.63178  0.30190  0.17648  1.0000
  S   S344      1.0  0.70855  0.25597  0.07868  1.0000
  H   H1293     1.0  0.50561  0.46559  0.96689  1.0000
  S   S345      1.0  0.69751  0.46661  0.75572  1.0000
  C   C821      1.0  0.67617  0.27341  0.97456  1.0000
  H   H1294     1.0  0.60094  0.47585  0.43698  1.0000
  H   H1295     1.0  0.57159  0.30921  0.90530  1.0000
  H   H1296     1.0  0.60511  0.33120  0.88343  1.0000
  C   C822      1.0  0.50171  0.48547  0.58288  1.0000
  H   H1297     1.0  0.57990  0.49802  0.61917  1.0000
  H   H1298     1.0  0.53925  0.37747  0.61254  1.0000
  H   H1299     1.0  0.56579  0.39507  0.56951  1.0000
  C   C823      1.0  0.62648  0.40587  0.69658  1.0000
  C   C824      1.0  0.60422  0.40782  0.70569  1.0000
  H   H1300     1.0  0.59684  0.41178  0.69331  1.0000
  H   H1301     1.0  0.70789  0.41404  0.05307  1.0000
  N   N79       1.0  0.61734  0.41220  0.67994  1.0000
  C   C825      1.0  0.54342  0.37645  0.58425  1.0000
  C   C826      1.0  0.55687  0.39858  0.56766  1.0000
  H   H1302     1.0  0.56176  0.38393  0.51950  1.0000
  H   H1303     1.0  0.72011  0.30420  0.07015  1.0000
  C   C827      1.0  0.62211  0.42654  0.67287  1.0000
  C   C828      1.0  0.61208  0.41035  0.16609  1.0000
  Fe  Fe175     1.0  0.64317  0.49824  0.70803  1.0000
  N   N80       1.0  0.54710  0.38915  0.55677  1.0000
  C   C829      1.0  0.55278  0.38752  0.51972  1.0000
  H   H1304     1.0  0.63206  0.43025  0.65396  1.0000
  H   H1305     1.0  0.62257  0.42974  0.69896  1.0000
  H   H1306     1.0  0.61550  0.43156  0.65979  1.0000
  S   S346      1.0  0.62343  0.48441  0.73497  1.0000
  H   H1307     1.0  0.62534  0.47639  0.61050  1.0000
  C   C830      1.0  0.71971  0.31457  0.06433  1.0000
  H   H1308     1.0  0.60379  0.40404  0.15889  1.0000
  H   H1309     1.0  0.61944  0.26129  0.17942  1.0000
  H   H1310     1.0  0.67532  0.47426  0.33438  1.0000
  H   H1311     1.0  0.61896  0.26641  0.22193  1.0000
  Fe  Fe176     1.0  0.59783  0.26452  0.09395  1.0000
  S   S347      1.0  0.69250  0.28630  0.05929  1.0000
  H   H1312     1.0  0.61120  0.29336  0.16014  1.0000
  H   H1313     1.0  0.61513  0.40402  0.18792  1.0000
  H   H1314     1.0  0.62044  0.41368  0.14111  1.0000
  H   H1315     1.0  0.70421  0.48950  0.36597  1.0000
  C   C831      1.0  0.68298  0.48050  0.72035  1.0000
  C   C832      1.0  0.71412  0.43979  0.02306  1.0000
  H   H1316     1.0  0.53784  0.40375  0.53516  1.0000
  H   H1317     1.0  0.62820  0.43339  0.16384  1.0000
  H   H1318     1.0  0.62976  0.46291  0.44784  1.0000
  H   H1319     1.0  0.69058  0.42337  0.03298  1.0000
  S   S348      1.0  0.64362  0.48614  0.34853  1.0000
  H   H1320     1.0  0.58203  0.29625  0.86664  1.0000
  H   H1321     1.0  0.69175  0.47990  0.30617  1.0000
  H   H1322     1.0  0.68870  0.47125  0.35368  1.0000
  H   H1323     1.0  0.66585  0.48905  0.80868  1.0000
  H   H1324     1.0  0.57320  0.49580  0.70337  1.0000
  C   C833      1.0  0.69096  0.48696  0.20763  1.0000
  H   H1325     1.0  0.72396  0.30610  0.13121  1.0000
  H   H1326     1.0  0.51245  0.46963  0.22181  1.0000
  H   H1327     1.0  0.74483  0.37477  0.79233  1.0000
  S   S349      1.0  0.72811  0.28478  0.03826  1.0000
  H   H1328     1.0  0.57575  0.37323  0.00041  1.0000
  C   C834      1.0  0.60752  0.45333  0.50176  1.0000
  H   H1329     1.0  0.60017  0.45392  0.52590  1.0000
  H   H1330     1.0  0.62283  0.42376  0.21077  1.0000
  H   H1331     1.0  0.62514  0.47560  0.49561  1.0000
  H   H1332     1.0  0.57984  0.39507  0.01315  1.0000
  H   H1333     1.0  0.54913  0.36851  0.05499  1.0000
  H   H1334     1.0  0.50343  0.44625  0.31408  1.0000
  C   C835      1.0  0.66811  0.48165  0.26393  1.0000
  C   C836      1.0  0.57834  0.39039  0.04303  1.0000
  H   H1335     1.0  0.55698  0.38271  0.01766  1.0000
  C   C837      1.0  0.53535  0.39410  0.55546  1.0000
  H   H1336     1.0  0.61631  0.45186  0.51174  1.0000
  H   H1337     1.0  0.65926  0.47946  0.28550  1.0000
  C   C838      1.0  0.55626  0.37828  0.04728  1.0000
  H   H1338     1.0  0.58818  0.38991  0.04747  1.0000
  C   C839      1.0  0.67308  0.49421  0.24072  1.0000
  C   C840      1.0  0.56778  0.37127  0.09308  1.0000
  C   C841      1.0  0.57441  0.36897  0.03053  1.0000
  H   H1339     1.0  0.69988  0.48911  0.18622  1.0000
  H   H1340     1.0  0.56348  0.37701  0.11139  1.0000
  N   N81       1.0  0.56919  0.37722  0.05350  1.0000
  H   H1341     1.0  0.55207  0.38449  0.06416  1.0000
  H   H1342     1.0  0.56786  0.35892  0.03755  1.0000
  H   H1343     1.0  0.50770  0.48174  0.60128  1.0000
  H   H1344     1.0  0.58418  0.36807  0.03447  1.0000
  H   H1345     1.0  0.57741  0.37075  0.09915  1.0000
  C   C842      1.0  0.62052  0.46399  0.43996  1.0000
  C   C843      1.0  0.59883  0.46689  0.45958  1.0000
  H   H1346     1.0  0.62315  0.47279  0.41668  1.0000
  H   H1347     1.0  0.59124  0.46771  0.48290  1.0000
  N   N82       1.0  0.71459  0.31820  0.09888  1.0000
  C   C844      1.0  0.59490  0.30543  0.91482  1.0000
  C   C845      1.0  0.68601  0.47607  0.75422  1.0000
  N   N83       1.0  0.61083  0.46525  0.47149  1.0000
  N   N84       1.0  0.68706  0.49110  0.34595  1.0000
  H   H1348     1.0  0.72955  0.43570  0.96411  1.0000
  C   C846      1.0  0.51053  0.47502  0.13674  1.0000
  C   C847      1.0  0.68441  0.49677  0.21219  1.0000
  S   S350      1.0  0.71506  0.27852  0.12623  1.0000
  C   C848      1.0  0.66222  0.25648  0.12252  1.0000
  H   H1349     1.0  0.72340  0.25475  0.88350  1.0000
  H   H1350     1.0  0.53027  0.45559  0.16199  1.0000
  C   C849      1.0  0.65341  0.27030  0.08108  1.0000
  C   C850      1.0  0.73080  0.25693  0.93174  1.0000
  H   H1351     1.0  0.69937  0.28034  0.92453  1.0000
  H   H1352     1.0  0.71682  0.44222  0.94967  1.0000
  C   C851      1.0  0.71886  0.43333  0.96539  1.0000
  H   H1353     1.0  0.60326  0.44448  0.49266  1.0000
  H   H1354     1.0  0.52779  0.38729  0.54702  1.0000
  H   H1355     1.0  0.58863  0.31064  0.82918  1.0000
  H   H1356     1.0  0.69958  0.27638  0.99149  1.0000
  H   H1357     1.0  0.59710  0.49231  0.34257  1.0000
  H   H1358     1.0  0.73340  0.34630  0.83803  1.0000
  H   H1359     1.0  0.56003  0.40818  0.54719  1.0000
  C   C852      1.0  0.66742  0.49091  0.75020  1.0000
  C   C853      1.0  0.66598  0.27882  0.06640  1.0000
  H   H1360     1.0  0.71249  0.44898  0.00819  1.0000
  C   C854      1.0  0.66382  0.26239  0.77335  1.0000
  C   C855      1.0  0.58033  0.31760  0.89252  1.0000
  H   H1361     1.0  0.68203  0.47578  0.81230  1.0000
  H   H1362     1.0  0.61272  0.32178  0.85541  1.0000
  H   H1363     1.0  0.58099  0.47338  0.33769  1.0000
  H   H1364     1.0  0.71145  0.40911  0.01028  1.0000
  H   H1365     1.0  0.60176  0.33057  0.83918  1.0000
  Fe  Fe177     1.0  0.70808  0.27684  0.07502  1.0000
  C   C856      1.0  0.59044  0.30502  0.85478  1.0000
  H   H1366     1.0  0.57828  0.32372  0.86816  1.0000
  H   H1367     1.0  0.55285  0.40027  0.59519  1.0000
  S   S351      1.0  0.70580  0.26714  0.83128  1.0000
  H   H1368     1.0  0.56783  0.48096  0.34640  1.0000
  C   C857      1.0  0.72167  0.25147  0.91326  1.0000
  H   H1369     1.0  0.57094  0.47498  0.30526  1.0000
  C   C858      1.0  0.69397  0.26613  0.99470  1.0000
  H   H1370     1.0  0.53631  0.49704  0.14849  1.0000
  H   H1371     1.0  0.50884  0.45433  0.14535  1.0000
  C   C859      1.0  0.67052  0.48657  0.78402  1.0000
  H   H1372     1.0  0.72454  0.44190  0.02471  1.0000
  H   H1373     1.0  0.64154  0.29112  0.19057  1.0000
  C   C860      1.0  0.61128  0.28328  0.17376  1.0000
  Fe  Fe178     1.0  0.69178  0.26171  0.79628  1.0000
  S   S352      1.0  0.61748  0.26649  0.05757  1.0000
  S   S353      1.0  0.61560  0.49266  0.65676  1.0000
  C   C861      1.0  0.74217  0.29606  0.80431  1.0000
  C   C862      1.0  0.66727  0.25336  0.75380  1.0000
  H   H1374     1.0  0.61717  0.43808  0.19766  1.0000
  H   H1375     1.0  0.63442  0.26741  0.19151  1.0000
  H   H1376     1.0  0.57511  0.46716  0.71411  1.0000
  H   H1377     1.0  0.60388  0.30197  0.90752  1.0000
  H   H1378     1.0  0.66991  0.27338  0.95429  1.0000
  Fe  Fe179     1.0  0.71696  0.25794  0.12805  1.0000
  H   H1379     1.0  0.59639  0.31134  0.93554  1.0000
  S   S354      1.0  0.67494  0.27083  0.79434  1.0000
  H   H1380     1.0  0.64520  0.27242  0.07077  1.0000
  H   H1381     1.0  0.69437  0.43521  0.98974  1.0000
  H   H1382     1.0  0.71338  0.31564  0.04445  1.0000
  H   H1383     1.0  0.72428  0.41913  0.02462  1.0000
  H   H1384     1.0  0.51054  0.48185  0.27076  1.0000
  C   C863      1.0  0.65151  0.25919  0.10949  1.0000
  S   S355      1.0  0.73330  0.43551  0.86628  1.0000
  H   H1385     1.0  0.73348  0.32253  0.11175  1.0000
  C   C864      1.0  0.65119  0.26426  0.77757  1.0000
  H   H1386     1.0  0.67144  0.49125  0.69208  1.0000
  H   H1387     1.0  0.64849  0.27118  0.79293  1.0000
  H   H1388     1.0  0.60617  0.27654  0.15908  1.0000
  C   C865      1.0  0.67804  0.25155  0.97428  1.0000
  H   H1389     1.0  0.73873  0.35147  0.78832  1.0000
  Fe  Fe180     1.0  0.59115  0.25237  0.74690  1.0000
  C   C866      1.0  0.71418  0.33203  0.09016  1.0000
  H   H1390     1.0  0.51607  0.45399  0.23108  1.0000
  S   S356      1.0  0.64603  0.49076  0.65618  1.0000
  H   H1391     1.0  0.71037  0.33511  0.11565  1.0000
  N   N85       1.0  0.57514  0.48246  0.66837  1.0000
  H   H1392     1.0  0.50361  0.47621  0.69474  1.0000
  H   H1393     1.0  0.74482  0.47154  0.02761  1.0000
  C   C867      1.0  0.56704  0.48885  0.69130  1.0000
  S   S357      1.0  0.64985  0.49478  0.43432  1.0000
  H   H1394     1.0  0.74627  0.25094  0.76332  1.0000
  C   C868      1.0  0.51100  0.46063  0.24383  1.0000
  H   H1395     1.0  0.62597  0.29010  0.22022  1.0000
  C   C869      1.0  0.64194  0.25692  0.76296  1.0000
  H   H1396     1.0  0.65081  0.48542  0.50968  1.0000
  C   C870      1.0  0.53026  0.47021  0.26297  1.0000
  H   H1397     1.0  0.53452  0.47243  0.28633  1.0000
  H   H1398     1.0  0.74319  0.46375  0.83529  1.0000
  S   S358      1.0  0.74228  0.27810  0.76040  1.0000
  H   H1399     1.0  0.68136  0.48198  0.40438  1.0000
  H   H1400     1.0  0.59123  0.48803  0.62017  1.0000
  H   H1401     1.0  0.73945  0.36962  0.84198  1.0000
  H   H1402     1.0  0.55889  0.46591  0.67506  1.0000
  C   C871      1.0  0.58209  0.47512  0.69149  1.0000
  C   C872      1.0  0.72844  0.25303  0.97040  1.0000
  H   H1403     1.0  0.60074  0.48493  0.28492  1.0000
  H   H1404     1.0  0.72986  0.32055  0.05037  1.0000
  H   H1405     1.0  0.55966  0.48155  0.71471  1.0000
  H   H1406     1.0  0.56161  0.49442  0.67472  1.0000
  H   H1407     1.0  0.70772  0.33373  0.07092  1.0000
  C   C873      1.0  0.74205  0.34879  0.81417  1.0000
  H   H1408     1.0  0.69449  0.31074  0.09769  1.0000
  C   C874      1.0  0.51399  0.45149  0.30397  1.0000
  C   C875      1.0  0.69362  0.27001  0.93000  1.0000
  N   N86       1.0  0.68546  0.26528  0.96836  1.0000
  C   C876      1.0  0.60551  0.25087  0.91092  1.0000
  C   C877      1.0  0.74945  0.29165  0.77687  1.0000
  C   C878      1.0  0.74795  0.37137  0.81809  1.0000
  C   C879      1.0  0.73657  0.25266  0.70272  1.0000
  H   H1409     1.0  0.50868  0.49144  0.55656  1.0000
  H   H1410     1.0  0.64649  0.49410  0.56577  1.0000
  H   H1411     1.0  0.74393  0.48832  0.06374  1.0000
  C   C880      1.0  0.74865  0.44673  0.86043  1.0000
  C   C881      1.0  0.58479  0.49251  0.63771  1.0000
  S   S359      1.0  0.52499  0.49924  0.68499  1.0000
  C   C882      1.0  0.67859  0.48891  0.38339  1.0000
  H   H1412     1.0  0.66811  0.48477  0.38414  1.0000
  H   H1413     1.0  0.59121  0.49972  0.64834  1.0000
  C   C883      1.0  0.59464  0.49110  0.27388  1.0000
  N   N87       1.0  0.58474  0.49285  0.30410  1.0000
  H   H1414     1.0  0.58999  0.48620  0.25449  1.0000
  H   H1415     1.0  0.67173  0.25048  0.95433  1.0000
  S   S360      1.0  0.74929  0.30581  0.07674  1.0000
  C   C884      1.0  0.64510  0.49918  0.53988  1.0000
  H   H1416     1.0  0.57226  0.49753  0.26821  1.0000
  C   C885      1.0  0.59136  0.49868  0.33017  1.0000
  H   H1417     1.0  0.50033  0.45573  0.25219  1.0000
  H   H1418     1.0  0.52824  0.54957  0.97619  1.0000
  H   H1419     1.0  0.54247  0.51433  0.80544  1.0000
  C   C886      1.0  0.63974  0.51748  0.50387  1.0000
  C   C887      1.0  0.50216  0.50398  0.61022  1.0000
  S   S361      1.0  0.51381  0.65498  0.32103  1.0000
  C   C888      1.0  0.53734  0.51804  0.78440  1.0000
  H   H1420     1.0  0.63412  0.53321  0.73736  1.0000
  C   C889      1.0  0.51657  0.58581  0.23541  1.0000
  Fe  Fe181     1.0  0.51356  0.63601  0.30412  1.0000
  S   S362      1.0  0.52622  0.63428  0.25118  1.0000
  S   S363      1.0  0.50508  0.66409  0.75147  1.0000
  H   H1421     1.0  0.58419  0.50014  0.35337  1.0000
  Fe  Fe182     1.0  0.51798  0.62883  0.69153  1.0000
  S   S364      1.0  0.52257  0.65054  0.66529  1.0000
  S   S365      1.0  0.53051  0.61432  0.69707  1.0000
  H   H1422     1.0  0.63609  0.55383  0.21026  1.0000
  H   H1423     1.0  0.64920  0.51520  0.80380  1.0000
  H   H1424     1.0  0.55355  0.64906  0.38497  1.0000
  C   C890      1.0  0.52100  0.54297  0.96614  1.0000
  H   H1425     1.0  0.50171  0.69997  0.23046  1.0000
  N   N88       1.0  0.54658  0.52784  0.75237  1.0000
  S   S366      1.0  0.52385  0.64560  0.41923  1.0000
  S   S367      1.0  0.66595  0.50709  0.24864  1.0000
  C   C891      1.0  0.50729  0.66132  0.22984  1.0000
  H   H1426     1.0  0.50855  0.50341  0.89142  1.0000
  Fe  Fe183     1.0  0.57274  0.56329  0.89772  1.0000
  S   S368      1.0  0.58490  0.57815  0.84604  1.0000
  S   S369      1.0  0.57918  0.55960  0.95147  1.0000
  Fe  Fe184     1.0  0.55262  0.55274  0.85768  1.0000
  S   S370      1.0  0.56322  0.56633  0.80263  1.0000
  S   S371      1.0  0.53326  0.53845  0.86739  1.0000
  Fe  Fe185     1.0  0.58120  0.56166  0.81748  1.0000
  S   S372      1.0  0.59740  0.55871  0.77470  1.0000
  Fe  Fe186     1.0  0.56568  0.58142  0.83587  1.0000
  S   S373      1.0  0.56091  0.60109  0.82304  1.0000
  S   S374      1.0  0.57030  0.54663  0.86973  1.0000
  S   S375      1.0  0.55397  0.56795  0.89033  1.0000
  Fe  Fe187     1.0  0.57967  0.56275  0.19097  1.0000
  S   S376      1.0  0.56637  0.55785  0.15356  1.0000
  S   S377      1.0  0.59484  0.55090  0.19034  1.0000
  Fe  Fe188     1.0  0.56490  0.58197  0.21717  1.0000
  S   S378      1.0  0.55080  0.57865  0.18161  1.0000
  S   S379      1.0  0.56053  0.59323  0.26079  1.0000
  Fe  Fe189     1.0  0.55024  0.55761  0.20054  1.0000
  S   S380      1.0  0.53136  0.54219  0.21609  1.0000
  Fe  Fe190     1.0  0.56814  0.57929  0.13711  1.0000
  S   S381      1.0  0.56740  0.58891  0.07917  1.0000
  S   S382      1.0  0.56310  0.56059  0.23957  1.0000
  S   S383      1.0  0.58276  0.58461  0.17102  1.0000
  H   H1427     1.0  0.68412  0.51014  0.32682  1.0000
  C   C892      1.0  0.58887  0.60076  0.91883  1.0000
  Fe  Fe191     1.0  0.62891  0.51596  0.33184  1.0000
  H   H1428     1.0  0.53173  0.53723  0.73910  1.0000
  S   S384      1.0  0.61979  0.53306  0.32434  1.0000
  H   H1429     1.0  0.55890  0.53544  0.78610  1.0000
  H   H1430     1.0  0.55907  0.62789  0.30092  1.0000
  H   H1431     1.0  0.56970  0.50317  0.31014  1.0000
  H   H1432     1.0  0.53404  0.52477  0.71503  1.0000
  H   H1433     1.0  0.55613  0.53900  0.01689  1.0000
  C   C893      1.0  0.55351  0.53882  0.76538  1.0000
  S   S385      1.0  0.62151  0.50022  0.38461  1.0000
  S   S386      1.0  0.65010  0.51804  0.33356  1.0000
  H   H1434     1.0  0.53252  0.64025  0.48667  1.0000
  S   S387      1.0  0.63490  0.51460  0.68413  1.0000
  N   N89       1.0  0.51172  0.54975  0.95188  1.0000
  Fe  Fe192     1.0  0.50613  0.65054  0.71252  1.0000
  H   H1435     1.0  0.54651  0.54372  0.77892  1.0000
  C   C894      1.0  0.55620  0.52173  0.73391  1.0000
  H   H1436     1.0  0.55798  0.51051  0.08776  1.0000
  C   C895      1.0  0.50748  0.53743  0.80374  1.0000
  S   S388      1.0  0.63952  0.51807  0.57620  1.0000
  H   H1437     1.0  0.58564  0.59812  0.94963  1.0000
  C   C896      1.0  0.64252  0.52070  0.81616  1.0000
  H   H1438     1.0  0.53203  0.50953  0.77572  1.0000
  H   H1439     1.0  0.50565  0.52171  0.13992  1.0000
  H   H1440     1.0  0.54926  0.53928  0.11634  1.0000
  H   H1441     1.0  0.64734  0.52571  0.74199  1.0000
  H   H1442     1.0  0.57078  0.53678  0.02988  1.0000
  C   C897      1.0  0.56386  0.63435  0.31691  1.0000
  S   S389      1.0  0.50336  0.62354  0.65779  1.0000
  C   C898      1.0  0.64187  0.51242  0.47221  1.0000
  H   H1443     1.0  0.56705  0.64165  0.37960  1.0000
  C   C899      1.0  0.64141  0.51093  0.53776  1.0000
  H   H1444     1.0  0.56213  0.60958  0.89753  1.0000
  H   H1445     1.0  0.63140  0.50483  0.77834  1.0000
  H   H1446     1.0  0.54058  0.63822  0.30879  1.0000
  H   H1447     1.0  0.55058  0.54839  0.07024  1.0000
  H   H1448     1.0  0.63724  0.51473  0.84448  1.0000
  H   H1449     1.0  0.50992  0.58996  0.22013  1.0000
  C   C900      1.0  0.60056  0.54527  0.22956  1.0000
  C   C901      1.0  0.59971  0.55116  0.25946  1.0000
  C   C902      1.0  0.60540  0.54711  0.28876  1.0000
  C   C903      1.0  0.61172  0.53698  0.28876  1.0000
  C   C904      1.0  0.61212  0.53075  0.25951  1.0000
  C   C905      1.0  0.60673  0.53501  0.22981  1.0000
  H   H1450     1.0  0.59502  0.55911  0.25946  1.0000
  H   H1451     1.0  0.60504  0.55199  0.31127  1.0000
  H   H1452     1.0  0.61680  0.52285  0.25931  1.0000
  H   H1453     1.0  0.60739  0.53041  0.20672  1.0000
  C   C906      1.0  0.52589  0.54180  0.17558  1.0000
  C   C907      1.0  0.53091  0.55236  0.14454  1.0000
  C   C908      1.0  0.52650  0.55202  0.11215  1.0000
  C   C909      1.0  0.51727  0.54101  0.11049  1.0000
  C   C910      1.0  0.50157  0.65295  0.50858  1.0000
  C   C911      1.0  0.51664  0.53081  0.17395  1.0000
  H   H1454     1.0  0.53819  0.56082  0.14528  1.0000
  H   H1455     1.0  0.53037  0.56025  0.08830  1.0000
  Fe  Fe193     1.0  0.51082  0.64288  0.37933  1.0000
  Fe  Fe194     1.0  0.50670  0.50516  0.70873  1.0000
  C   C912      1.0  0.59664  0.51887  0.74794  1.0000
  C   C913      1.0  0.58677  0.52001  0.77635  1.0000
  C   C914      1.0  0.58682  0.53219  0.78470  1.0000
  C   C915      1.0  0.59669  0.54332  0.76443  1.0000
  C   C916      1.0  0.60646  0.54218  0.73577  1.0000
  C   C917      1.0  0.60647  0.53000  0.72760  1.0000
  H   H1456     1.0  0.57921  0.51141  0.79242  1.0000
  H   H1457     1.0  0.57936  0.53294  0.80716  1.0000
  H   H1458     1.0  0.61408  0.55078  0.71984  1.0000
  H   H1459     1.0  0.61399  0.52927  0.70526  1.0000
  C   C918      1.0  0.51324  0.54881  0.77570  1.0000
  S   S390      1.0  0.50548  0.51210  0.76115  1.0000
  C   C919      1.0  0.51302  0.53482  0.83395  1.0000
  C   C920      1.0  0.52420  0.54362  0.83627  1.0000
  C   C921      1.0  0.52879  0.55583  0.81103  1.0000
  C   C922      1.0  0.52344  0.55837  0.78025  1.0000
  C   C923      1.0  0.50222  0.54049  0.93950  1.0000
  C   C924      1.0  0.57729  0.50162  0.28821  1.0000
  H   H1460     1.0  0.53683  0.56308  0.81410  1.0000
  H   H1461     1.0  0.52772  0.56736  0.75903  1.0000
  C   C925      1.0  0.57521  0.56739  0.98736  1.0000
  C   C926      1.0  0.56630  0.57512  0.98689  1.0000
  C   C927      1.0  0.56384  0.58162  0.01538  1.0000
  C   C928      1.0  0.56999  0.58010  0.04494  1.0000
  C   C929      1.0  0.57857  0.57203  0.04592  1.0000
  C   C930      1.0  0.58123  0.56578  0.01709  1.0000
  H   H1462     1.0  0.56140  0.57615  0.96449  1.0000
  H   H1463     1.0  0.55710  0.58777  0.01477  1.0000
  H   H1464     1.0  0.58345  0.57093  0.06839  1.0000
  H   H1465     1.0  0.58816  0.55983  0.01757  1.0000
  H   H1466     1.0  0.53846  0.64728  0.34373  1.0000
  H   H1467     1.0  0.63910  0.53173  0.21455  1.0000
  H   H1468     1.0  0.53459  0.52927  0.06173  1.0000
  H   H1469     1.0  0.52983  0.52230  0.79863  1.0000
  C   C931      1.0  0.56016  0.53207  0.03433  1.0000
  C   C932      1.0  0.64567  0.53369  0.23341  1.0000
  H   H1470     1.0  0.58715  0.59145  0.90963  1.0000
  H   H1471     1.0  0.56343  0.52892  0.70990  1.0000
  H   H1472     1.0  0.59764  0.61883  0.85356  1.0000
  H   H1473     1.0  0.66639  0.56201  0.17892  1.0000
  C   C933      1.0  0.53815  0.61049  0.73391  1.0000
  C   C934      1.0  0.54302  0.59933  0.73740  1.0000
  C   C935      1.0  0.54970  0.59619  0.76510  1.0000
  C   C936      1.0  0.55176  0.60430  0.78937  1.0000
  C   C937      1.0  0.54673  0.61538  0.78623  1.0000
  C   C938      1.0  0.53985  0.61841  0.75883  1.0000
  H   H1474     1.0  0.54182  0.59317  0.71818  1.0000
  H   H1475     1.0  0.55355  0.58770  0.76690  1.0000
  H   H1476     1.0  0.54827  0.62174  0.80476  1.0000
  H   H1477     1.0  0.53620  0.62707  0.75634  1.0000
  S   S391      1.0  0.50355  0.52353  0.67683  1.0000
  C   C939      1.0  0.54569  0.62564  0.37063  1.0000
  C   C940      1.0  0.56770  0.60318  0.91069  1.0000
  N   N90       1.0  0.65266  0.54766  0.22472  1.0000
  H   H1478     1.0  0.55932  0.52313  0.02343  1.0000
  N   N91       1.0  0.55407  0.63772  0.34397  1.0000
  C   C941      1.0  0.51736  0.64688  0.46461  1.0000
  C   C942      1.0  0.52377  0.64365  0.49278  1.0000
  C   C943      1.0  0.51908  0.64503  0.52883  1.0000
  H   H1479     1.0  0.70229  0.50584  0.35474  1.0000
  H   H1480     1.0  0.56335  0.60030  0.94107  1.0000
  H   H1481     1.0  0.61900  0.52523  0.83850  1.0000
  H   H1482     1.0  0.50880  0.55513  0.22153  1.0000
  H   H1483     1.0  0.52422  0.64277  0.55018  1.0000
  H   H1484     1.0  0.51511  0.65647  0.23547  1.0000
  C   C944      1.0  0.64076  0.53105  0.75561  1.0000
  C   C945      1.0  0.53444  0.62167  0.25337  1.0000
  C   C946      1.0  0.53379  0.61338  0.28725  1.0000
  C   C947      1.0  0.54157  0.60444  0.28903  1.0000
  C   C948      1.0  0.54971  0.60335  0.25675  1.0000
  C   C949      1.0  0.54977  0.61106  0.22251  1.0000
  C   C950      1.0  0.54226  0.62030  0.22090  1.0000
  H   H1485     1.0  0.52749  0.61400  0.31220  1.0000
  H   H1486     1.0  0.54139  0.59841  0.31555  1.0000
  H   H1487     1.0  0.55607  0.61034  0.19747  1.0000
  H   H1488     1.0  0.54279  0.62661  0.19448  1.0000
  H   H1489     1.0  0.58174  0.62032  0.84773  1.0000
  H   H1490     1.0  0.57975  0.61890  0.94788  1.0000
  H   H1491     1.0  0.65477  0.55013  0.16605  1.0000
  H   H1492     1.0  0.66824  0.54364  0.24950  1.0000
  H   H1493     1.0  0.65505  0.54693  0.28010  1.0000
  H   H1494     1.0  0.63956  0.53046  0.26228  1.0000
  H   H1495     1.0  0.63691  0.52658  0.50203  1.0000
  H   H1496     1.0  0.56073  0.54636  0.74215  1.0000
  H   H1497     1.0  0.56711  0.65569  0.34515  1.0000
  C   C951      1.0  0.55907  0.51998  0.09605  1.0000
  H   H1498     1.0  0.66811  0.54560  0.18282  1.0000
  H   H1499     1.0  0.57013  0.62908  0.33084  1.0000
  H   H1500     1.0  0.53781  0.51343  0.06938  1.0000
  S   S392      1.0  0.51230  0.62455  0.36095  1.0000
  H   H1501     1.0  0.51515  0.58126  0.71858  1.0000
  H   H1502     1.0  0.53811  0.62782  0.39127  1.0000
  H   H1503     1.0  0.66659  0.56012  0.24515  1.0000
  H   H1504     1.0  0.51212  0.59207  0.68093  1.0000
  N   N92       1.0  0.63329  0.52331  0.79304  1.0000
  C   C952      1.0  0.64304  0.55560  0.22828  1.0000
  H   H1505     1.0  0.59419  0.62674  0.91129  1.0000
  C   C953      1.0  0.62520  0.51078  0.79027  1.0000
  C   C954      1.0  0.62468  0.53070  0.81005  1.0000
  Fe  Fe195     1.0  0.64933  0.50313  0.29921  1.0000
  H   H1506     1.0  0.52202  0.56874  0.19505  1.0000
  H   H1507     1.0  0.56602  0.59421  0.89997  1.0000
  H   H1508     1.0  0.64702  0.54056  0.75659  1.0000
  H   H1509     1.0  0.60138  0.50062  0.25741  1.0000
  H   H1510     1.0  0.50227  0.60343  0.72471  1.0000
  H   H1511     1.0  0.50982  0.51033  0.58574  1.0000
  H   H1512     1.0  0.64877  0.52993  0.81894  1.0000
  H   H1513     1.0  0.68912  0.50228  0.29066  1.0000
  H   H1514     1.0  0.58582  0.60510  0.84898  1.0000
  H   H1515     1.0  0.50912  0.52564  0.85427  1.0000
  C   C955      1.0  0.51247  0.53036  0.14126  1.0000
  Fe  Fe196     1.0  0.61532  0.50021  0.70774  1.0000
  H   H1516     1.0  0.63703  0.55324  0.25725  1.0000
  H   H1517     1.0  0.56971  0.52428  0.09282  1.0000
  H   H1518     1.0  0.55154  0.62035  0.38628  1.0000
  H   H1519     1.0  0.53370  0.52054  0.10778  1.0000
  H   H1520     1.0  0.55428  0.51776  0.12613  1.0000
  H   H1521     1.0  0.59964  0.60517  0.91134  1.0000
  H   H1522     1.0  0.57844  0.62853  0.90509  1.0000
  H   H1523     1.0  0.55190  0.65361  0.30362  1.0000
  H   H1524     1.0  0.54585  0.54040  0.70171  1.0000
  H   H1525     1.0  0.51577  0.53443  0.98976  1.0000
  H   H1526     1.0  0.64068  0.51763  0.44622  1.0000
  C   C956      1.0  0.56077  0.64641  0.36427  1.0000
  H   H1527     1.0  0.56501  0.54598  0.08470  1.0000
  C   C957      1.0  0.54589  0.64450  0.32417  1.0000
  C   C958      1.0  0.55458  0.54119  0.08682  1.0000
  H   H1528     1.0  0.54052  0.61880  0.35637  1.0000
  C   C959      1.0  0.66086  0.55154  0.18643  1.0000
  H   H1529     1.0  0.51283  0.52257  0.19775  1.0000
  H   H1530     1.0  0.57042  0.64323  0.29646  1.0000
  H   H1531     1.0  0.65260  0.52739  0.23077  1.0000
  C   C960      1.0  0.53925  0.53277  0.72586  1.0000
  H   H1532     1.0  0.64793  0.56624  0.22066  1.0000
  N   N93       1.0  0.55326  0.52899  0.07386  1.0000
  H   H1533     1.0  0.56183  0.51782  0.75324  1.0000
  C   C961      1.0  0.51893  0.56090  0.92032  1.0000
  C   C962      1.0  0.53924  0.52277  0.07835  1.0000
  H   H1534     1.0  0.51154  0.67207  0.22386  1.0000
  C   C963      1.0  0.66104  0.54970  0.25096  1.0000
  H   H1535     1.0  0.50726  0.50024  0.63134  1.0000
  H   H1536     1.0  0.55127  0.51350  0.72340  1.0000
  N   N94       1.0  0.58182  0.60979  0.90203  1.0000
  C   C964      1.0  0.58364  0.62152  0.91723  1.0000
  C   C965      1.0  0.58703  0.61371  0.86138  1.0000
  S   S393      1.0  0.62862  0.50218  0.29448  1.0000
  Fe  Fe197     1.0  0.50655  0.64501  0.63559  1.0000
  C   C966      1.0  0.64605  0.50094  0.47404  1.0000
  C   C967      1.0  0.51296  0.66111  0.16532  1.0000
  H   H1537     1.0  0.50049  0.60639  0.47766  1.0000
  C   C968      1.0  0.50770  0.58275  0.70248  1.0000
  S   S394      1.0  0.51225  0.54045  0.06933  1.0000
  H   H1538     1.0  0.51165  0.56176  0.99123  1.0000
  S   S395      1.0  0.50280  0.62932  0.74038  1.0000
  C   C969      1.0  0.50473  0.55466  0.98160  1.0000
  C   C970      1.0  0.50810  0.64994  0.53665  1.0000
  S   S396      1.0  0.50473  0.50633  0.05262  1.0000
  H   H1539     1.0  0.52625  0.56804  0.92856  1.0000
  S   S397      1.0  0.59649  0.50340  0.73879  1.0000
  Fe  Fe198     1.0  0.50033  0.52947  0.73038  1.0000
  Fe  Fe199     1.0  0.64254  0.50084  0.38309  1.0000
  H   H1540     1.0  0.50615  0.57462  0.68824  1.0000
  H   H1541     1.0  0.50362  0.63775  0.21500  1.0000
  H   H1542     1.0  0.52120  0.56996  0.29310  1.0000
  H   H1543     1.0  0.50082  0.62328  0.46244  1.0000
  H   H1544     1.0  0.61841  0.51235  0.77210  1.0000
  H   H1545     1.0  0.58384  0.51143  0.27307  1.0000
  Fe  Fe200     1.0  0.63583  0.50576  0.63447  1.0000
  S   S398      1.0  0.50911  0.54997  0.73303  1.0000
  H   H1546     1.0  0.52429  0.55761  0.89729  1.0000
  H   H1547     1.0  0.63040  0.54035  0.81190  1.0000
  H   H1548     1.0  0.50522  0.59269  0.76240  1.0000
  S   S399      1.0  0.65605  0.50050  0.74834  1.0000
  H   H1549     1.0  0.51219  0.56618  0.90891  1.0000
  H   H1550     1.0  0.61746  0.53261  0.79358  1.0000
  H   H1551     1.0  0.51684  0.59021  0.25969  1.0000
  H   H1552     1.0  0.50727  0.53626  0.91799  1.0000
  H   H1553     1.0  0.52075  0.65604  0.16983  1.0000
  H   H1554     1.0  0.52663  0.58917  0.21694  1.0000
  H   H1555     1.0  0.53135  0.56935  0.25056  1.0000
  N   N95       1.0  0.51213  0.57138  0.24697  1.0000
  H   H1556     1.0  0.61916  0.50479  0.81782  1.0000
  H   H1557     1.0  0.50944  0.65839  0.14132  1.0000
  H   H1558     1.0  0.51759  0.67183  0.15732  1.0000
  H   H1559     1.0  0.59827  0.50837  0.31621  1.0000
  H   H1560     1.0  0.68830  0.50645  0.19400  1.0000
  H   H1561     1.0  0.52651  0.53919  0.94440  1.0000
  N   N96       1.0  0.50213  0.65753  0.19890  1.0000
  C   C971      1.0  0.50607  0.65128  0.47283  1.0000
  H   H1562     1.0  0.50112  0.65391  0.45132  1.0000
  C   C972      1.0  0.51207  0.56601  0.21385  1.0000
  H   H1563     1.0  0.51830  0.55542  0.27564  1.0000
  S   S400      1.0  0.50252  0.65319  0.58015  1.0000
  H   H1564     1.0  0.50539  0.56962  0.19764  1.0000
  C   C973      1.0  0.52110  0.56630  0.26757  1.0000
  C   C974      1.0  0.68312  0.50054  0.31941  1.0000
  Fe  Fe201     1.0  0.53165  0.96149  0.28397  1.0000
  H   H1565     1.0  0.51844  0.94668  0.42708  1.0000
  S   S401      1.0  0.53823  0.98305  0.25395  1.0000
  H   H1566     1.0  0.54110  0.93961  0.52916  1.0000
  H   H1567     1.0  0.51165  0.98365  0.17694  1.0000
  H   H1568     1.0  0.56928  0.97175  0.31079  1.0000
  Fe  Fe202     1.0  0.52370  0.94529  0.61109  1.0000
  S   S402      1.0  0.51836  0.94953  0.55496  1.0000
  Fe  Fe203     1.0  0.53527  0.95758  0.67022  1.0000
  S   S403      1.0  0.52350  0.94045  0.71740  1.0000
  S   S404      1.0  0.54593  0.97837  0.67188  1.0000
  Fe  Fe204     1.0  0.52870  0.92783  0.67866  1.0000
  C   C975      1.0  0.51851  0.94763  0.48357  1.0000
  C   C976      1.0  0.54115  0.93880  0.47235  1.0000
  S   S405      1.0  0.54191  0.94496  0.63253  1.0000
  S   S406      1.0  0.51779  0.95867  0.64625  1.0000
  H   H1569     1.0  0.50978  0.95116  0.48762  1.0000
  C   C977      1.0  0.52263  0.97113  0.76193  1.0000
  H   H1570     1.0  0.57746  0.97865  0.37951  1.0000
  S   S407      1.0  0.52239  0.95746  0.34468  1.0000
  H   H1571     1.0  0.54150  0.96766  0.39075  1.0000
  C   C978      1.0  0.51352  0.90156  0.20364  1.0000
  C   C979      1.0  0.52343  0.94512  0.44913  1.0000
  H   H1572     1.0  0.54591  0.98289  0.32847  1.0000
  C   C980      1.0  0.51791  0.88236  0.73775  1.0000
  H   H1573     1.0  0.55477  0.96570  0.41157  1.0000
  H   H1574     1.0  0.57226  0.99352  0.37590  1.0000
  H   H1575     1.0  0.52685  0.87976  0.72738  1.0000
  H   H1576     1.0  0.53052  0.97926  0.76431  1.0000
  H   H1577     1.0  0.50561  0.95993  0.72684  1.0000
  Fe  Fe205     1.0  0.52408  0.93213  0.28335  1.0000
  H   H1578     1.0  0.58057  0.98974  0.33501  1.0000
  S   S408      1.0  0.54195  0.93854  0.39917  1.0000
  S   S409      1.0  0.54234  0.94572  0.29022  1.0000
  C   C981      1.0  0.53613  0.94116  0.50702  1.0000
  C   C982      1.0  0.51752  0.89554  0.72883  1.0000
  S   S410      1.0  0.51139  0.92736  0.65375  1.0000
  Fe  Fe206     1.0  0.53203  0.94101  0.35116  1.0000
  C   C983      1.0  0.55331  0.98613  0.70324  1.0000
  C   C984      1.0  0.51249  0.90547  0.23732  1.0000
  H   H1579     1.0  0.52494  0.99366  0.71483  1.0000
  H   H1580     1.0  0.55348  0.99584  0.34723  1.0000
  C   C985      1.0  0.56487  0.98629  0.75276  1.0000
  C   C986      1.0  0.55840  0.97948  0.73020  1.0000
  H   H1581     1.0  0.52719  0.96633  0.74124  1.0000
  N   N97       1.0  0.50803  0.99479  0.21755  1.0000
  H   H1582     1.0  0.56911  0.98109  0.77269  1.0000
  H   H1583     1.0  0.55774  0.96918  0.73287  1.0000
  S   S411      1.0  0.52379  0.91995  0.23955  1.0000
  S   S412      1.0  0.51425  0.94846  0.27283  1.0000
  H   H1584     1.0  0.50772  0.85893  0.93496  1.0000
  C   C987      1.0  0.52482  0.94568  0.51273  1.0000
  C   C988      1.0  0.55414  0.99360  0.23432  1.0000
  H   H1585     1.0  0.52130  0.90722  0.17991  1.0000
  S   S413      1.0  0.53163  0.90782  0.70140  1.0000
  H   H1586     1.0  0.58675  0.99473  0.21485  1.0000
  H   H1587     1.0  0.50130  0.96550  0.59281  1.0000
  H   H1588     1.0  0.50555  0.90890  0.73630  1.0000
  C   C989      1.0  0.51688  0.99168  0.18749  1.0000
  C   C990      1.0  0.53485  0.94079  0.44319  1.0000
  H   H1589     1.0  0.56621  0.96063  0.35545  1.0000
  C   C991      1.0  0.56238  0.96794  0.33860  1.0000
  C   C992      1.0  0.56555  0.98921  0.23220  1.0000
  S   S414      1.0  0.51515  0.92592  0.34498  1.0000
  H   H1590     1.0  0.54999  0.93543  0.46813  1.0000
  C   C993      1.0  0.55532  0.98786  0.33382  1.0000
  H   H1591     1.0  0.56483  0.97894  0.24231  1.0000
  N   N98       1.0  0.56055  0.97855  0.35702  1.0000
  N   N99       1.0  0.51176  0.97597  0.75073  1.0000
  H   H1592     1.0  0.51045  0.97966  0.25967  1.0000
  C   C994      1.0  0.57328  0.98543  0.36208  1.0000
  C   C995      1.0  0.57796  0.99816  0.21657  1.0000
  H   H1593     1.0  0.50563  0.88749  0.17427  1.0000
  H   H1594     1.0  0.55294  0.96249  0.33477  1.0000
  C   C996      1.0  0.55121  0.97294  0.39357  1.0000
  H   H1595     1.0  0.50893  0.98986  0.70596  1.0000
  Fe  Fe207     1.0  0.50683  0.94066  0.69003  1.0000
  H   H1596     1.0  0.51103  0.88295  0.87248  1.0000
  H   H1597     1.0  0.51358  0.99079  0.78142  1.0000
  C   C997      1.0  0.50610  0.98236  0.77871  1.0000
  Fe  Fe208     1.0  0.50627  0.94291  0.33411  1.0000
  H   H1598     1.0  0.54961  0.98059  0.40860  1.0000
  H   H1599     1.0  0.51923  0.96383  0.78904  1.0000
  H   H1600     1.0  0.52042  0.98083  0.69216  1.0000
  H   H1601     1.0  0.52519  0.98862  0.19698  1.0000
  H   H1602     1.0  0.50599  0.87416  0.83969  1.0000
  C   C998      1.0  0.50800  0.87298  0.86782  1.0000
  H   H1603     1.0  0.51653  0.86864  0.86714  1.0000
  H   H1604     1.0  0.56226  0.99250  0.30634  1.0000
  C   C999      1.0  0.50463  0.89035  0.20033  1.0000
  C   C1000     1.0  0.51672  0.98548  0.71437  1.0000
  C   C1001     1.0  0.50593  0.89879  0.74245  1.0000
  C   C1002     1.0  0.50254  0.98307  0.24864  1.0000
  H   H1605     1.0  0.50716  0.86243  0.76596  1.0000
  C   C1003     1.0  0.50243  0.89796  0.26774  1.0000
  C   C1004     1.0  0.50676  0.87252  0.75960  1.0000
  H   H1606     1.0  0.50212  0.97544  0.80639  1.0000
  C   C1005     1.0  0.50157  0.96490  0.74780  1.0000
  H   H1607     1.0  0.50164  0.90068  0.29397  1.0000
  H   H1608     1.0  0.50198  0.87309  0.94042  1.0000
  H   H1609     1.0  0.50085  0.84667  0.88977  1.0000
  C   C1006     1.0  0.55439  0.99958  0.70014  1.0000
  C   C1007     1.0  0.56607  0.99975  0.74941  1.0000
  H   H1610     1.0  0.50034  0.92369  0.20035  1.0000
  H   H1611     1.0  0.76069  0.24630  0.74423  1.0000
  H   H1612     1.0  0.76341  0.24112  0.68241  1.0000
  C   C1008     1.0  0.75588  0.24640  0.67687  1.0000
  H   H1613     1.0  0.75095  0.24207  0.65707  1.0000
  C   C1009     1.0  0.96511  0.43894  0.16678  1.0000
  S   S415      1.0  0.98146  0.46393  0.75339  1.0000
  C   C1010     1.0  0.99410  0.43687  0.85281  1.0000
  S   S416      1.0  0.94052  0.42413  0.20578  1.0000
  C   C1011     1.0  0.76915  0.32529  0.08306  1.0000
  H   H1614     1.0  0.96139  0.43838  0.14238  1.0000
  C   C1012     1.0  0.75510  0.47224  0.03001  1.0000
  H   H1615     1.0  0.80601  0.42250  0.00153  1.0000
  Fe  Fe209     1.0  0.90662  0.41238  0.33440  1.0000
  S   S417      1.0  0.90832  0.40297  0.28531  1.0000
  S   S418      1.0  0.90218  0.40240  0.39582  1.0000
  Fe  Fe210     1.0  0.90756  0.43842  0.28736  1.0000
  S   S419      1.0  0.90948  0.43154  0.23565  1.0000
  S   S420      1.0  0.90458  0.45837  0.28460  1.0000
  Fe  Fe211     1.0  0.89376  0.41363  0.26754  1.0000
  S   S421      1.0  0.87794  0.41109  0.23493  1.0000
  Fe  Fe212     1.0  0.92395  0.42165  0.25579  1.0000
  C   C1013     1.0  0.77585  0.44519  0.77525  1.0000
  S   S422      1.0  0.89084  0.42144  0.31863  1.0000
  S   S423      1.0  0.92332  0.43013  0.30594  1.0000
  C   C1014     1.0  0.98717  0.43453  0.79680  1.0000
  C   C1015     1.0  0.81177  0.39889  0.01069  1.0000
  H   H1616     1.0  0.89716  0.49320  0.21894  1.0000
  S   S424      1.0  0.94472  0.49225  0.69951  1.0000
  H   H1617     1.0  0.97095  0.41952  0.88588  1.0000
  H   H1618     1.0  0.80848  0.31225  0.18418  1.0000
  Fe  Fe213     1.0  0.92048  0.42649  0.57479  1.0000
  S   S425      1.0  0.92610  0.41158  0.61475  1.0000
  S   S426      1.0  0.92613  0.42992  0.51181  1.0000
  Fe  Fe214     1.0  0.91019  0.43860  0.63661  1.0000
  S   S427      1.0  0.91478  0.42462  0.68111  1.0000
  S   S428      1.0  0.90141  0.45459  0.65085  1.0000
  Fe  Fe215     1.0  0.93401  0.42802  0.64025  1.0000
  Fe  Fe216     1.0  0.90641  0.40965  0.65223  1.0000
  S   S429      1.0  0.89332  0.39029  0.68844  1.0000
  S   S430      1.0  0.92983  0.44305  0.59741  1.0000
  S   S431      1.0  0.90031  0.42345  0.61060  1.0000
  Fe  Fe217     1.0  0.83261  0.36715  0.14094  1.0000
  S   S432      1.0  0.83372  0.38446  0.09599  1.0000
  S   S433      1.0  0.84734  0.36461  0.17624  1.0000
  Fe  Fe218     1.0  0.80713  0.35122  0.12884  1.0000
  S   S434      1.0  0.80585  0.36735  0.08357  1.0000
  S   S435      1.0  0.79368  0.33065  0.15214  1.0000
  Fe  Fe219     1.0  0.82741  0.37013  0.06294  1.0000
  S   S436      1.0  0.83584  0.37620  0.00138  1.0000
  Fe  Fe220     1.0  0.81216  0.38072  0.11921  1.0000
  S   S437      1.0  0.80469  0.39865  0.11905  1.0000
  S   S438      1.0  0.82844  0.35296  0.10516  1.0000
  S   S439      1.0  0.81131  0.36447  0.16714  1.0000
  Fe  Fe221     1.0  0.81663  0.35909  0.77133  1.0000
  S   S440      1.0  0.79632  0.36100  0.76827  1.0000
  S   S441      1.0  0.83167  0.36840  0.71636  1.0000
  Fe  Fe222     1.0  0.80839  0.34772  0.85420  1.0000
  S   S442      1.0  0.78795  0.34931  0.85704  1.0000
  S   S443      1.0  0.81074  0.33818  0.91024  1.0000
  Fe  Fe223     1.0  0.78864  0.34096  0.80697  1.0000
  S   S444      1.0  0.76807  0.32751  0.81676  1.0000
  Fe  Fe224     1.0  0.79683  0.36889  0.81846  1.0000
  S   S445      1.0  0.78786  0.38534  0.82833  1.0000
  S   S446      1.0  0.80892  0.33815  0.80605  1.0000
  S   S447      1.0  0.81741  0.36828  0.81971  1.0000
  C   C1016     1.0  0.76167  0.31230  0.09814  1.0000
  H   H1619     1.0  0.85178  0.42803  0.71815  1.0000
  H   H1620     1.0  0.97382  0.48762  0.78554  1.0000
  Fe  Fe225     1.0  0.85318  0.48582  0.18039  1.0000
  S   S448      1.0  0.83549  0.46951  0.21309  1.0000
  H   H1621     1.0  0.79744  0.31099  0.95067  1.0000
  Fe  Fe226     1.0  0.84405  0.48468  0.10786  1.0000
  S   S449      1.0  0.82647  0.46796  0.13534  1.0000
  H   H1622     1.0  0.94736  0.49852  0.61834  1.0000
  Fe  Fe227     1.0  0.82354  0.47919  0.17879  1.0000
  S   S450      1.0  0.80258  0.47996  0.20226  1.0000
  Fe  Fe228     1.0  0.83975  0.45979  0.16655  1.0000
  S   S451      1.0  0.84105  0.43898  0.18076  1.0000
  H   H1623     1.0  0.78952  0.29923  0.99378  1.0000
  S   S452      1.0  0.85769  0.47543  0.13493  1.0000
  Fe  Fe229     1.0  0.82748  0.45410  0.82267  1.0000
  S   S453      1.0  0.84304  0.46383  0.84799  1.0000
  S   S454      1.0  0.83109  0.43901  0.79045  1.0000
  Fe  Fe230     1.0  0.80857  0.46998  0.84621  1.0000
  S   S455      1.0  0.82256  0.48105  0.87366  1.0000
  S   S456      1.0  0.78929  0.47500  0.84157  1.0000
  Fe  Fe231     1.0  0.83852  0.48251  0.82364  1.0000
  N   N100      1.0  0.76155  0.48549  0.03246  1.0000
  Fe  Fe232     1.0  0.82619  0.46169  0.89586  1.0000
  S   S457      1.0  0.82801  0.45338  0.95353  1.0000
  S   S458      1.0  0.82422  0.47304  0.79424  1.0000
  S   S459      1.0  0.81094  0.45044  0.87264  1.0000
  C   C1017     1.0  0.84072  0.48196  0.02294  1.0000
  C   C1018     1.0  0.83671  0.48635  0.99075  1.0000
  C   C1019     1.0  0.83238  0.47757  0.96984  1.0000
  C   C1020     1.0  0.83220  0.46439  0.98088  1.0000
  C   C1021     1.0  0.83589  0.45994  0.01364  1.0000
  C   C1022     1.0  0.84009  0.46869  0.03471  1.0000
  C   C1023     1.0  0.97508  0.43975  0.22935  1.0000
  H   H1624     1.0  0.82933  0.48104  0.94506  1.0000
  H   H1625     1.0  0.83579  0.44977  0.02244  1.0000
  H   H1626     1.0  0.84321  0.46524  0.05949  1.0000
  H   H1627     1.0  0.76121  0.36550  0.75864  1.0000
  C   C1024     1.0  0.75322  0.25139  0.73696  1.0000
  C   C1025     1.0  0.76341  0.46856  0.83904  1.0000
  C   C1026     1.0  0.77368  0.46390  0.85006  1.0000
  C   C1027     1.0  0.77132  0.45062  0.86683  1.0000
  C   C1028     1.0  0.75888  0.44208  0.87185  1.0000
  C   C1029     1.0  0.98161  0.44942  0.69948  1.0000
  H   H1628     1.0  0.76511  0.47883  0.82621  1.0000
  H   H1629     1.0  0.77904  0.44695  0.87616  1.0000
  H   H1630     1.0  0.78403  0.44059  0.16131  1.0000
  H   H1631     1.0  0.77517  0.47877  0.06127  1.0000
  C   C1030     1.0  0.77660  0.47385  0.19869  1.0000
  C   C1031     1.0  0.78963  0.47482  0.18088  1.0000
  C   C1032     1.0  0.79200  0.47101  0.14747  1.0000
  C   C1033     1.0  0.78152  0.46586  0.13276  1.0000
  S   S460      1.0  0.95274  0.49899  0.30330  1.0000
  H   H1632     1.0  0.80191  0.47198  0.13286  1.0000
  H   H1633     1.0  0.78355  0.46270  0.10730  1.0000
  C   C1034     1.0  0.80009  0.40001  0.81867  1.0000
  C   C1035     1.0  0.81173  0.40228  0.79179  1.0000
  C   C1036     1.0  0.82124  0.41424  0.78351  1.0000
  C   C1037     1.0  0.81928  0.42386  0.80262  1.0000
  C   C1038     1.0  0.80777  0.42140  0.83012  1.0000
  C   C1039     1.0  0.79809  0.40962  0.83769  1.0000
  H   H1634     1.0  0.81331  0.39490  0.77691  1.0000
  H   H1635     1.0  0.83010  0.41601  0.76223  1.0000
  H   H1636     1.0  0.80625  0.42854  0.84562  1.0000
  H   H1637     1.0  0.78917  0.40783  0.85881  1.0000
  H   H1638     1.0  0.93138  0.40987  0.14292  1.0000
  H   H1639     1.0  0.80382  0.39927  0.99588  1.0000
  C   C1040     1.0  0.76871  0.30914  0.77382  1.0000
  C   C1041     1.0  0.76138  0.31360  0.80105  1.0000
  S   S461      1.0  0.84726  0.49330  0.04671  1.0000
  C   C1042     1.0  0.81346  0.42094  0.01748  1.0000
  H   H1640     1.0  0.77893  0.31413  0.76185  1.0000
  H   H1641     1.0  0.76714  0.49301  0.97331  1.0000
  H   H1642     1.0  0.82694  0.40753  0.05481  1.0000
  C   C1043     1.0  0.81552  0.40997  0.13393  1.0000
  C   C1044     1.0  0.82270  0.40563  0.15867  1.0000
  C   C1045     1.0  0.83080  0.41466  0.17215  1.0000
  C   C1046     1.0  0.83195  0.42805  0.16040  1.0000
  C   C1047     1.0  0.82521  0.43242  0.13438  1.0000
  C   C1048     1.0  0.81689  0.42338  0.12145  1.0000
  H   H1643     1.0  0.82173  0.39528  0.16829  1.0000
  H   H1644     1.0  0.83598  0.41122  0.19229  1.0000
  H   H1645     1.0  0.82628  0.44274  0.12449  1.0000
  H   H1646     1.0  0.81153  0.42679  0.10182  1.0000
  C   C1049     1.0  0.82847  0.36569  0.97655  1.0000
  C   C1050     1.0  0.82071  0.35309  0.99461  1.0000
  C   C1051     1.0  0.81533  0.34469  0.97405  1.0000
  C   C1052     1.0  0.81740  0.34896  0.93551  1.0000
  C   C1053     1.0  0.82494  0.36165  0.91763  1.0000
  C   C1054     1.0  0.83056  0.36994  0.93805  1.0000
  H   H1647     1.0  0.81908  0.34973  0.02431  1.0000
  H   H1648     1.0  0.80959  0.33488  0.98807  1.0000
  H   H1649     1.0  0.82672  0.36497  0.88794  1.0000
  H   H1650     1.0  0.83659  0.37965  0.92393  1.0000
  C   C1055     1.0  0.78149  0.32377  0.13061  1.0000
  C   C1056     1.0  0.77401  0.31077  0.14572  1.0000
  H   H1651     1.0  0.99381  0.48851  0.19210  1.0000
  H   H1652     1.0  0.78028  0.49578  0.03796  1.0000
  H   H1653     1.0  0.75609  0.46793  0.19797  1.0000
  C   C1057     1.0  0.87598  0.38552  0.69788  1.0000
  C   C1058     1.0  0.86897  0.37597  0.73028  1.0000
  C   C1059     1.0  0.85527  0.37116  0.73739  1.0000
  C   C1060     1.0  0.84851  0.37558  0.71152  1.0000
  C   C1061     1.0  0.85551  0.38530  0.67938  1.0000
  C   C1062     1.0  0.86915  0.39040  0.67282  1.0000
  H   H1654     1.0  0.87417  0.37210  0.74978  1.0000
  H   H1655     1.0  0.85001  0.36361  0.76208  1.0000
  H   H1656     1.0  0.85034  0.38870  0.65915  1.0000
  H   H1657     1.0  0.87440  0.39771  0.64770  1.0000
  H   H1658     1.0  0.94367  0.49378  0.51093  1.0000
  H   H1659     1.0  0.79880  0.45232  0.21373  1.0000
  N   N101      1.0  0.94649  0.49430  0.56548  1.0000
  H   H1660     1.0  0.78680  0.32729  0.97270  1.0000
  C   C1063     1.0  0.79255  0.43712  0.16786  1.0000
  C   C1064     1.0  0.76850  0.46464  0.15085  1.0000
  H   H1661     1.0  0.76847  0.29493  0.74049  1.0000
  C   C1065     1.0  0.79574  0.44717  0.79671  1.0000
  S   S462      1.0  0.87201  0.49056  0.20155  1.0000
  C   C1066     1.0  0.95677  0.43306  0.20209  1.0000
  C   C1067     1.0  0.93203  0.48162  0.68891  1.0000
  C   C1068     1.0  0.93365  0.46950  0.68419  1.0000
  C   C1069     1.0  0.92413  0.46114  0.67306  1.0000
  C   C1070     1.0  0.91286  0.46481  0.66698  1.0000
  C   C1071     1.0  0.91107  0.47685  0.67247  1.0000
  C   C1072     1.0  0.92068  0.48528  0.68338  1.0000
  H   H1662     1.0  0.94246  0.46673  0.68818  1.0000
  H   H1663     1.0  0.92569  0.45194  0.66874  1.0000
  H   H1664     1.0  0.90232  0.47969  0.66801  1.0000
  H   H1665     1.0  0.91923  0.49451  0.68792  1.0000
  C   C1073     1.0  0.86944  0.39785  0.21979  1.0000
  C   C1074     1.0  0.87128  0.38526  0.22855  1.0000
  C   C1075     1.0  0.86448  0.37521  0.21494  1.0000
  C   C1076     1.0  0.85576  0.37759  0.19257  1.0000
  C   C1077     1.0  0.85400  0.39020  0.18369  1.0000
  C   C1078     1.0  0.86082  0.40025  0.19718  1.0000
  H   H1666     1.0  0.87781  0.38323  0.24610  1.0000
  H   H1667     1.0  0.86589  0.36549  0.22206  1.0000
  H   H1668     1.0  0.84736  0.39221  0.16649  1.0000
  H   H1669     1.0  0.85935  0.40995  0.19006  1.0000
  C   C1079     1.0  0.90881  0.41010  0.42801  1.0000
  C   C1080     1.0  0.92083  0.41950  0.41703  1.0000
  C   C1081     1.0  0.92599  0.42532  0.44323  1.0000
  C   C1082     1.0  0.91916  0.42193  0.48064  1.0000
  C   C1083     1.0  0.90706  0.41262  0.49169  1.0000
  C   C1084     1.0  0.90199  0.40662  0.46554  1.0000
  H   H1670     1.0  0.92630  0.42209  0.38845  1.0000
  H   H1671     1.0  0.88666  0.41979  0.74384  1.0000
  H   H1672     1.0  0.90160  0.41011  0.52024  1.0000
  H   H1673     1.0  0.89265  0.39937  0.47424  1.0000
  C   C1085     1.0  0.76390  0.36232  0.78523  1.0000
  C   C1086     1.0  0.97539  0.44207  0.67756  1.0000
  C   C1087     1.0  0.75096  0.46003  0.84418  1.0000
  H   H1674     1.0  0.99112  0.43642  0.88293  1.0000
  H   H1675     1.0  0.97880  0.43263  0.78344  1.0000
  H   H1676     1.0  0.95271  0.47139  0.21112  1.0000
  H   H1677     1.0  0.77095  0.44345  0.75264  1.0000
  H   H1678     1.0  0.82656  0.31822  0.25663  1.0000
  C   C1088     1.0  0.97477  0.44331  0.84158  1.0000
  H   H1679     1.0  0.75157  0.49490  0.99565  1.0000
  H   H1680     1.0  0.80169  0.42515  0.24597  1.0000
  H   H1681     1.0  0.78765  0.29525  0.95072  1.0000
  C   C1089     1.0  0.76607  0.46882  0.18369  1.0000
  H   H1682     1.0  0.77961  0.41355  0.21201  1.0000
  H   H1683     1.0  0.79670  0.46457  0.73505  1.0000
  C   C1090     1.0  0.93992  0.48803  0.29414  1.0000
  C   C1091     1.0  0.92813  0.49138  0.29273  1.0000
  C   C1092     1.0  0.91747  0.48234  0.28838  1.0000
  C   C1093     1.0  0.91862  0.47000  0.28462  1.0000
  C   C1094     1.0  0.93062  0.46685  0.28386  1.0000
  C   C1095     1.0  0.94122  0.47579  0.28933  1.0000
  H   H1684     1.0  0.79556  0.45703  0.80116  1.0000
  H   H1685     1.0  0.90821  0.48482  0.28883  1.0000
  H   H1686     1.0  0.93163  0.45740  0.28030  1.0000
  H   H1687     1.0  0.95023  0.47306  0.29103  1.0000
  N   N102      1.0  0.90805  0.45474  0.40243  1.0000
  C   C1096     1.0  0.89775  0.44228  0.41408  1.0000
  C   C1097     1.0  0.91933  0.45341  0.37570  1.0000
  C   C1098     1.0  0.91237  0.45799  0.43515  1.0000
  C   C1099     1.0  0.90282  0.46528  0.38462  1.0000
  H   H1688     1.0  0.89451  0.43936  0.38989  1.0000
  H   H1689     1.0  0.88897  0.44298  0.43376  1.0000
  H   H1690     1.0  0.90132  0.43417  0.42812  1.0000
  H   H1691     1.0  0.92394  0.44600  0.38847  1.0000
  H   H1692     1.0  0.91625  0.45029  0.35162  1.0000
  H   H1693     1.0  0.92704  0.46280  0.36496  1.0000
  H   H1694     1.0  0.92021  0.46731  0.42722  1.0000
  H   H1695     1.0  0.90412  0.45910  0.45595  1.0000
  H   H1696     1.0  0.89440  0.46674  0.40402  1.0000
  H   H1697     1.0  0.89936  0.46303  0.36005  1.0000
  H   H1698     1.0  0.91043  0.47479  0.37472  1.0000
  H   H1699     1.0  0.98547  0.47483  0.23063  1.0000
  N   N103      1.0  0.82082  0.41194  0.00413  1.0000
  C   C1100     1.0  0.82689  0.41701  0.96406  1.0000
  C   C1101     1.0  0.83117  0.41092  0.02440  1.0000
  H   H1700     1.0  0.83256  0.41043  0.95323  1.0000
  H   H1701     1.0  0.83370  0.42691  0.95818  1.0000
  H   H1702     1.0  0.81938  0.41792  0.94784  1.0000
  H   H1703     1.0  0.82008  0.43070  0.01465  1.0000
  H   H1704     1.0  0.83836  0.42053  0.01937  1.0000
  H   H1705     1.0  0.83662  0.40383  0.01598  1.0000
  H   H1706     1.0  0.81700  0.39182  0.00104  1.0000
  N   N104      1.0  0.87340  0.45072  0.22816  1.0000
  C   C1102     1.0  0.87311  0.44334  0.19907  1.0000
  C   C1103     1.0  0.88489  0.46218  0.21591  1.0000
  C   C1104     1.0  0.87426  0.44217  0.26255  1.0000
  C   C1105     1.0  0.86131  0.45521  0.23513  1.0000
  H   H1707     1.0  0.86465  0.43450  0.20785  1.0000
  H   H1708     1.0  0.88214  0.43990  0.19278  1.0000
  H   H1709     1.0  0.87208  0.44938  0.17297  1.0000
  H   H1710     1.0  0.88524  0.46806  0.23713  1.0000
  H   H1711     1.0  0.89423  0.45920  0.21107  1.0000
  H   H1712     1.0  0.88457  0.46884  0.18991  1.0000
  H   H1713     1.0  0.87459  0.44745  0.28507  1.0000
  H   H1714     1.0  0.88328  0.43864  0.25802  1.0000
  H   H1715     1.0  0.86578  0.43337  0.27248  1.0000
  H   H1716     1.0  0.86124  0.46101  0.25653  1.0000
  H   H1717     1.0  0.85240  0.44685  0.24429  1.0000
  H   H1718     1.0  0.86043  0.46164  0.20955  1.0000
  H   H1719     1.0  0.76528  0.29385  0.01673  1.0000
  C   C1106     1.0  0.97666  0.49616  0.71265  1.0000
  C   C1107     1.0  0.80253  0.42846  0.21575  1.0000
  H   H1720     1.0  0.98833  0.47260  0.18452  1.0000
  H   H1721     1.0  0.77751  0.41868  0.25478  1.0000
  N   N105      1.0  0.75265  0.35947  0.81736  1.0000
  H   H1722     1.0  0.90018  0.40502  0.11213  1.0000
  H   H1723     1.0  0.92439  0.41048  0.10328  1.0000
  H   H1724     1.0  0.99200  0.45077  0.69738  1.0000
  C   C1108     1.0  0.76479  0.29792  0.98784  1.0000
  H   H1725     1.0  0.80617  0.44679  0.79078  1.0000
  H   H1726     1.0  0.77009  0.43775  0.80100  1.0000
  H   H1727     1.0  0.92843  0.47943  0.59065  1.0000
  H   H1728     1.0  0.88882  0.38923  0.56990  1.0000
  H   H1729     1.0  0.91637  0.45020  0.44925  1.0000
  H   H1730     1.0  0.95714  0.49830  0.76507  1.0000
  C   C1109     1.0  0.77903  0.42209  0.22427  1.0000
  H   H1731     1.0  0.97558  0.48012  0.14153  1.0000
  H   H1732     1.0  0.83695  0.49657  0.98205  1.0000
  H   H1733     1.0  0.77914  0.31551  0.01602  1.0000
  H   H1734     1.0  0.80709  0.39479  0.04074  1.0000
  H   H1735     1.0  0.80829  0.41710  0.04725  1.0000
  C   C1110     1.0  0.76275  0.29824  0.76174  1.0000
  H   H1736     1.0  0.78438  0.32158  0.91365  1.0000
  H   H1737     1.0  0.90823  0.38900  0.19743  1.0000
  H   H1738     1.0  0.82015  0.32441  0.14739  1.0000
  H   H1739     1.0  0.77463  0.47680  0.22450  1.0000
  H   H1740     1.0  0.92284  0.39499  0.13401  1.0000
  C   C1111     1.0  0.76417  0.30503  0.12953  1.0000
  C   C1112     1.0  0.98348  0.44543  0.19404  1.0000
  H   H1741     1.0  0.77582  0.30511  0.17014  1.0000
  H   H1742     1.0  0.75383  0.48154  0.09127  1.0000
  H   H1743     1.0  0.77016  0.42517  0.21895  1.0000
  H   H1744     1.0  0.80740  0.45438  0.72446  1.0000
  N   N106      1.0  0.77665  0.30847  0.96766  1.0000
  H   H1745     1.0  0.91191  0.42575  0.12430  1.0000
  H   H1746     1.0  0.96642  0.44176  0.82802  1.0000
  N   N107      1.0  0.97302  0.48203  0.19777  1.0000
  H   H1747     1.0  0.96411  0.46241  0.19589  1.0000
  H   H1748     1.0  0.96434  0.48958  0.15444  1.0000
  H   H1749     1.0  0.86742  0.40158  0.75016  1.0000
  C   C1113     1.0  0.92279  0.40538  0.13284  1.0000
  C   C1114     1.0  0.86124  0.40866  0.75044  1.0000
  H   H1750     1.0  0.97898  0.43973  0.25368  1.0000
  H   H1751     1.0  0.88047  0.41514  0.68779  1.0000
  C   C1115     1.0  0.96173  0.43378  0.23343  1.0000
  H   H1752     1.0  0.94057  0.47437  0.56121  1.0000
  H   H1753     1.0  0.77437  0.30595  0.91395  1.0000
  C   C1116     1.0  0.77510  0.48595  0.03590  1.0000
  H   H1754     1.0  0.98173  0.49639  0.14622  1.0000
  H   H1755     1.0  0.88609  0.43640  0.72805  1.0000
  C   C1117     1.0  0.88006  0.42649  0.74430  1.0000
  N   N108      1.0  0.86879  0.42193  0.72876  1.0000
  H   H1756     1.0  0.98110  0.43783  0.65875  1.0000
  H   H1757     1.0  0.76931  0.32311  0.99017  1.0000
  H   H1758     1.0  0.75880  0.49853  0.06808  1.0000
  C   C1118     1.0  0.87366  0.42158  0.68986  1.0000
  H   H1759     1.0  0.86548  0.41782  0.67741  1.0000
  C   C1119     1.0  0.98129  0.49704  0.77207  1.0000
  H   H1760     1.0  0.96579  0.41788  0.84412  1.0000
  H   H1761     1.0  0.85725  0.40855  0.77989  1.0000
  H   H1762     1.0  0.85277  0.40482  0.73905  1.0000
  C   C1120     1.0  0.96083  0.45301  0.72619  1.0000
  H   H1763     1.0  0.75716  0.43182  0.88468  1.0000
  H   H1764     1.0  0.80150  0.44528  0.15479  1.0000
  H   H1765     1.0  0.82431  0.30974  0.16673  1.0000
  C   C1121     1.0  0.79691  0.45454  0.73182  1.0000
  H   H1766     1.0  0.78135  0.44775  0.21985  1.0000
  H   H1767     1.0  0.86819  0.48799  0.84581  1.0000
  C   C1122     1.0  0.95463  0.44570  0.70420  1.0000
  H   H1768     1.0  0.87679  0.42706  0.77350  1.0000
  N   N109      1.0  0.78967  0.44456  0.76616  1.0000
  H   H1769     1.0  0.93540  0.43245  0.43448  1.0000
  H   H1770     1.0  0.87913  0.43150  0.67247  1.0000
  H   H1771     1.0  0.75849  0.29503  0.14145  1.0000
  C   C1123     1.0  0.77804  0.31907  0.98747  1.0000
  H   H1772     1.0  0.76036  0.46957  0.00549  1.0000
  H   H1773     1.0  0.81171  0.43648  0.20433  1.0000
  C   C1124     1.0  0.86027  0.43102  0.73025  1.0000
  H   H1774     1.0  0.91799  0.39592  0.56162  1.0000
  H   H1775     1.0  0.92113  0.38113  0.55139  1.0000
  H   H1776     1.0  0.80382  0.42018  0.20301  1.0000
  H   H1777     1.0  0.98475  0.44955  0.13541  1.0000
  C   C1125     1.0  0.77904  0.33098  0.09906  1.0000
  H   H1778     1.0  0.86573  0.44117  0.71463  1.0000
  H   H1779     1.0  0.98595  0.49345  0.70329  1.0000
  C   C1126     1.0  0.91336  0.38639  0.55638  1.0000
  H   H1780     1.0  0.91425  0.36912  0.61729  1.0000
  C   C1127     1.0  0.97367  0.48727  0.15826  1.0000
  H   H1781     1.0  0.77509  0.45492  0.78000  1.0000
  H   H1782     1.0  0.89893  0.36954  0.64557  1.0000
  H   H1783     1.0  0.90288  0.36047  0.57241  1.0000
  H   H1784     1.0  0.85622  0.43139  0.75929  1.0000
  H   H1785     1.0  0.97026  0.48833  0.24863  1.0000
  C   C1128     1.0  0.90711  0.37513  0.62123  1.0000
  H   H1786     1.0  0.91014  0.38863  0.53015  1.0000
  H   H1787     1.0  0.90168  0.42140  0.17045  1.0000
  H   H1788     1.0  0.78493  0.42369  0.78664  1.0000
  N   N110      1.0  0.90227  0.37860  0.58759  1.0000
  C   C1129     1.0  0.96188  0.44021  0.67960  1.0000
  H   H1789     1.0  0.95545  0.42918  0.26075  1.0000
  H   H1790     1.0  0.91208  0.38399  0.62904  1.0000
  H   H1791     1.0  0.88412  0.38067  0.61800  1.0000
  H   H1792     1.0  0.94243  0.47617  0.60611  1.0000
  H   H1793     1.0  0.77216  0.37021  0.78695  1.0000
  C   C1130     1.0  0.89264  0.38632  0.59471  1.0000
  H   H1794     1.0  0.78471  0.34098  0.08710  1.0000
  C   C1131     1.0  0.89588  0.36652  0.57816  1.0000
  C   C1132     1.0  0.97027  0.49172  0.21896  1.0000
  H   H1795     1.0  0.81799  0.34071  0.18375  1.0000
  H   H1796     1.0  0.76690  0.31789  0.92997  1.0000
  H   H1797     1.0  0.89706  0.39538  0.60257  1.0000
  H   H1798     1.0  0.89199  0.36878  0.55310  1.0000
  H   H1799     1.0  0.75583  0.37953  0.82057  1.0000
  H   H1800     1.0  0.88750  0.36039  0.60125  1.0000
  H   H1801     1.0  0.94422  0.44421  0.70650  1.0000
  H   H1802     1.0  0.83995  0.33785  0.15960  1.0000
  H   H1803     1.0  0.82812  0.30617  0.23026  1.0000
  H   H1804     1.0  0.89831  0.38969  0.14400  1.0000
  H   H1805     1.0  0.75580  0.30155  0.98985  1.0000
  C   C1133     1.0  0.81914  0.31717  0.17370  1.0000
  H   H1806     1.0  0.84262  0.33538  0.20519  1.0000
  C   C1134     1.0  0.90884  0.39958  0.19441  1.0000
  C   C1135     1.0  0.83841  0.33024  0.18556  1.0000
  C   C1136     1.0  0.82276  0.31365  0.23546  1.0000
  H   H1807     1.0  0.80644  0.32867  0.22094  1.0000
  C   C1137     1.0  0.97836  0.44531  0.16275  1.0000
  N   N111      1.0  0.82436  0.32357  0.20100  1.0000
  H   H1808     1.0  0.84426  0.32327  0.17895  1.0000
  H   H1809     1.0  0.81224  0.30848  0.24774  1.0000
  S   S463      1.0  0.95450  0.43069  0.65165  1.0000
  H   H1810     1.0  0.89976  0.40040  0.21251  1.0000
  H   H1811     1.0  0.75477  0.46473  0.05506  1.0000
  H   H1812     1.0  0.99302  0.42739  0.79198  1.0000
  H   H1813     1.0  0.99345  0.44440  0.78168  1.0000
  H   H1814     1.0  0.78094  0.48358  0.01170  1.0000
  C   C1138     1.0  0.81711  0.33327  0.20930  1.0000
  C   C1139     1.0  0.78987  0.44402  0.22520  1.0000
  H   H1815     1.0  0.82095  0.33860  0.22905  1.0000
  N   N112      1.0  0.79100  0.43291  0.20829  1.0000
  H   H1816     1.0  0.95507  0.45720  0.74501  1.0000
  C   C1140     1.0  0.75677  0.35543  0.85190  1.0000
  H   H1817     1.0  0.79052  0.43991  0.82321  1.0000
  N   N113      1.0  0.98265  0.43379  0.83672  1.0000
  H   H1818     1.0  0.78582  0.42910  0.73809  1.0000
  H   H1819     1.0  0.96213  0.46516  0.24145  1.0000
  N   N114      1.0  0.91041  0.40638  0.15548  1.0000
  H   H1820     1.0  0.91922  0.42519  0.16329  1.0000
  H   H1821     1.0  0.88979  0.40122  0.15776  1.0000
  H   H1822     1.0  0.76108  0.25677  0.66281  1.0000
  C   C1141     1.0  0.79025  0.43142  0.76107  1.0000
  C   C1142     1.0  0.77550  0.31369  0.92969  1.0000
  H   H1823     1.0  0.85960  0.48216  0.94927  1.0000
  H   H1824     1.0  0.76501  0.36311  0.85473  1.0000
  H   H1825     1.0  0.87672  0.49491  0.76616  1.0000
  C   C1143     1.0  0.97435  0.45494  0.72397  1.0000
  C   C1144     1.0  0.97452  0.42046  0.85568  1.0000
  C   C1145     1.0  0.75422  0.48862  0.06530  1.0000
  C   C1146     1.0  0.89921  0.40031  0.14166  1.0000
  C   C1147     1.0  0.98570  0.47940  0.20149  1.0000
  H   H1826     1.0  0.91725  0.40382  0.20543  1.0000
  C   C1148     1.0  0.96252  0.46974  0.21221  1.0000
  H   H1827     1.0  0.98017  0.41303  0.85248  1.0000
  H   H1828     1.0  0.78866  0.44128  0.25571  1.0000
  H   H1829     1.0  0.84938  0.49354  0.88263  1.0000
  H   H1830     1.0  0.80056  0.43061  0.75464  1.0000
  H   H1831     1.0  0.79264  0.45294  0.70799  1.0000
  C   C1149     1.0  0.91083  0.42030  0.15323  1.0000
  H   H1832     1.0  0.76340  0.28967  0.97392  1.0000
  C   C1150     1.0  0.78832  0.30323  0.96565  1.0000
  H   H1833     1.0  0.79337  0.42896  0.15420  1.0000
  S   S464      1.0  0.84081  0.49657  0.14999  1.0000
  H   H1834     1.0  0.76762  0.35352  0.78366  1.0000
  H   H1835     1.0  0.96886  0.48686  0.72475  1.0000
  N   N115      1.0  0.86822  0.49502  0.89526  1.0000
  C   C1151     1.0  0.96066  0.49520  0.55522  1.0000
  C   C1152     1.0  0.87492  0.49427  0.85817  1.0000
  C   C1153     1.0  0.93916  0.48048  0.58149  1.0000
  H   H1836     1.0  0.76730  0.33102  0.05883  1.0000
  H   H1837     1.0  0.96293  0.48948  0.53438  1.0000
  H   H1838     1.0  0.85643  0.47511  0.91155  1.0000
  H   H1839     1.0  0.75822  0.26193  0.72471  1.0000
  C   C1154     1.0  0.76173  0.49509  0.99872  1.0000
  H   H1840     1.0  0.98077  0.45350  0.82888  1.0000
  H   H1841     1.0  0.87230  0.47732  0.92172  1.0000
  H   H1842     1.0  0.76019  0.34637  0.85253  1.0000
  S   S465      1.0  0.75582  0.45715  0.13192  1.0000
  H   H1843     1.0  0.97079  0.44271  0.87136  1.0000
  H   H1844     1.0  0.96052  0.49358  0.21813  1.0000
  H   H1845     1.0  0.96421  0.49132  0.57983  1.0000
  H   H1846     1.0  0.99080  0.49472  0.76349  1.0000
  H   H1847     1.0  0.88356  0.49021  0.85914  1.0000
  C   C1155     1.0  0.86396  0.48183  0.92048  1.0000
  H   H1848     1.0  0.93158  0.49930  0.53908  1.0000
  C   C1156     1.0  0.94217  0.49952  0.53217  1.0000
  C   C1157     1.0  0.89264  0.49993  0.23116  1.0000
  S   S466      1.0  0.93025  0.54430  0.33103  1.0000
  H   H1849     1.0  0.86450  0.52961  0.77821  1.0000
  Fe  Fe233     1.0  0.94954  0.54461  0.29420  1.0000
  S   S467      1.0  0.96220  0.56063  0.24439  1.0000
  Fe  Fe234     1.0  0.95033  0.53691  0.62206  1.0000
  S   S468      1.0  0.95750  0.54380  0.55936  1.0000
  Fe  Fe235     1.0  0.95847  0.53920  0.69588  1.0000
  S   S469      1.0  0.97393  0.54336  0.72956  1.0000
  S   S470      1.0  0.96286  0.52750  0.65396  1.0000
  S   S471      1.0  0.94724  0.54997  0.66136  1.0000
  H   H1850     1.0  0.90698  0.55779  0.55262  1.0000
  C   C1158     1.0  0.89374  0.51640  0.26735  1.0000
  H   H1851     1.0  0.93334  0.50133  0.60222  1.0000
  S   S472      1.0  0.90974  0.53789  0.71048  1.0000
  H   H1852     1.0  0.91307  0.57313  0.56335  1.0000
  H   H1853     1.0  0.90908  0.50693  0.25392  1.0000
  H   H1854     1.0  0.97825  0.53937  0.22712  1.0000
  H   H1855     1.0  0.94772  0.50986  0.51895  1.0000
  C   C1159     1.0  0.88125  0.51737  0.26277  1.0000
  Fe  Fe236     1.0  0.92928  0.53345  0.69163  1.0000
  S   S473      1.0  0.94006  0.52391  0.72924  1.0000
  C   C1160     1.0  0.93646  0.53097  0.53581  1.0000
  H   H1856     1.0  0.99410  0.53804  0.30586  1.0000
  C   C1161     1.0  0.98661  0.55666  0.73208  1.0000
  H   H1857     1.0  0.99004  0.57683  0.81321  1.0000
  H   H1858     1.0  0.85948  0.50985  0.87196  1.0000
  S   S474      1.0  0.94014  0.52839  0.27098  1.0000
  C   C1162     1.0  0.86900  0.51131  0.77462  1.0000
  C   C1163     1.0  0.98858  0.56950  0.71185  1.0000
  H   H1859     1.0  0.98233  0.50289  0.79314  1.0000
  N   N116      1.0  0.99603  0.58950  0.84794  1.0000
  H   H1860     1.0  0.97792  0.54287  0.27154  1.0000
  H   H1861     1.0  0.98235  0.57162  0.69341  1.0000
  C   C1164     1.0  0.93690  0.53157  0.47049  1.0000
  C   C1165     1.0  0.94990  0.53906  0.46072  1.0000
  C   C1166     1.0  0.95607  0.54264  0.48831  1.0000
  C   C1167     1.0  0.94940  0.53866  0.52593  1.0000
  H   H1862     1.0  0.95513  0.54226  0.43187  1.0000
  H   H1863     1.0  0.96607  0.54862  0.48039  1.0000
  C   C1168     1.0  0.97885  0.56874  0.23927  1.0000
  C   C1169     1.0  0.98371  0.57130  0.26959  1.0000
  C   C1170     1.0  0.99593  0.57753  0.83431  1.0000
  C   C1171     1.0  0.99858  0.57968  0.71572  1.0000
  C   C1172     1.0  0.91742  0.56299  0.62917  1.0000
  H   H1864     1.0  0.93473  0.56818  0.56401  1.0000
  H   H1865     1.0  0.97731  0.56808  0.29713  1.0000
  H   H1866     1.0  0.88640  0.54321  0.74381  1.0000
  C   C1173     1.0  0.99545  0.53053  0.28996  1.0000
  H   H1867     1.0  0.88615  0.50026  0.91253  1.0000
  S   S475      1.0  0.92484  0.51255  0.35592  1.0000
  H   H1868     1.0  0.91488  0.53759  0.63200  1.0000
  H   H1869     1.0  0.89830  0.56181  0.59258  1.0000
  H   H1870     1.0  0.92836  0.57954  0.18612  1.0000
  H   H1871     1.0  0.92858  0.55323  0.55150  1.0000
  H   H1872     1.0  0.98358  0.57130  0.17995  1.0000
  C   C1174     1.0  0.89944  0.50769  0.25112  1.0000
  S   S476      1.0  0.93185  0.52134  0.65004  1.0000
  C   C1175     1.0  0.90981  0.55666  0.20813  1.0000
  C   C1176     1.0  0.88443  0.53269  0.74857  1.0000
  H   H1873     1.0  0.92017  0.52176  0.51595  1.0000
  C   C1177     1.0  0.87886  0.50544  0.76135  1.0000
  H   H1874     1.0  0.87673  0.52408  0.27511  1.0000
  H   H1875     1.0  0.93882  0.54888  0.20783  1.0000
  H   H1876     1.0  0.94919  0.51257  0.58181  1.0000
  C   C1178     1.0  0.89159  0.51330  0.74189  1.0000
  H   H1877     1.0  0.94220  0.57264  0.18478  1.0000
  C   C1179     1.0  0.96519  0.50734  0.75218  1.0000
  C   C1180     1.0  0.87196  0.52494  0.76812  1.0000
  H   H1878     1.0  0.86484  0.51044  0.23973  1.0000
  H   H1879     1.0  0.90775  0.56166  0.64837  1.0000
  N   N117      1.0  0.92357  0.55896  0.21115  1.0000
  H   H1880     1.0  0.87845  0.50411  0.83867  1.0000
  S   S477      1.0  0.95518  0.53138  0.33878  1.0000
  H   H1881     1.0  0.90884  0.55505  0.18050  1.0000
  N   N118      1.0  0.97781  0.50428  0.73983  1.0000
  C   C1181     1.0  0.89437  0.52702  0.73541  1.0000
  C   C1182     1.0  0.99670  0.57874  0.26403  1.0000
  C   C1183     1.0  0.99485  0.55418  0.75595  1.0000
  N   N119      1.0  0.99348  0.53442  0.25226  1.0000
  C   C1184     1.0  0.98811  0.51659  0.72256  1.0000
  S   S478      1.0  0.92845  0.52704  0.43707  1.0000
  C   C1185     1.0  0.92846  0.54750  0.20552  1.0000
  C   C1186     1.0  0.93177  0.57069  0.18276  1.0000
  H   H1882     1.0  0.92804  0.54567  0.17780  1.0000
  H   H1883     1.0  0.92706  0.50086  0.29553  1.0000
  H   H1884     1.0  0.92360  0.55885  0.64624  1.0000
  H   H1885     1.0  0.98221  0.59817  0.87647  1.0000
  H   H1886     1.0  0.92206  0.57365  0.61863  1.0000
  C   C1187     1.0  0.93024  0.52755  0.50818  1.0000
  Fe  Fe237     1.0  0.94440  0.51529  0.31760  1.0000
  H   H1887     1.0  0.93451  0.56234  0.25201  1.0000
  H   H1888     1.0  0.91799  0.55242  0.27045  1.0000
  Fe  Fe238     1.0  0.92128  0.52701  0.31025  1.0000
  H   H1889     1.0  0.93120  0.52783  0.56460  1.0000
  H   H1890     1.0  0.90343  0.54781  0.22929  1.0000
  H   H1891     1.0  0.93157  0.56952  0.15430  1.0000
  H   H1892     1.0  0.99367  0.52671  0.20386  1.0000
  S   S479      1.0  0.85296  0.50259  0.80116  1.0000
  C   C1188     1.0  0.92431  0.56096  0.24832  1.0000
  H   H1893     1.0  0.92248  0.53846  0.22649  1.0000
  H   H1894     1.0  0.92096  0.56969  0.25331  1.0000
  C   C1189     1.0  0.98726  0.57316  0.20362  1.0000
  Fe  Fe239     1.0  0.93519  0.52979  0.37431  1.0000
  N   N120      1.0  0.91605  0.55645  0.59863  1.0000
  H   H1895     1.0  0.96648  0.50553  0.54327  1.0000
  C   C1190     1.0  0.90825  0.56258  0.57578  1.0000
  H   H1896     1.0  0.90573  0.56505  0.21254  1.0000
  S   S480      1.0  0.90190  0.52651  0.29273  1.0000
  H   H1897     1.0  0.89943  0.54106  0.63212  1.0000
  H   H1898     1.0  0.98930  0.52286  0.74257  1.0000
  H   H1899     1.0  0.96235  0.51280  0.72844  1.0000
  C   C1191     1.0  0.90935  0.54245  0.61420  1.0000
  C   C1192     1.0  0.97996  0.53576  0.25490  1.0000
  Fe  Fe240     1.0  0.94404  0.51309  0.68539  1.0000
  H   H1900     1.0  0.85169  0.50147  0.91936  1.0000
  C   C1193     1.0  0.88008  0.50079  0.22685  1.0000
  H   H1901     1.0  0.98568  0.52246  0.69853  1.0000
  H   H1902     1.0  0.99779  0.51468  0.71286  1.0000
  C   C1194     1.0  0.92919  0.55776  0.57541  1.0000
  H   H1903     1.0  0.96575  0.51357  0.77244  1.0000
  H   H1904     1.0  0.89916  0.50879  0.73169  1.0000
  H   H1905     1.0  0.90827  0.53712  0.59204  1.0000
  H   H1906     1.0  0.93522  0.55291  0.59154  1.0000
  H   H1907     1.0  0.98832  0.52114  0.30597  1.0000
  C   C1195     1.0  0.98249  0.58930  0.86565  1.0000
  H   H1908     1.0  0.98882  0.51458  0.24697  1.0000
  H   H1909     1.0  0.99625  0.60063  0.79407  1.0000
  H   H1910     1.0  0.99347  0.54431  0.77179  1.0000
  H   H1911     1.0  0.97614  0.58893  0.84563  1.0000
  H   H1912     1.0  0.87251  0.50458  0.93811  1.0000
  H   H1913     1.0  0.97256  0.52628  0.26835  1.0000
  C   C1196     1.0  0.87730  0.50383  0.91004  1.0000
  C   C1197     1.0  0.99551  0.52430  0.23200  1.0000
  H   H1914     1.0  0.88064  0.51389  0.89173  1.0000
  C   C1198     1.0  0.87446  0.50962  0.24272  1.0000
  H   H1915     1.0  0.76650  0.50522  0.99955  1.0000
  H   H1916     1.0  0.99189  0.56853  0.85716  1.0000
  H   H1917     1.0  0.97408  0.50134  0.68782  1.0000
  H   H1918     1.0  0.97778  0.50124  0.20759  1.0000
  H   H1919     1.0  0.97805  0.58061  0.88936  1.0000
  C   C1199     1.0  0.94398  0.50203  0.59312  1.0000
  C   C1200     1.0  0.85669  0.50020  0.89230  1.0000
  H   H1920     1.0  0.99994  0.58957  0.70008  1.0000
