data_image0
_chemical_formula_structural       CS2HSHFeHSHC5FeS2CFeHCSCHSN2C3H5CHC2H2SHCH2C2HCH3C6H4C6H4CH4FeH3FeHSH3FeNCHSCHCSCHCH4NH4CFeHC3H5CHCH3CH3CH2CH2CSFeCFeHCH2FeHSCHCH2NSFeS2FeS2FeSFeS3FeS2FeS2FeSFeS3FeS2FeS2FeSFeS3HC2FeCS2HSC2FeS2FeS2FeSFeS3FeS2FeS2FeSFeS3FeS2FeS2FeSFeS3FeNSFeS2FeSHS2FeHSH3CSHCHFe2S2HS3HFeSHSFeSFeS3HC4HSH5C3SH5FeS3H2C6H2CHCHC2HCH2C6H4C6H4C6H4C6H4C6H4C2HC3H4C6H4C3HC2H2FeHC6H4C6H4C6H4C6H4C6H4C6H4C6H6SH4CH2C6H3C7H5NC4H13SCH3NC2HCNH5NC4H12NC4H12NC3H11C2HFeH6SH2CH3NC4H12NC4H12FeHFeH4C2H4SCH3NCHFeH2C2H7CH2NSH2SCH2SCSCH3FeHCH4CHC2NC2NHC2H4CH3NHCHCHC2H2CH12C3HNH4NCHFeH2SH2CH4FeCH2CH2CHNCH5C2HCHNC2H5C3H2FeHCH2CHCH5CH6C2NHCNSCSNH3C2H5SH2SC2H3CH2CSH4S2HC3H2CH2SCH2CHC3HCHCHNHCH3C3H2CSC2HCH2SH3CH2SH2C2SH4CFeS2FeSHFeSFeS3FeS2FeS2FeSFeS3C6H4CHCHCH4C2HC2HC3H2C6H5C4H4C3NHC2HCH6CH4CHCHNSCNC4H10CHCHCH2CHNH3CHCHCHNH7CH8NCHCHCHCH2CHSC2HFeS2FeS3HFeSHFeS2FeS2FeSFeS3FeS2FeS2FeSFeS3FeHSH2SFeS2FeS2FeSFeS3FeS2FeS2FeSFeS3FeS2FeCS2FeS2FeS2FeSFeS3FeH8CFeS2FeS2FeSFeS3FeS2FeS2FeSFeS3CH3CHSH3FeS2FeS2FeSFeS3C6NH3C6H4C6H4C6H15C6H4C6H4C6H5CH2C6H4C6HNH2C6H4C6H4C6H4C6H4C6H4C6H4C6H4C6H4C6H4C6H4C5H5C6H4C6H5NC4H12NC4H12NHNSHC2HSH3FeH3NC4H12NC4H12NC4H12NC3NC2H2CHSCH4CNHC2H6C2H3CH7CNCH2NH3C2H3NC2HCH10CH4N2H2FeCH3CHCH2FeHCHFeC2HCHCHCH3SH3CH3NSCSHC2NCH3CSH4C2H2SHCH2CH3CHCNCHCHCHCH6NH4SCHCH2CHC2HCH6CH4FeH2NFeSFeCSH2FeCH2C2S2H3CHSHCFeCHSFeCNC2HCH5CHC2H5FeSH3CSCH5SH4NS2HCHFeCNH3CHCHCH2C2H7CH2C2H5FeSHCH2SHC3HSHCH3CSHCH2CHSHCNH3CHSH3CH3C2HC4HSCH4FeH2SHCHNFeHC4SCS2H3SC2H6CSH3CHCH6FeCHCFeSH2CH2SH3Fe2H7CH7CH2SH3CFeHC2H3NC2HSCH2C3HS3HS2HC2FeS2FeS3C3HCH2CH2SFeHFeS3HFeS4FeSH2CH3SHNHFeSH2FeS2FeS2FeSFeS3FeS2FeS2FeSFeS3FeS2FeS2FeSFeS3FeS2FeS2FeSFeS3FeS2FeS2FeSFeS3FeS2FeS2FeSFeS3HSFeSHFeSNHFeHC6H4C6H4C6H4C6H4C6H4C6H4C6H4C6H4C6H5SHC2FeH4C6H4C6H5C6H6C6H4C6H4C6H4CSH5SH3CH3C6H4C4H3CHC7H4C2H6FeCH2CH3CH3CNH3NFeHCH9C2HC3H9CH2CHCHNC3H3C2HSH2CHC2H3C2H2NC4H12CH2CH10CH4C2H3CSH2NHFeHCH2NC4H12NC4H4CH4CH2NC4H13CH2CH4FeSFeHC2HNHCH3C3HNHSH3CNH2FeHSHC2H3FeH8NSHCHCH2CHCHCH2S2H2SH4FeCHSNH2CHCH2CNSCHS2H2CHFeH6CHNCH3CSH2FeH3CH3NHCHCNH2C2H2CSH3CH2C2HC2HCHNCH3CH4CH4NH7C2H4C2FeSHSFeS2FeSCFeSFeS3FeS2FeS2Fe2S3FeSFeSFeS3FeS2FeHSFeSFeHS2FeS2FeS2FeSFeS3FeS2FeS2FeSFeS3FeSFeS2FeSFeS3FeS2FeS2FeSFeS3FeS2FeS2FeSFeS3FeS2FeS2FeSFeS3FeS2HSCH2FeSCS2H4C6H4C6H5C6H4C6H4C6H4C6H4C6H4C6H4C6H4SHCHCH3C2H4C6H4C6H4C6H4C6H4C6H4C6H4C6H4SH4CHFeC6H4C3H4SC3FeNH2SCNC4H16NC2H8NC4H12NC4H12NC4H14CH19FeH6C2SCHC2H4CHSCHC2HN2C3NH2FeSCHCH2C2HSC3H3CHN2H6NC2HSHCH4C2H2CH4NHCH2CHCNCH4CHCHCH2CHFeH3CHCH2FeH3CNHC4H2SH2CH4C2H6C2H4SHS2H3SNH2C2H3C2H2NCH2CH2CH4CH5NHC2H4CHC2H10NSHCH9C5H6NH2NCHCHCH3CHCHCHCH2C3H2C2H3CHCH5NH2FeCH5SHC3H4CHCH2FeH3SHFeS2FeSHFeHFeS3FeS2FeS2FeSFeS3FeS2FeS2FeSFeS3FeS2FeS2FeSFeS3FeSHFeS2FeHFeS3FeS2FeS2FeSFeS3FeS2FeS2FeSFeS3FeS2FeS2FeSFeHS3FeS2FeS2FeSFeS3FeS2FeS2FeCFeS3HFeS2FeS2FeSFeS3FeS2FeS2FeSFeS3HCH3C6H5C3H4CHC6H4CHC6H4C6H6C4H3CHFeCNH2CHSH3CHCH2CH2C6H4C6H4C6H4C6H4SC6H4C6H6C6H3C7H4C6H4C6H4C6H4C6H4C6H4CH2C3NH3C6H4C6H4NCSH5N2C3H10NC4H12C2H3C2HCHCSHNC4H12NC3H9NC4H12NC2HNCH2CH2CNH4C2HCH2CH6CHCH5C2NH2CH2C4H2C2NSC2H2CH2C2H2NH3CH8C2H2CH10CH2CHNC2HCH3CH3CH5CNCH2NCH4CH4CH2C2H2CH5CNCH2CH3C2HC2H2CH4CNH2NH5C2HCHC2H2CH5CH3CNC2H2CH3SH11NH2CH3CHC2NH4NHC4H6CH2CHC2H4CSHCHCHCH7CHCH5CH4NHCH7FeCH3C3H2CH3CH2CHC2H4C3HCH3CH2C3H2CH2NCHC2NCH4NH2SHCHCHCH3CHCH5CHCHSH3SHCHC2H4C2HNH2CH4CSHCH2SCHC2FeH2SHCSH4CHC3H6SCSCH3CH2NH4CSH2SHCH2SH2CHSHFeHCHSFeCSFeHSH6FeHCH2CHCHC2H2CH2Fe2S2H3C2HS2CH2FeS2H2FeSHSHC3HCH10CH3CH2N2C9H3C2HC3H7NH4CHSH2C2H3FeH2FeS2HCFeSCSHCHFeS2H3CH4C2HFeC2HNH2CSCNH2CNHCHCHC2SCH2CH2CSCHSC2HCH3FeH2CHC2FeNCHSH2C2H4SHCH2CH3CHFeHSHC2H3CHC2H2CHCHCHSCS2H2SC2SFeHFeS2FeSFeSFeS3FeS2FeS2FeSFeHS2FeS2CHCH3FeS2FeS2FeSFeS3FeS2FeCSFeHFeS3FeS2FeS2FeSFeS3FeS2FeS2FeSFeS3FeS2FeS2FeHFeS3FeS2FeS2FeSFeS3FeS2FeS2FeSFeS3FeS2FeS2FeSFeS3NCHFeC6H5CHC6H4C3H2CH2C6H4C6H4C6H4C6H4C6H4SH2NH2CHC3HC4H3C6H4CH4C6H4C6H4C6H4C6H4C6H4CSCHC3H8C6H4C6H4C7H3CFeHC7H6NC4H13FeHCNC2H6CH5SHSCHCH2FeH3SHCHNC4H12NC4H4C2H6NC4H12NC4H11NC2HCH3CH2C2FeHC2NC4H12C3HNCH2CH3CHCH3SHNC4H7CH6NH5SCHC2NCH6SH3NCH6NCH2CH4CH2CH7CNH4CSH2NH6CH2C2HCH3C3H2CH4CFeH2CHCSHCH5NCH2FeHNSCH4SH6CH2FeCHC2HCH2NH3CHNHCHCH2FeCH2CSHCH6SH2S2HC3H2C3H3CHSNCH2CH9CH3C2H2FeHSHCHSH5SHSHCHSHCHSCH3CHSHCNCHCHSH2CHFeCH2NCH8C2HC3H2CH2CHCNCH5C2H4CH
_chemical_formula_sum              "C1680 S672 H2688 Fe336 N168"
_cell_length_a       144.956
_cell_length_b       144.346
_cell_length_c       35.6675
_cell_angle_alpha    74.9756
_cell_angle_beta     74.8755
_cell_angle_gamma    99.4728

_space_group_name_H-M_alt    "P 1"
_space_group_IT_number       1

loop_
  _space_group_symop_operation_xyz
  'x, y, z'

loop_
  _atom_site_type_symbol
  _atom_site_label
  _atom_site_symmetry_multiplicity
  _atom_site_fract_x
  _atom_site_fract_y
  _atom_site_fract_z
  _atom_site_occupancy
  C   C1        1.0  0.02475  0.49952  0.73215  1.0000
  S   S1        1.0  0.06040  0.48900  0.31077  1.0000
  S   S2        1.0  0.05855  0.49507  0.81538  1.0000
  H   H1        1.0  0.00997  0.47925  0.81960  1.0000
  S   S3        1.0  0.06837  0.49752  0.99485  1.0000
  H   H2        1.0  0.02689  0.49230  0.37905  1.0000
  Fe  Fe1       1.0  0.00862  0.45532  0.35909  1.0000
  H   H3        1.0  0.07428  0.49602  0.12574  1.0000
  S   S4        1.0  0.02428  0.45428  0.33209  1.0000
  H   H4        1.0  0.01568  0.44128  0.41720  1.0000
  C   C2        1.0  0.00734  0.45667  0.58073  1.0000
  C   C3        1.0  0.00515  0.45738  0.51431  1.0000
  C   C4        1.0  0.02567  0.47616  0.87526  1.0000
  C   C5        1.0  0.07541  0.50109  0.02506  1.0000
  C   C6        1.0  0.09211  0.48704  0.96257  1.0000
  Fe  Fe2       1.0  0.01865  0.46132  0.74594  1.0000
  S   S5        1.0  0.01889  0.47180  0.68658  1.0000
  S   S6        1.0  0.03114  0.46155  0.77518  1.0000
  C   C7        1.0  0.01730  0.44493  0.43951  1.0000
  Fe  Fe3       1.0  0.07022  0.49757  0.84765  1.0000
  H   H5        1.0  0.01814  0.50268  0.60980  1.0000
  C   C8        1.0  0.01693  0.47830  0.82593  1.0000
  S   S7        1.0  0.01548  0.45842  0.60924  1.0000
  C   C9        1.0  0.03473  0.44608  0.41386  1.0000
  H   H6        1.0  0.10242  0.50499  0.95764  1.0000
  S   S8        1.0  0.01164  0.44786  0.73202  1.0000
  N   N1        1.0  0.02591  0.44248  0.45083  1.0000
  N   N2        1.0  0.10178  0.48949  0.96890  1.0000
  C   C10       1.0  0.01795  0.50240  0.39109  1.0000
  C   C11       1.0  0.01799  0.49451  0.71789  1.0000
  C   C12       1.0  0.00785  0.49310  0.73609  1.0000
  H   H7        1.0  0.01053  0.44257  0.46669  1.0000
  H   H8        1.0  0.01017  0.46133  0.88822  1.0000
  H   H9        1.0  0.03656  0.45428  0.40016  1.0000
  H   H10       1.0  0.02069  0.49179  0.69276  1.0000
  H   H11       1.0  0.03260  0.50068  0.71783  1.0000
  C   C13       1.0  0.01354  0.48579  0.87941  1.0000
  H   H12       1.0  0.01136  0.47976  0.55828  1.0000
  C   C14       1.0  0.01421  0.48201  0.58154  1.0000
  C   C15       1.0  0.02015  0.49906  0.53812  1.0000
  H   H13       1.0  0.12353  0.49018  0.84791  1.0000
  H   H14       1.0  0.02289  0.48489  0.80520  1.0000
  S   S9        1.0  0.08915  0.49418  0.22886  1.0000
  H   H15       1.0  0.01930  0.49271  0.85982  1.0000
  C   C16       1.0  0.10030  0.48762  0.01310  1.0000
  H   H16       1.0  0.10741  0.48963  0.01903  1.0000
  H   H17       1.0  0.01361  0.49005  0.64169  1.0000
  C   C17       1.0  0.07721  0.49935  0.09280  1.0000
  C   C18       1.0  0.01127  0.45909  0.53797  1.0000
  H   H18       1.0  0.02537  0.47513  0.90758  1.0000
  C   C19       1.0  0.02396  0.43162  0.46872  1.0000
  H   H19       1.0  0.12303  0.50526  0.31969  1.0000
  H   H20       1.0  0.05005  0.50609  0.27631  1.0000
  H   H21       1.0  0.03028  0.42948  0.47795  1.0000
  C   C20       1.0  0.05160  0.48562  0.80228  1.0000
  C   C21       1.0  0.04600  0.48834  0.77618  1.0000
  C   C22       1.0  0.04000  0.48114  0.76643  1.0000
  C   C23       1.0  0.03932  0.47105  0.78327  1.0000
  C   C24       1.0  0.04506  0.46834  0.80877  1.0000
  C   C25       1.0  0.05115  0.47554  0.81822  1.0000
  H   H22       1.0  0.04623  0.49608  0.76360  1.0000
  H   H23       1.0  0.03579  0.48340  0.74627  1.0000
  H   H24       1.0  0.04471  0.46058  0.82176  1.0000
  H   H25       1.0  0.05539  0.47328  0.83825  1.0000
  C   C26       1.0  0.05038  0.47988  0.31259  1.0000
  C   C27       1.0  0.04124  0.47835  0.34207  1.0000
  C   C28       1.0  0.03312  0.47086  0.34670  1.0000
  C   C29       1.0  0.03410  0.46456  0.32282  1.0000
  C   C30       1.0  0.04328  0.46603  0.29341  1.0000
  C   C31       1.0  0.05137  0.47377  0.28782  1.0000
  H   H26       1.0  0.04044  0.48289  0.36191  1.0000
  H   H27       1.0  0.02623  0.46977  0.36992  1.0000
  H   H28       1.0  0.04415  0.46114  0.27500  1.0000
  H   H29       1.0  0.05842  0.47479  0.26535  1.0000
  C   C32       1.0  0.01123  0.50120  0.78432  1.0000
  H   H30       1.0  0.01728  0.42866  0.49642  1.0000
  H   H31       1.0  0.01873  0.47179  0.81717  1.0000
  H   H32       1.0  0.09543  0.49201  0.02590  1.0000
  H   H33       1.0  0.04134  0.44412  0.42083  1.0000
  Fe  Fe4       1.0  0.07469  0.49730  0.25897  1.0000
  H   H34       1.0  0.02901  0.45548  0.46868  1.0000
  H   H35       1.0  0.01911  0.46225  0.52315  1.0000
  H   H36       1.0  0.02270  0.42780  0.44639  1.0000
  Fe  Fe5       1.0  0.07470  0.50032  0.92620  1.0000
  H   H37       1.0  0.15439  0.50096  0.67422  1.0000
  S   S10       1.0  0.07631  0.48880  0.89401  1.0000
  H   H38       1.0  0.01284  0.48513  0.91185  1.0000
  H   H39       1.0  0.02180  0.48087  0.57638  1.0000
  H   H40       1.0  0.10919  0.48451  0.92017  1.0000
  Fe  Fe6       1.0  0.01064  0.45865  0.67527  1.0000
  N   N3        1.0  0.01408  0.49234  0.57939  1.0000
  C   C33       1.0  0.10797  0.48325  0.95348  1.0000
  H   H41       1.0  0.09298  0.48819  0.92964  1.0000
  S   S11       1.0  0.10539  0.49447  0.84446  1.0000
  C   C34       1.0  0.10674  0.50004  0.94627  1.0000
  H   H42       1.0  0.14011  0.50048  0.83439  1.0000
  C   C35       1.0  0.00837  0.46800  0.89560  1.0000
  S   S12       1.0  0.00578  0.46510  0.39809  1.0000
  C   C36       1.0  0.01438  0.49028  0.35726  1.0000
  H   H43       1.0  0.06429  0.49214  0.08215  1.0000
  C   C37       1.0  0.02042  0.49481  0.37586  1.0000
  H   H44       1.0  0.00828  0.45925  0.48152  1.0000
  H   H45       1.0  0.14266  0.50022  0.70948  1.0000
  H   H46       1.0  0.08729  0.49174  0.97295  1.0000
  H   H47       1.0  0.11535  0.48490  0.95754  1.0000
  N   N4        1.0  0.01612  0.47706  0.86914  1.0000
  H   H48       1.0  0.01633  0.48442  0.34555  1.0000
  H   H49       1.0  0.03354  0.44292  0.38957  1.0000
  H   H50       1.0  0.03167  0.48291  0.85573  1.0000
  H   H51       1.0  0.09674  0.47969  0.03101  1.0000
  C   C38       1.0  0.02763  0.44728  0.48116  1.0000
  Fe  Fe7       1.0  0.09117  0.49942  0.85570  1.0000
  H   H52       1.0  0.01868  0.45304  0.42468  1.0000
  C   C39       1.0  0.07157  0.49715  0.06798  1.0000
  C   C40       1.0  0.12488  0.49816  0.83725  1.0000
  C   C41       1.0  0.11717  0.50251  0.83208  1.0000
  H   H53       1.0  0.02114  0.44468  0.50960  1.0000
  H   H54       1.0  0.00859  0.50320  0.81160  1.0000
  H   H55       1.0  0.03414  0.44568  0.49018  1.0000
  H   H56       1.0  0.02581  0.49414  0.60551  1.0000
  H   H57       1.0  0.02794  0.46975  0.86699  1.0000
  C   C42       1.0  0.08678  0.50549  0.07483  1.0000
  H   H58       1.0  0.05698  0.50474  0.35113  1.0000
  C   C43       1.0  0.00955  0.50555  0.38683  1.0000
  H   H59       1.0  0.08806  0.47919  0.97973  1.0000
  H   H60       1.0  0.02792  0.49844  0.53074  1.0000
  H   H61       1.0  0.10444  0.47523  0.96962  1.0000
  C   C44       1.0  0.01812  0.49493  0.61034  1.0000
  H   H62       1.0  0.00754  0.46679  0.92854  1.0000
  H   H63       1.0  0.10767  0.50176  0.91302  1.0000
  H   H64       1.0  0.01728  0.49737  0.51390  1.0000
  C   C45       1.0  0.02138  0.50295  0.76513  1.0000
  H   H65       1.0  0.00957  0.47672  0.61215  1.0000
  H   H66       1.0  0.04465  0.50058  0.35145  1.0000
  C   C46       1.0  0.13432  0.50402  0.82937  1.0000
  H   H67       1.0  0.00644  0.48680  0.87451  1.0000
  H   H68       1.0  0.11420  0.50208  0.94922  1.0000
  C   C47       1.0  0.00447  0.49639  0.76950  1.0000
  S   S13       1.0  0.10880  0.50583  0.27651  1.0000
  Fe  Fe8       1.0  0.08949  0.50606  0.17209  1.0000
  C   C48       1.0  0.14891  0.50526  0.68247  1.0000
  Fe  Fe9       1.0  0.09668  0.50678  0.24614  1.0000
  H   H69       1.0  0.15107  0.50629  0.75442  1.0000
  C   C49       1.0  0.00589  0.49335  0.35378  1.0000
  H   H70       1.0  0.02027  0.50694  0.53570  1.0000
  H   H71       1.0  0.16275  0.50671  0.71960  1.0000
  Fe  Fe10      1.0  0.08318  0.51940  0.22076  1.0000
  H   H72       1.0  0.05183  0.51224  0.83810  1.0000
  S   S14       1.0  0.07918  0.53380  0.21715  1.0000
  C   C50       1.0  0.01569  0.52941  0.67575  1.0000
  H   H73       1.0  0.07573  0.58668  0.23691  1.0000
  C   C51       1.0  0.11347  0.52447  0.41819  1.0000
  H   H74       1.0  0.16493  0.52753  0.65943  1.0000
  H   H75       1.0  0.23398  0.65243  0.09071  1.0000
  N   N5        1.0  0.06335  0.57559  0.24053  1.0000
  S   S15       1.0  0.09809  0.51828  0.18751  1.0000
  Fe  Fe11      1.0  0.15154  0.54031  0.43453  1.0000
  S   S16       1.0  0.16449  0.55342  0.40348  1.0000
  S   S17       1.0  0.14606  0.53400  0.50438  1.0000
  Fe  Fe12      1.0  0.14597  0.54158  0.35457  1.0000
  S   S18       1.0  0.15878  0.55486  0.31842  1.0000
  S   S19       1.0  0.13454  0.53948  0.32104  1.0000
  Fe  Fe13      1.0  0.16771  0.54696  0.35210  1.0000
  S   S20       1.0  0.18368  0.54850  0.31718  1.0000
  Fe  Fe14      1.0  0.15467  0.56030  0.37202  1.0000
  S   S21       1.0  0.15313  0.57587  0.36255  1.0000
  S   S22       1.0  0.15529  0.53301  0.38511  1.0000
  S   S23       1.0  0.14135  0.54772  0.40664  1.0000
  Fe  Fe15      1.0  0.17788  0.61578  0.41901  1.0000
  S   S24       1.0  0.17899  0.62612  0.35859  1.0000
  S   S25       1.0  0.18227  0.60163  0.42018  1.0000
  Fe  Fe16      1.0  0.17082  0.62929  0.46609  1.0000
  S   S26       1.0  0.17143  0.64084  0.40800  1.0000
  S   S27       1.0  0.16367  0.62837  0.53263  1.0000
  Fe  Fe17      1.0  0.16427  0.62797  0.39105  1.0000
  S   S28       1.0  0.15179  0.62868  0.36201  1.0000
  Fe  Fe18      1.0  0.18619  0.63785  0.38029  1.0000
  S   S29       1.0  0.20099  0.64643  0.33144  1.0000
  S   S30       1.0  0.16275  0.61676  0.45059  1.0000
  S   S31       1.0  0.18588  0.62714  0.43936  1.0000
  Fe  Fe19      1.0  0.09919  0.57134  0.30411  1.0000
  S   S32       1.0  0.09660  0.57600  0.36023  1.0000
  S   S33       1.0  0.10261  0.55659  0.30632  1.0000
  Fe  Fe20      1.0  0.09678  0.59031  0.25222  1.0000
  S   S34       1.0  0.09427  0.59680  0.30464  1.0000
  S   S35       1.0  0.09574  0.59719  0.18855  1.0000
  Fe  Fe21      1.0  0.10694  0.59073  0.31887  1.0000
  S   S36       1.0  0.11944  0.59477  0.34571  1.0000
  Fe  Fe22      1.0  0.08433  0.58159  0.34232  1.0000
  S   S37       1.0  0.06905  0.57778  0.38893  1.0000
  S   S38       1.0  0.11011  0.58553  0.26316  1.0000
  S   S39       1.0  0.08610  0.57573  0.28982  1.0000
  H   H76       1.0  0.12427  0.62711  0.52179  1.0000
  C   C52       1.0  0.06032  0.53504  0.99615  1.0000
  C   C53       1.0  0.22781  0.59792  0.01869  1.0000
  Fe  Fe23      1.0  0.08271  0.51706  0.84579  1.0000
  C   C54       1.0  0.05266  0.57202  0.26307  1.0000
  S   S40       1.0  0.08502  0.53340  0.81983  1.0000
  S   S41       1.0  0.03192  0.53689  0.76018  1.0000
  H   H77       1.0  0.04911  0.56594  0.25373  1.0000
  S   S42       1.0  0.02527  0.50791  0.41560  1.0000
  C   C55       1.0  0.13652  0.62248  0.46270  1.0000
  C   C56       1.0  0.23501  0.65834  0.76416  1.0000
  Fe  Fe24      1.0  0.16698  0.54884  0.67560  1.0000
  S   S43       1.0  0.15158  0.54648  0.71692  1.0000
  S   S44       1.0  0.17127  0.54887  0.60942  1.0000
  Fe  Fe25      1.0  0.17660  0.55144  0.74234  1.0000
  S   S45       1.0  0.16180  0.54886  0.78870  1.0000
  S   S46       1.0  0.19119  0.55305  0.75718  1.0000
  Fe  Fe26      1.0  0.15627  0.53678  0.76503  1.0000
  S   S47       1.0  0.14851  0.52107  0.80628  1.0000
  Fe  Fe27      1.0  0.15849  0.55878  0.73662  1.0000
  S   S48       1.0  0.15174  0.57123  0.74645  1.0000
  S   S49       1.0  0.17137  0.53841  0.72261  1.0000
  S   S50       1.0  0.17356  0.56205  0.69117  1.0000
  Fe  Fe28      1.0  0.17865  0.63617  0.72371  1.0000
  S   S51       1.0  0.17507  0.64213  0.77766  1.0000
  S   S52       1.0  0.18252  0.64393  0.65513  1.0000
  Fe  Fe29      1.0  0.17908  0.61642  0.77677  1.0000
  S   S53       1.0  0.17552  0.62055  0.83382  1.0000
  S   S54       1.0  0.18289  0.60199  0.77728  1.0000
  Fe  Fe30      1.0  0.16431  0.62705  0.81055  1.0000
  S   S55       1.0  0.14938  0.62294  0.86001  1.0000
  Fe  Fe31      1.0  0.18665  0.63510  0.79745  1.0000
  S   S56       1.0  0.19792  0.63803  0.83106  1.0000
  S   S57       1.0  0.16712  0.62182  0.75553  1.0000
  S   S58       1.0  0.19090  0.63032  0.74136  1.0000
  Fe  Fe32      1.0  0.09644  0.56448  0.94541  1.0000
  S   S59       1.0  0.09126  0.57447  0.90045  1.0000
  S   S60       1.0  0.10395  0.55289  0.93012  1.0000
  Fe  Fe33      1.0  0.08836  0.57294  0.01402  1.0000
  S   S61       1.0  0.08215  0.58329  0.97390  1.0000
  S   S62       1.0  0.08727  0.56948  0.08154  1.0000
  Fe  Fe34      1.0  0.07709  0.57040  0.95221  1.0000
  S   S63       1.0  0.06160  0.56326  0.95262  1.0000
  Fe  Fe35      1.0  0.09696  0.58616  0.92551  1.0000
  S   S64       1.0  0.10659  0.60049  0.87683  1.0000
  S   S65       1.0  0.08221  0.55993  0.99625  1.0000
  S   S66       1.0  0.10323  0.57638  0.96674  1.0000
  Fe  Fe36      1.0  0.23933  0.60830  0.15087  1.0000
  N   N6        1.0  0.17561  0.53403  0.87153  1.0000
  S   S67       1.0  0.23938  0.61219  0.08557  1.0000
  Fe  Fe37      1.0  0.22733  0.59757  0.24113  1.0000
  S   S68       1.0  0.23838  0.60587  0.26249  1.0000
  S   S69       1.0  0.21178  0.59048  0.28488  1.0000
  Fe  Fe38      1.0  0.23862  0.61923  0.21321  1.0000
  S   S70       1.0  0.23542  0.63281  0.22770  1.0000
  H   H78       1.0  0.06660  0.53826  0.80563  1.0000
  S   S71       1.0  0.22699  0.61122  0.19473  1.0000
  S   S72       1.0  0.23890  0.59385  0.19519  1.0000
  Fe  Fe39      1.0  0.25004  0.68733  0.25756  1.0000
  H   H79       1.0  0.23015  0.63032  0.05440  1.0000
  S   S73       1.0  0.23584  0.68227  0.31187  1.0000
  H   H80       1.0  0.07442  0.52966  0.75829  1.0000
  H   H81       1.0  0.01790  0.51734  0.65211  1.0000
  H   H82       1.0  0.06507  0.56109  0.23987  1.0000
  C   C57       1.0  0.14586  0.51958  0.70170  1.0000
  S   S74       1.0  0.00472  0.51331  0.49228  1.0000
  H   H83       1.0  0.23643  0.64075  0.00886  1.0000
  C   C58       1.0  0.10170  0.51969  0.38531  1.0000
  H   H84       1.0  0.14897  0.52624  0.70886  1.0000
  Fe  Fe40      1.0  0.01854  0.54042  0.42994  1.0000
  Fe  Fe41      1.0  0.23734  0.67392  0.89045  1.0000
  S   S75       1.0  0.23404  0.66228  0.95099  1.0000
  S   S76       1.0  0.22779  0.67375  0.84807  1.0000
  H   H85       1.0  0.23477  0.65659  0.73580  1.0000
  S   S77       1.0  0.25338  0.67387  0.86767  1.0000
  S   S78       1.0  0.24067  0.59715  0.92109  1.0000
  S   S79       1.0  0.00934  0.52296  0.79888  1.0000
  H   H86       1.0  0.16769  0.51682  0.64692  1.0000
  Fe  Fe42      1.0  0.23907  0.67464  0.97387  1.0000
  S   S80       1.0  0.23093  0.67444  0.03733  1.0000
  H   H87       1.0  0.16209  0.52607  0.92011  1.0000
  S   S81       1.0  0.24096  0.68652  0.91544  1.0000
  Fe  Fe43      1.0  0.22702  0.58476  0.95234  1.0000
  S   S82       1.0  0.22208  0.57864  0.02134  1.0000
  Fe  Fe44      1.0  0.22286  0.58451  0.87154  1.0000
  S   S83       1.0  0.20959  0.58044  0.84931  1.0000
  S   S84       1.0  0.23099  0.61975  0.86746  1.0000
  S   S85       1.0  0.21807  0.59228  0.91796  1.0000
  H   H88       1.0  0.09445  0.51772  0.46514  1.0000
  C   C59       1.0  0.23951  0.64190  0.90998  1.0000
  C   C60       1.0  0.23417  0.63541  0.89559  1.0000
  C   C61       1.0  0.23720  0.62699  0.89045  1.0000
  C   C62       1.0  0.24545  0.62491  0.90111  1.0000
  H   H89       1.0  0.23722  0.64848  0.91263  1.0000
  S   S86       1.0  0.01239  0.52078  0.57916  1.0000
  H   H90       1.0  0.22771  0.63698  0.88803  1.0000
  H   H91       1.0  0.11341  0.53807  0.34992  1.0000
  H   H92       1.0  0.18837  0.52803  0.86652  1.0000
  H   H93       1.0  0.24933  0.65579  0.82628  1.0000
  H   H94       1.0  0.25234  0.61022  0.98451  1.0000
  C   C63       1.0  0.24466  0.68040  0.07251  1.0000
  C   C64       1.0  0.23725  0.68273  0.05595  1.0000
  C   C65       1.0  0.23424  0.69139  0.05739  1.0000
  S   S87       1.0  0.25113  0.61763  0.16501  1.0000
  H   H95       1.0  0.14288  0.52209  0.67606  1.0000
  H   H96       1.0  0.24690  0.67362  0.07208  1.0000
  H   H97       1.0  0.23177  0.65275  0.04338  1.0000
  H   H98       1.0  0.16065  0.51750  0.73312  1.0000
  H   H99       1.0  0.06685  0.51959  0.75001  1.0000
  Fe  Fe45      1.0  0.02430  0.52137  0.79979  1.0000
  S   S88       1.0  0.23658  0.59686  0.83402  1.0000
  S   S89       1.0  0.23092  0.57597  0.90953  1.0000
  S   S90       1.0  0.04437  0.54919  0.82177  1.0000
  H   H100      1.0  0.22634  0.59995  0.98981  1.0000
  H   H101      1.0  0.13215  0.62219  0.44133  1.0000
  C   C66       1.0  0.18307  0.61577  0.67176  1.0000
  C   C67       1.0  0.23170  0.60532  0.03312  1.0000
  C   C68       1.0  0.23359  0.60278  0.07052  1.0000
  C   C69       1.0  0.23147  0.59281  0.09379  1.0000
  C   C70       1.0  0.22768  0.58539  0.07904  1.0000
  C   C71       1.0  0.22592  0.58794  0.04132  1.0000
  H   H102      1.0  0.23310  0.59082  0.12229  1.0000
  H   H103      1.0  0.22651  0.57767  0.09590  1.0000
  C   C72       1.0  0.24578  0.64219  0.21935  1.0000
  H   H104      1.0  0.00701  0.54853  0.63254  1.0000
  C   C73       1.0  0.23224  0.64772  0.07198  1.0000
  H   H105      1.0  0.06896  0.53329  0.90072  1.0000
  C   C74       1.0  0.16165  0.52055  0.65468  1.0000
  C   C75       1.0  0.24470  0.64921  0.23972  1.0000
  H   H106      1.0  0.23635  0.65493  0.83981  1.0000
  C   C76       1.0  0.06061  0.53130  0.82083  1.0000
  H   H107      1.0  0.00739  0.51117  0.39929  1.0000
  H   H108      1.0  0.23765  0.64856  0.26133  1.0000
  C   C77       1.0  0.05708  0.55918  0.91592  1.0000
  C   C78       1.0  0.04708  0.55409  0.92758  1.0000
  C   C79       1.0  0.04309  0.55085  0.89961  1.0000
  C   C80       1.0  0.04903  0.55269  0.85930  1.0000
  C   C81       1.0  0.05909  0.55758  0.84791  1.0000
  C   C82       1.0  0.06309  0.56079  0.87592  1.0000
  H   H109      1.0  0.04233  0.55280  0.95834  1.0000
  H   H110      1.0  0.03535  0.54713  0.90900  1.0000
  H   H111      1.0  0.06379  0.55906  0.81689  1.0000
  H   H112      1.0  0.07079  0.56466  0.86629  1.0000
  C   C83       1.0  0.13883  0.61502  0.85869  1.0000
  C   C84       1.0  0.13443  0.61821  0.82877  1.0000
  C   C85       1.0  0.12466  0.61346  0.83421  1.0000
  C   C86       1.0  0.11919  0.60545  0.86945  1.0000
  C   C87       1.0  0.12375  0.60191  0.89844  1.0000
  C   C88       1.0  0.13352  0.60670  0.89307  1.0000
  H   H113      1.0  0.13832  0.62476  0.80269  1.0000
  H   H114      1.0  0.12120  0.61627  0.81166  1.0000
  H   H115      1.0  0.11962  0.59578  0.92582  1.0000
  H   H116      1.0  0.13683  0.60421  0.91652  1.0000
  C   C89       1.0  0.20564  0.64825  0.83686  1.0000
  C   C90       1.0  0.21042  0.64635  0.86674  1.0000
  C   C91       1.0  0.21689  0.65408  0.87172  1.0000
  C   C92       1.0  0.21888  0.66384  0.84616  1.0000
  C   C93       1.0  0.21405  0.66575  0.81645  1.0000
  C   C94       1.0  0.20745  0.65804  0.81191  1.0000
  H   H117      1.0  0.20909  0.63884  0.88634  1.0000
  H   H118      1.0  0.22042  0.65245  0.89503  1.0000
  H   H119      1.0  0.21548  0.67325  0.79654  1.0000
  H   H120      1.0  0.20386  0.65966  0.78878  1.0000
  C   C95       1.0  0.19631  0.56089  0.78206  1.0000
  C   C96       1.0  0.20567  0.56066  0.78641  1.0000
  C   C97       1.0  0.20987  0.56653  0.80691  1.0000
  C   C98       1.0  0.20474  0.57273  0.82337  1.0000
  C   C99       1.0  0.19535  0.57288  0.81927  1.0000
  C   C100      1.0  0.19116  0.56699  0.79897  1.0000
  H   H121      1.0  0.20975  0.55595  0.77364  1.0000
  H   H122      1.0  0.21709  0.56630  0.80970  1.0000
  H   H123      1.0  0.19127  0.57762  0.83183  1.0000
  H   H124      1.0  0.18391  0.56714  0.79653  1.0000
  C   C101      1.0  0.17385  0.59329  0.77145  1.0000
  C   C102      1.0  0.16467  0.59505  0.77074  1.0000
  C   C103      1.0  0.15787  0.58827  0.76299  1.0000
  C   C104      1.0  0.16015  0.57961  0.75691  1.0000
  C   C105      1.0  0.16922  0.57775  0.75870  1.0000
  C   C106      1.0  0.17607  0.58462  0.76560  1.0000
  H   H125      1.0  0.16278  0.60158  0.77630  1.0000
  H   H126      1.0  0.15090  0.58977  0.76145  1.0000
  H   H127      1.0  0.17103  0.57106  0.75449  1.0000
  H   H128      1.0  0.18321  0.58332  0.76565  1.0000
  C   C107      1.0  0.10739  0.53690  0.37865  1.0000
  C   C108      1.0  0.24616  0.69551  0.09109  1.0000
  H   H129      1.0  0.05386  0.53332  0.83615  1.0000
  C   C109      1.0  0.13634  0.51436  0.81490  1.0000
  C   C110      1.0  0.12871  0.51884  0.80884  1.0000
  C   C111      1.0  0.11907  0.51290  0.81801  1.0000
  H   H130      1.0  0.24797  0.61853  0.89648  1.0000
  H   H131      1.0  0.15921  0.52268  0.62724  1.0000
  H   H132      1.0  0.13016  0.52683  0.79795  1.0000
  H   H133      1.0  0.11317  0.51636  0.81389  1.0000
  C   C112      1.0  0.09116  0.53938  0.84652  1.0000
  C   C113      1.0  0.09859  0.53593  0.86001  1.0000
  C   C114      1.0  0.10268  0.54022  0.88504  1.0000
  C   C115      1.0  0.09920  0.54781  0.89720  1.0000
  C   C116      1.0  0.09180  0.55120  0.88350  1.0000
  C   C117      1.0  0.08800  0.54723  0.85724  1.0000
  H   H134      1.0  0.10129  0.53008  0.85062  1.0000
  H   H135      1.0  0.10845  0.53757  0.89531  1.0000
  H   H136      1.0  0.08867  0.55662  0.89414  1.0000
  H   H137      1.0  0.08228  0.54993  0.84682  1.0000
  C   C118      1.0  0.05839  0.57167  0.38137  1.0000
  C   C119      1.0  0.05174  0.57712  0.37137  1.0000
  C   C120      1.0  0.04225  0.57231  0.37396  1.0000
  H   H138      1.0  0.18688  0.61408  0.69508  1.0000
  C   C121      1.0  0.04586  0.55641  0.39635  1.0000
  C   C122      1.0  0.05546  0.56128  0.39325  1.0000
  H   H139      1.0  0.05379  0.58512  0.36334  1.0000
  H   H140      1.0  0.03713  0.57665  0.36709  1.0000
  Fe  Fe46      1.0  0.01135  0.52521  0.51453  1.0000
  H   H141      1.0  0.06047  0.55699  0.40191  1.0000
  C   C123      1.0  0.09417  0.58970  0.15709  1.0000
  C   C124      1.0  0.09264  0.59375  0.11946  1.0000
  C   C125      1.0  0.09084  0.58777  0.09512  1.0000
  C   C126      1.0  0.09043  0.57764  0.10850  1.0000
  C   C127      1.0  0.09207  0.57366  0.14587  1.0000
  C   C128      1.0  0.09403  0.57966  0.16973  1.0000
  H   H142      1.0  0.09274  0.60152  0.10933  1.0000
  H   H143      1.0  0.08954  0.59093  0.06655  1.0000
  H   H144      1.0  0.09189  0.56588  0.15632  1.0000
  H   H145      1.0  0.09546  0.57653  0.19796  1.0000
  C   C129      1.0  0.16929  0.63254  0.56603  1.0000
  C   C130      1.0  0.16421  0.62903  0.60839  1.0000
  C   C131      1.0  0.16826  0.63227  0.63609  1.0000
  C   C132      1.0  0.17734  0.63927  0.62161  1.0000
  C   C133      1.0  0.18243  0.64277  0.57926  1.0000
  C   C134      1.0  0.17849  0.63935  0.55162  1.0000
  H   H146      1.0  0.15707  0.62380  0.61988  1.0000
  H   H147      1.0  0.16421  0.62958  0.66849  1.0000
  H   H148      1.0  0.18945  0.64821  0.56770  1.0000
  H   H149      1.0  0.18247  0.64217  0.51913  1.0000
  C   C135      1.0  0.12838  0.60438  0.34956  1.0000
  C   C136      1.0  0.12944  0.61447  0.33054  1.0000
  C   C137      1.0  0.13663  0.62175  0.33459  1.0000
  C   C138      1.0  0.14293  0.61911  0.35749  1.0000
  C   C139      1.0  0.14182  0.60903  0.37683  1.0000
  C   C140      1.0  0.13463  0.60175  0.37277  1.0000
  H   H150      1.0  0.12473  0.61667  0.31260  1.0000
  H   H151      1.0  0.13736  0.62949  0.31952  1.0000
  H   H152      1.0  0.14651  0.60685  0.39483  1.0000
  H   H153      1.0  0.13395  0.59401  0.38768  1.0000
  C   C141      1.0  0.21079  0.65527  0.33348  1.0000
  C   C142      1.0  0.20911  0.66217  0.35413  1.0000
  C   C143      1.0  0.21692  0.67023  0.34838  1.0000
  C   C144      1.0  0.22646  0.67146  0.32207  1.0000
  C   C145      1.0  0.22823  0.66426  0.30330  1.0000
  C   C146      1.0  0.22042  0.65627  0.30869  1.0000
  H   H154      1.0  0.20172  0.66156  0.37305  1.0000
  H   H155      1.0  0.21549  0.67569  0.36347  1.0000
  H   H156      1.0  0.23558  0.66495  0.28396  1.0000
  H   H157      1.0  0.22179  0.65098  0.29259  1.0000
  C   C147      1.0  0.15311  0.53799  0.53378  1.0000
  C   C148      1.0  0.16320  0.54251  0.51634  1.0000
  C   C149      1.0  0.16862  0.54567  0.54016  1.0000
  C   C150      1.0  0.16403  0.54447  0.58159  1.0000
  C   C151      1.0  0.15391  0.54001  0.59915  1.0000
  C   C152      1.0  0.14850  0.53669  0.57541  1.0000
  H   H158      1.0  0.16689  0.54345  0.48455  1.0000
  H   H159      1.0  0.17645  0.54911  0.52627  1.0000
  H   H160      1.0  0.15025  0.53925  0.63075  1.0000
  H   H161      1.0  0.14067  0.53325  0.58910  1.0000
  C   C153      1.0  0.19162  0.56004  0.30904  1.0000
  C   C154      1.0  0.20190  0.56159  0.29339  1.0000
  C   C155      1.0  0.20824  0.57092  0.28525  1.0000
  C   C156      1.0  0.20430  0.57868  0.29342  1.0000
  C   C157      1.0  0.19403  0.57707  0.30942  1.0000
  C   C158      1.0  0.18773  0.56785  0.31665  1.0000
  H   H162      1.0  0.20497  0.55555  0.28772  1.0000
  H   H163      1.0  0.21616  0.57204  0.27351  1.0000
  H   H164      1.0  0.19092  0.58303  0.31583  1.0000
  H   H165      1.0  0.17984  0.56682  0.32768  1.0000
  C   C159      1.0  0.16231  0.58372  0.37145  1.0000
  C   C160      1.0  0.17042  0.58058  0.37939  1.0000
  C   C161      1.0  0.17691  0.58636  0.39232  1.0000
  C   C162      1.0  0.17532  0.59534  0.39691  1.0000
  C   C163      1.0  0.16757  0.59879  0.38645  1.0000
  C   C164      1.0  0.16106  0.59297  0.37376  1.0000
  H   H166      1.0  0.17162  0.57361  0.37647  1.0000
  H   H167      1.0  0.18298  0.58372  0.39987  1.0000
  H   H168      1.0  0.16629  0.60574  0.38972  1.0000
  H   H169      1.0  0.15488  0.59548  0.36695  1.0000
  H   H170      1.0  0.25254  0.65743  0.71765  1.0000
  H   H171      1.0  0.18896  0.53850  0.88523  1.0000
  S   S91       1.0  0.08226  0.50885  0.28030  1.0000
  H   H172      1.0  0.12859  0.64031  0.49898  1.0000
  H   H173      1.0  0.11618  0.52970  0.43331  1.0000
  H   H174      1.0  0.03058  0.54588  0.58439  1.0000
  H   H175      1.0  0.17691  0.54897  0.83630  1.0000
  C   C165      1.0  0.17257  0.52998  0.84128  1.0000
  H   H176      1.0  0.02733  0.55752  0.57311  1.0000
  H   H177      1.0  0.24612  0.59213  0.02064  1.0000
  C   C166      1.0  0.11649  0.51542  0.28578  1.0000
  C   C167      1.0  0.11631  0.52537  0.27186  1.0000
  C   C168      1.0  0.12218  0.53265  0.28162  1.0000
  C   C169      1.0  0.12831  0.53011  0.30549  1.0000
  C   C170      1.0  0.12864  0.52019  0.31877  1.0000
  C   C171      1.0  0.12277  0.51292  0.30893  1.0000
  H   H178      1.0  0.11160  0.52745  0.25377  1.0000
  H   H179      1.0  0.12184  0.54028  0.27105  1.0000
  H   H180      1.0  0.13330  0.51809  0.33709  1.0000
  C   C172      1.0  0.01254  0.52779  0.61325  1.0000
  C   C173      1.0  0.08612  0.54021  0.24023  1.0000
  C   C174      1.0  0.09210  0.53575  0.26054  1.0000
  C   C175      1.0  0.09723  0.54081  0.28062  1.0000
  C   C176      1.0  0.09658  0.55043  0.27952  1.0000
  C   C177      1.0  0.09096  0.55499  0.25757  1.0000
  C   C178      1.0  0.08560  0.54986  0.23855  1.0000
  H   H181      1.0  0.09283  0.52842  0.26084  1.0000
  H   H182      1.0  0.10173  0.53728  0.29675  1.0000
  H   H183      1.0  0.09085  0.56251  0.25466  1.0000
  H   H184      1.0  0.08118  0.55341  0.22208  1.0000
  H   H185      1.0  0.06318  0.51665  0.95404  1.0000
  N   N7        1.0  0.12698  0.62628  0.95713  1.0000
  C   C179      1.0  0.11832  0.62542  0.99191  1.0000
  C   C180      1.0  0.13442  0.63563  0.94742  1.0000
  C   C181      1.0  0.12384  0.62624  0.92088  1.0000
  C   C182      1.0  0.13137  0.61784  0.96825  1.0000
  H   H186      1.0  0.11259  0.61842  0.99975  1.0000
  H   H187      1.0  0.11483  0.63169  0.98474  1.0000
  H   H188      1.0  0.12040  0.62538  0.01988  1.0000
  H   H189      1.0  0.13698  0.63594  0.97399  1.0000
  H   H190      1.0  0.14106  0.63641  0.92132  1.0000
  H   H191      1.0  0.13142  0.64220  0.93853  1.0000
  H   H192      1.0  0.13028  0.62747  0.89349  1.0000
  H   H193      1.0  0.12006  0.63222  0.91284  1.0000
  H   H194      1.0  0.11870  0.61906  0.92590  1.0000
  H   H195      1.0  0.13817  0.61848  0.94336  1.0000
  H   H196      1.0  0.12615  0.61066  0.97400  1.0000
  H   H197      1.0  0.13352  0.61745  0.99628  1.0000
  H   H198      1.0  0.24591  0.63143  0.09570  1.0000
  S   S92       1.0  0.25143  0.70366  0.11309  1.0000
  C   C183      1.0  0.08478  0.50763  0.00724  1.0000
  H   H199      1.0  0.24527  0.72351  0.96310  1.0000
  H   H200      1.0  0.06241  0.51015  0.27581  1.0000
  H   H201      1.0  0.24945  0.65408  0.01078  1.0000
  N   N8        1.0  0.06515  0.53060  0.96578  1.0000
  C   C184      1.0  0.17022  0.52717  0.91330  1.0000
  C   C185      1.0  0.25073  0.63136  0.91617  1.0000
  H   H202      1.0  0.09957  0.51184  0.40535  1.0000
  C   C186      1.0  0.24342  0.65816  0.81439  1.0000
  N   N9        1.0  0.24300  0.65506  0.77841  1.0000
  H   H203      1.0  0.15155  0.63155  0.48183  1.0000
  H   H204      1.0  0.06303  0.53965  0.74009  1.0000
  H   H205      1.0  0.11177  0.51680  0.43944  1.0000
  H   H206      1.0  0.24301  0.63221  0.02826  1.0000
  H   H207      1.0  0.05041  0.53624  0.77127  1.0000
  N   N10       1.0  0.12441  0.57959  0.83022  1.0000
  C   C187      1.0  0.13090  0.57297  0.82197  1.0000
  C   C188      1.0  0.12227  0.57932  0.87335  1.0000
  C   C189      1.0  0.11507  0.57624  0.82258  1.0000
  C   C190      1.0  0.12936  0.58985  0.80313  1.0000
  H   H208      1.0  0.13261  0.57292  0.78972  1.0000
  H   H209      1.0  0.12740  0.56518  0.84213  1.0000
  H   H210      1.0  0.13808  0.57531  0.82697  1.0000
  H   H211      1.0  0.11713  0.58400  0.88073  1.0000
  H   H212      1.0  0.11875  0.57166  0.89471  1.0000
  H   H213      1.0  0.12910  0.58209  0.88000  1.0000
  H   H214      1.0  0.11104  0.56860  0.84324  1.0000
  H   H215      1.0  0.11642  0.57616  0.79051  1.0000
  H   H216      1.0  0.11006  0.58119  0.82786  1.0000
  H   H217      1.0  0.12453  0.59498  0.80806  1.0000
  H   H218      1.0  0.13134  0.59031  0.77027  1.0000
  H   H219      1.0  0.13628  0.59274  0.80903  1.0000
  N   N11       1.0  0.13035  0.57141  0.31519  1.0000
  C   C191      1.0  0.13680  0.58137  0.30535  1.0000
  C   C192      1.0  0.13445  0.56384  0.33709  1.0000
  C   C193      1.0  0.12968  0.56954  0.27702  1.0000
  C   C194      1.0  0.12043  0.57082  0.34167  1.0000
  H   H220      1.0  0.13726  0.58307  0.33367  1.0000
  H   H221      1.0  0.13394  0.58727  0.28842  1.0000
  H   H222      1.0  0.14447  0.58201  0.28659  1.0000
  H   H223      1.0  0.12990  0.55624  0.34401  1.0000
  H   H224      1.0  0.14207  0.56423  0.31863  1.0000
  H   H225      1.0  0.13477  0.56488  0.36657  1.0000
  H   H226      1.0  0.12482  0.56209  0.28353  1.0000
  H   H227      1.0  0.13707  0.56983  0.25665  1.0000
  H   H228      1.0  0.12658  0.57510  0.25964  1.0000
  H   H229      1.0  0.11534  0.56342  0.34986  1.0000
  H   H230      1.0  0.11715  0.57642  0.32607  1.0000
  H   H231      1.0  0.12070  0.57235  0.37046  1.0000
  N   N12       1.0  0.18562  0.61057  0.64135  1.0000
  C   C195      1.0  0.19638  0.61375  0.62013  1.0000
  C   C196      1.0  0.18268  0.59976  0.66246  1.0000
  C   C197      1.0  0.18036  0.61301  0.61116  1.0000
  H   H232      1.0  0.20055  0.61202  0.64215  1.0000
  H   H233      1.0  0.19882  0.62190  0.60411  1.0000
  H   H234      1.0  0.19858  0.60999  0.59684  1.0000
  H   H235      1.0  0.17462  0.59713  0.67930  1.0000
  H   H236      1.0  0.18442  0.59554  0.64057  1.0000
  H   H237      1.0  0.18657  0.59769  0.68533  1.0000
  H   H238      1.0  0.17222  0.61094  0.62623  1.0000
  H   H239      1.0  0.18198  0.60912  0.58798  1.0000
  H   H240      1.0  0.18255  0.62110  0.59433  1.0000
  H   H241      1.0  0.18525  0.62395  0.65707  1.0000
  H   H242      1.0  0.14101  0.62611  0.52677  1.0000
  C   C198      1.0  0.07538  0.53084  0.96600  1.0000
  C   C199      1.0  0.00946  0.53660  0.60797  1.0000
  H   H243      1.0  0.19064  0.54025  0.83221  1.0000
  Fe  Fe47      1.0  0.00845  0.52734  0.85486  1.0000
  H   H244      1.0  0.16523  0.54312  0.87503  1.0000
  H   H245      1.0  0.04881  0.57806  0.25763  1.0000
  H   H246      1.0  0.25193  0.66217  0.24973  1.0000
  H   H247      1.0  0.16453  0.52909  0.84587  1.0000
  H   H248      1.0  0.12299  0.63302  0.47306  1.0000
  H   H249      1.0  0.22834  0.69307  0.04561  1.0000
  S   S93       1.0  0.01238  0.53002  0.40007  1.0000
  H   H250      1.0  0.24012  0.70821  0.92204  1.0000
  H   H251      1.0  0.14377  0.62124  0.44802  1.0000
  C   C200      1.0  0.25347  0.59111  0.00642  1.0000
  H   H252      1.0  0.05449  0.52946  0.73701  1.0000
  H   H253      1.0  0.03963  0.55715  0.57338  1.0000
  H   H254      1.0  0.17500  0.61359  0.68828  1.0000
  N   N13       1.0  0.20534  0.60976  0.83329  1.0000
  C   C201      1.0  0.20576  0.61430  0.86569  1.0000
  C   C202      1.0  0.21499  0.60783  0.81597  1.0000
  C   C203      1.0  0.20296  0.61658  0.80058  1.0000
  C   C204      1.0  0.19763  0.60032  0.85075  1.0000
  H   H255      1.0  0.21143  0.62150  0.85336  1.0000
  H   H256      1.0  0.20769  0.60943  0.89069  1.0000
  H   H257      1.0  0.19858  0.61586  0.87936  1.0000
  H   H258      1.0  0.21492  0.60441  0.79137  1.0000
  H   H259      1.0  0.22103  0.61474  0.80326  1.0000
  H   H260      1.0  0.21691  0.60257  0.83973  1.0000
  H   H261      1.0  0.20250  0.61338  0.77570  1.0000
  H   H262      1.0  0.20855  0.62383  0.78693  1.0000
  H   H263      1.0  0.19572  0.61816  0.81283  1.0000
  H   H264      1.0  0.19019  0.60152  0.86309  1.0000
  H   H265      1.0  0.19913  0.59501  0.87592  1.0000
  H   H266      1.0  0.19726  0.59662  0.82716  1.0000
  N   N14       1.0  0.20771  0.61658  0.32053  1.0000
  C   C205      1.0  0.20531  0.61801  0.36121  1.0000
  C   C206      1.0  0.19956  0.60907  0.31966  1.0000
  C   C207      1.0  0.21688  0.61317  0.31239  1.0000
  C   C208      1.0  0.20911  0.62609  0.28886  1.0000
  H   H267      1.0  0.21129  0.62365  0.36289  1.0000
  H   H268      1.0  0.20413  0.61097  0.38595  1.0000
  H   H269      1.0  0.19843  0.62060  0.36819  1.0000
  H   H270      1.0  0.19248  0.61133  0.32592  1.0000
  H   H271      1.0  0.20118  0.60773  0.28950  1.0000
  H   H272      1.0  0.19835  0.60180  0.34322  1.0000
  H   H273      1.0  0.21890  0.61212  0.28176  1.0000
  H   H274      1.0  0.21604  0.60592  0.33527  1.0000
  H   H275      1.0  0.22321  0.61862  0.31285  1.0000
  H   H276      1.0  0.21105  0.62533  0.25768  1.0000
  H   H277      1.0  0.21520  0.63191  0.28887  1.0000
  H   H278      1.0  0.20232  0.62890  0.29416  1.0000
  Fe  Fe48      1.0  0.23208  0.60395  0.88261  1.0000
  H   H279      1.0  0.23335  0.61303  0.01492  1.0000
  Fe  Fe49      1.0  0.24423  0.58905  0.87576  1.0000
  H   H280      1.0  0.17416  0.52262  0.84319  1.0000
  H   H281      1.0  0.19018  0.57933  0.19324  1.0000
  H   H282      1.0  0.19645  0.57534  0.22915  1.0000
  H   H283      1.0  0.24480  0.66635  0.80706  1.0000
  C   C209      1.0  0.03915  0.56194  0.38748  1.0000
  C   C210      1.0  0.19745  0.57834  0.19596  1.0000
  H   H284      1.0  0.20268  0.58579  0.18426  1.0000
  H   H285      1.0  0.05770  0.53634  0.92333  1.0000
  H   H286      1.0  0.21405  0.56603  0.16018  1.0000
  H   H287      1.0  0.21032  0.56724  0.21023  1.0000
  S   S94       1.0  0.02674  0.55642  0.39393  1.0000
  C   C211      1.0  0.06784  0.52324  0.77313  1.0000
  H   H288      1.0  0.06932  0.54421  0.91623  1.0000
  H   H289      1.0  0.22479  0.64265  0.08904  1.0000
  H   H290      1.0  0.19665  0.55654  0.17555  1.0000
  N   N15       1.0  0.20114  0.57166  0.17379  1.0000
  C   C212      1.0  0.21086  0.57072  0.17782  1.0000
  H   H291      1.0  0.20719  0.58336  0.11604  1.0000
  Fe  Fe50      1.0  0.02977  0.54039  0.81978  1.0000
  H   H292      1.0  0.06958  0.51780  0.79693  1.0000
  H   H293      1.0  0.04358  0.54841  0.40644  1.0000
  C   C213      1.0  0.20215  0.57580  0.12998  1.0000
  C   C214      1.0  0.19411  0.56178  0.19152  1.0000
  H   H294      1.0  0.19491  0.57636  0.12559  1.0000
  H   H295      1.0  0.19321  0.55845  0.22461  1.0000
  H   H296      1.0  0.18665  0.56219  0.18947  1.0000
  H   H297      1.0  0.21622  0.57808  0.16674  1.0000
  H   H298      1.0  0.07942  0.52804  0.94183  1.0000
  H   H299      1.0  0.17230  0.53005  0.93683  1.0000
  H   H300      1.0  0.20525  0.57114  0.11185  1.0000
  C   C215      1.0  0.24572  0.71579  0.97633  1.0000
  H   H301      1.0  0.25227  0.71021  0.88752  1.0000
  H   H302      1.0  0.05701  0.52634  0.33957  1.0000
  N   N16       1.0  0.05891  0.52629  0.79109  1.0000
  S   S95       1.0  0.08975  0.51014  0.89093  1.0000
  H   H303      1.0  0.03669  0.51220  0.31538  1.0000
  H   H304      1.0  0.03975  0.52104  0.34015  1.0000
  S   S96       1.0  0.02983  0.50892  0.78372  1.0000
  C   C216      1.0  0.24905  0.68674  0.09051  1.0000
  H   H305      1.0  0.06657  0.52204  0.31064  1.0000
  H   H306      1.0  0.09855  0.55726  0.04467  1.0000
  S   S97       1.0  0.02307  0.52446  0.85879  1.0000
  C   C217      1.0  0.06529  0.53633  0.92469  1.0000
  S   S98       1.0  0.25026  0.68104  0.20633  1.0000
  C   C218      1.0  0.15714  0.51098  0.72606  1.0000
  H   H307      1.0  0.00691  0.53936  0.58228  1.0000
  H   H308      1.0  0.13951  0.51492  0.72914  1.0000
  H   H309      1.0  0.10512  0.53305  0.07628  1.0000
  Fe  Fe51      1.0  0.25012  0.66270  0.92935  1.0000
  H   H310      1.0  0.06280  0.52651  0.84502  1.0000
  C   C219      1.0  0.24783  0.63996  0.92010  1.0000
  H   H311      1.0  0.14302  0.64761  0.43698  1.0000
  H   H312      1.0  0.09438  0.53028  0.06105  1.0000
  H   H313      1.0  0.10755  0.54674  0.10568  1.0000
  H   H314      1.0  0.09676  0.54772  0.02153  1.0000
  C   C220      1.0  0.09710  0.53278  0.08413  1.0000
  H   H315      1.0  0.10792  0.55074  0.03342  1.0000
  C   C221      1.0  0.09980  0.54987  0.04451  1.0000
  C   C222      1.0  0.14235  0.64026  0.43205  1.0000
  N   N17       1.0  0.23977  0.64213  0.06291  1.0000
  C   C223      1.0  0.00948  0.54177  0.63660  1.0000
  C   C224      1.0  0.09661  0.52541  0.44350  1.0000
  N   N18       1.0  0.09519  0.54244  0.08563  1.0000
  H   H316      1.0  0.09331  0.52690  0.11413  1.0000
  C   C225      1.0  0.09940  0.54567  0.11506  1.0000
  C   C226      1.0  0.23720  0.63610  0.03759  1.0000
  H   H317      1.0  0.09872  0.53054  0.46011  1.0000
  H   H318      1.0  0.06083  0.53048  0.28447  1.0000
  H   H319      1.0  0.22307  0.67984  0.13511  1.0000
  H   H320      1.0  0.23806  0.71098  0.98946  1.0000
  C   C227      1.0  0.05938  0.52398  0.31201  1.0000
  H   H321      1.0  0.24658  0.64130  0.80284  1.0000
  H   H322      1.0  0.09628  0.54013  0.14621  1.0000
  H   H323      1.0  0.09779  0.55281  0.11783  1.0000
  N   N19       1.0  0.15339  0.51409  0.69121  1.0000
  H   H324      1.0  0.25172  0.65388  0.05816  1.0000
  C   C228      1.0  0.18634  0.53523  0.86367  1.0000
  H   H325      1.0  0.02959  0.55115  0.47742  1.0000
  C   C229      1.0  0.08443  0.54144  0.09889  1.0000
  H   H326      1.0  0.08099  0.53906  0.07734  1.0000
  C   C230      1.0  0.09046  0.50974  0.03197  1.0000
  C   C231      1.0  0.21687  0.67721  0.16435  1.0000
  H   H327      1.0  0.23303  0.68830  0.17055  1.0000
  H   H328      1.0  0.21242  0.68280  0.16346  1.0000
  C   C232      1.0  0.25210  0.70207  0.96410  1.0000
  H   H329      1.0  0.08269  0.54858  0.10065  1.0000
  H   H330      1.0  0.22989  0.66741  0.22391  1.0000
  H   H331      1.0  0.01814  0.52657  0.70171  1.0000
  H   H332      1.0  0.06673  0.58124  0.28699  1.0000
  H   H333      1.0  0.04140  0.54139  0.53001  1.0000
  H   H334      1.0  0.02471  0.54234  0.52803  1.0000
  H   H335      1.0  0.22211  0.69085  0.19905  1.0000
  H   H336      1.0  0.21217  0.67019  0.16510  1.0000
  H   H337      1.0  0.08075  0.53591  0.12993  1.0000
  H   H338      1.0  0.09536  0.52125  0.37485  1.0000
  H   H339      1.0  0.14520  0.63936  0.50446  1.0000
  H   H340      1.0  0.06432  0.54290  0.98895  1.0000
  C   C233      1.0  0.05547  0.51251  0.27650  1.0000
  C   C234      1.0  0.02767  0.55038  0.51060  1.0000
  C   C235      1.0  0.22648  0.68521  0.19857  1.0000
  H   H341      1.0  0.22245  0.66116  0.20065  1.0000
  N   N20       1.0  0.25193  0.71241  0.94519  1.0000
  H   H342      1.0  0.17592  0.54731  0.88876  1.0000
  H   H343      1.0  0.05938  0.51564  0.00705  1.0000
  H   H344      1.0  0.15901  0.58552  0.51304  1.0000
  H   H345      1.0  0.02157  0.55408  0.51778  1.0000
  N   N21       1.0  0.22053  0.67569  0.19989  1.0000
  C   C236      1.0  0.22674  0.66854  0.19839  1.0000
  H   H346      1.0  0.22925  0.68431  0.22539  1.0000
  Fe  Fe52      1.0  0.25001  0.60347  0.21269  1.0000
  H   H347      1.0  0.06421  0.59006  0.24755  1.0000
  H   H348      1.0  0.04240  0.56626  0.46254  1.0000
  S   S99       1.0  0.01243  0.54484  0.70619  1.0000
  H   H349      1.0  0.16854  0.58190  0.48095  1.0000
  H   H350      1.0  0.15851  0.58506  0.46389  1.0000
  C   C237      1.0  0.21205  0.67183  0.23812  1.0000
  H   H351      1.0  0.20796  0.66415  0.24287  1.0000
  H   H352      1.0  0.23309  0.67118  0.16946  1.0000
  H   H353      1.0  0.14192  0.57386  0.49439  1.0000
  H   H354      1.0  0.24771  0.72062  0.89550  1.0000
  Fe  Fe53      1.0  0.01676  0.53875  0.76313  1.0000
  C   C238      1.0  0.16044  0.58128  0.49109  1.0000
  H   H355      1.0  0.05074  0.55255  0.51846  1.0000
  H   H356      1.0  0.21449  0.67163  0.26527  1.0000
  C   C239      1.0  0.04406  0.54939  0.51163  1.0000
  H   H357      1.0  0.20674  0.67658  0.23840  1.0000
  H   H358      1.0  0.06004  0.53092  0.02762  1.0000
  C   C240      1.0  0.01261  0.53821  0.67060  1.0000
  H   H359      1.0  0.16530  0.56597  0.53775  1.0000
  N   N22       1.0  0.03630  0.55472  0.52074  1.0000
  C   C241      1.0  0.04016  0.56530  0.49592  1.0000
  H   H360      1.0  0.03452  0.56956  0.50213  1.0000
  H   H361      1.0  0.05190  0.51971  0.97606  1.0000
  H   H362      1.0  0.14203  0.57426  0.54432  1.0000
  H   H363      1.0  0.15291  0.55843  0.56152  1.0000
  H   H364      1.0  0.06146  0.58548  0.18799  1.0000
  C   C242      1.0  0.06496  0.57925  0.19600  1.0000
  C   C243      1.0  0.05053  0.51744  0.81208  1.0000
  H   H365      1.0  0.07620  0.56979  0.23278  1.0000
  C   C244      1.0  0.06768  0.58373  0.25361  1.0000
  H   H366      1.0  0.05708  0.51869  0.24765  1.0000
  N   N23       1.0  0.15476  0.57083  0.50946  1.0000
  C   C245      1.0  0.14409  0.57036  0.52143  1.0000
  C   C246      1.0  0.15738  0.56617  0.54597  1.0000
  H   H367      1.0  0.07554  0.52615  0.99590  1.0000
  H   H368      1.0  0.07963  0.53850  0.96031  1.0000
  H   H369      1.0  0.06717  0.56444  0.28273  1.0000
  H   H370      1.0  0.13808  0.64000  0.41033  1.0000
  H   H371      1.0  0.15298  0.55758  0.49220  1.0000
  C   C247      1.0  0.24016  0.63560  0.10163  1.0000
  C   C248      1.0  0.12795  0.63317  0.49217  1.0000
  C   C249      1.0  0.15711  0.56551  0.47930  1.0000
  H   H372      1.0  0.16512  0.56576  0.46913  1.0000
  H   H373      1.0  0.07297  0.58203  0.17829  1.0000
  Fe  Fe54      1.0  0.01837  0.51910  0.43807  1.0000
  H   H374      1.0  0.17659  0.53495  0.80940  1.0000
  C   C250      1.0  0.14410  0.63228  0.49725  1.0000
  H   H375      1.0  0.13960  0.56255  0.53512  1.0000
  H   H376      1.0  0.15611  0.57021  0.56876  1.0000
  C   C251      1.0  0.03334  0.55379  0.56477  1.0000
  H   H377      1.0  0.04679  0.56881  0.50220  1.0000
  C   C252      1.0  0.17329  0.54376  0.86792  1.0000
  H   H378      1.0  0.05263  0.53510  0.99637  1.0000
  H   H379      1.0  0.05126  0.56910  0.29673  1.0000
  H   H380      1.0  0.14992  0.63989  0.41626  1.0000
  H   H381      1.0  0.23365  0.64051  0.81339  1.0000
  H   H382      1.0  0.10777  0.52028  0.35768  1.0000
  C   C253      1.0  0.04258  0.51851  0.31337  1.0000
  H   H383      1.0  0.15513  0.56878  0.45151  1.0000
  H   H384      1.0  0.13279  0.61613  0.49126  1.0000
  H   H385      1.0  0.23587  0.66646  0.75796  1.0000
  H   H386      1.0  0.22767  0.65460  0.78768  1.0000
  H   H387      1.0  0.23302  0.63001  0.11902  1.0000
  H   H388      1.0  0.04642  0.54988  0.47876  1.0000
  C   C254      1.0  0.05964  0.52022  0.97620  1.0000
  C   C255      1.0  0.24951  0.64914  0.04026  1.0000
  N   N24       1.0  0.10480  0.52662  0.40641  1.0000
  H   H389      1.0  0.06190  0.57330  0.18478  1.0000
  C   C256      1.0  0.01559  0.52420  0.64741  1.0000
  N   N25       1.0  0.13772  0.63205  0.47105  1.0000
  S   S100      1.0  0.01493  0.54367  0.81962  1.0000
  C   C257      1.0  0.23879  0.69783  0.07436  1.0000
  S   S101      1.0  0.02569  0.52989  0.46309  1.0000
  N   N26       1.0  0.05187  0.51554  0.31307  1.0000
  H   H390      1.0  0.04937  0.51320  0.79095  1.0000
  H   H391      1.0  0.23640  0.70450  0.07551  1.0000
  H   H392      1.0  0.24190  0.63986  0.12196  1.0000
  C   C258      1.0  0.05662  0.53320  0.75826  1.0000
  C   C259      1.0  0.06814  0.56736  0.24944  1.0000
  H   H393      1.0  0.04352  0.51947  0.82411  1.0000
  H   H394      1.0  0.17183  0.51976  0.91719  1.0000
  H   H395      1.0  0.24459  0.69702  0.97578  1.0000
  H   H396      1.0  0.08769  0.51098  0.97440  1.0000
  H   H397      1.0  0.09782  0.51459  0.01779  1.0000
  S   S102      1.0  0.07467  0.50826  0.20119  1.0000
  H   H398      1.0  0.04359  0.52465  0.28517  1.0000
  H   H399      1.0  0.10098  0.53880  0.36953  1.0000
  S   S103      1.0  0.06743  0.50815  0.88368  1.0000
  C   C260      1.0  0.24780  0.71291  0.91111  1.0000
  C   C261      1.0  0.24101  0.64414  0.78979  1.0000
  H   H400      1.0  0.11973  0.52516  0.39102  1.0000
  H   H401      1.0  0.10995  0.54236  0.39306  1.0000
  H   H402      1.0  0.24104  0.64153  0.76305  1.0000
  C   C262      1.0  0.25275  0.65699  0.23278  1.0000
  H   H403      1.0  0.24875  0.71557  0.00215  1.0000
  H   H404      1.0  0.25325  0.58933  0.97800  1.0000
  C   C263      1.0  0.25255  0.65960  0.74541  1.0000
  S   S104      1.0  0.09466  0.50747  0.10410  1.0000
  H   H405      1.0  0.04714  0.50904  0.37865  1.0000
  H   H406      1.0  0.14596  0.50737  0.65639  1.0000
  H   H407      1.0  0.08996  0.52700  0.43563  1.0000
  H   H408      1.0  0.25423  0.60323  0.05193  1.0000
  S   S105      1.0  0.00434  0.53628  0.48285  1.0000
  S   S106      1.0  0.08532  0.50719  0.80720  1.0000
  H   H409      1.0  0.25424  0.66783  0.73629  1.0000
  C   C264      1.0  0.05009  0.50714  0.35030  1.0000
  C   C265      1.0  0.49906  0.03328  0.77334  1.0000
  C   C266      1.0  0.48324  0.02919  0.30161  1.0000
  H   H410      1.0  0.48674  0.02056  0.49683  1.0000
  H   H411      1.0  0.49152  0.01092  0.40820  1.0000
  C   C267      1.0  0.49200  0.03652  0.29225  1.0000
  H   H412      1.0  0.49464  0.08369  0.95094  1.0000
  H   H413      1.0  0.49065  0.00871  0.34092  1.0000
  S   S107      1.0  0.47275  0.01330  0.79855  1.0000
  C   C268      1.0  0.49174  0.02589  0.77076  1.0000
  H   H414      1.0  0.48765  0.02742  0.38759  1.0000
  H   H415      1.0  0.50039  0.05304  0.07914  1.0000
  C   C269      1.0  0.50281  0.08559  0.93712  1.0000
  H   H416      1.0  0.49230  0.04425  0.27899  1.0000
  C   C270      1.0  0.49700  0.03784  0.80406  1.0000
  C   C271      1.0  0.47312  0.01239  0.44198  1.0000
  C   C272      1.0  0.50179  0.01282  0.84156  1.0000
  H   H417      1.0  0.47727  0.00932  0.51317  1.0000
  C   C273      1.0  0.49961  0.02376  0.31916  1.0000
  H   H418      1.0  0.49663  0.01429  0.44483  1.0000
  C   C274      1.0  0.48262  0.01912  0.31974  1.0000
  H   H419      1.0  0.47452  0.01223  0.40995  1.0000
  N   N27       1.0  0.48226  0.01694  0.44834  1.0000
  H   H420      1.0  0.47687  0.03135  0.29516  1.0000
  C   C275      1.0  0.50019  0.03385  0.30153  1.0000
  H   H421      1.0  0.49335  0.03078  0.42269  1.0000
  H   H422      1.0  0.49813  0.01835  0.85177  1.0000
  H   H423      1.0  0.49347  0.02249  0.74696  1.0000
  C   C276      1.0  0.48747  0.03489  0.83218  1.0000
  C   C277      1.0  0.48014  0.02752  0.82951  1.0000
  C   C278      1.0  0.48220  0.02294  0.79889  1.0000
  H   H424      1.0  0.48572  0.03829  0.85596  1.0000
  H   H425      1.0  0.47280  0.02534  0.85143  1.0000
  C   C279      1.0  0.49094  0.01643  0.32771  1.0000
  S   S108      1.0  0.47124  0.01018  0.33420  1.0000
  C   C280      1.0  0.48963  0.01113  0.44021  1.0000
  C   C281      1.0  0.48624  0.02720  0.42005  1.0000
  H   H426      1.0  0.49695  0.09346  0.99718  1.0000
  C   C282      1.0  0.48005  0.01699  0.49116  1.0000
  H   H427      1.0  0.48097  0.03186  0.42603  1.0000
  H   H428      1.0  0.46739  0.01657  0.44777  1.0000
  S   S109      1.0  0.50130  0.06636  0.87841  1.0000
  H   H429      1.0  0.47430  0.02105  0.49895  1.0000
  H   H430      1.0  0.49555  0.10165  0.92886  1.0000
  H   H431      1.0  0.50316  0.01469  0.80803  1.0000
  C   C283      1.0  0.50371  0.10309  0.91606  1.0000
  H   H432      1.0  0.48835  0.48166  0.74446  1.0000
  H   H433      1.0  0.44122  0.50183  0.32603  1.0000
  S   S110      1.0  0.49133  0.49844  0.67348  1.0000
  H   H434      1.0  0.47710  0.49505  0.48990  1.0000
  H   H435      1.0  0.47104  0.41861  0.70505  1.0000
  C   C284      1.0  0.47931  0.44261  0.69793  1.0000
  C   C285      1.0  0.49992  0.44397  0.75390  1.0000
  S   S111      1.0  0.43166  0.49655  0.85301  1.0000
  H   H436      1.0  0.49543  0.50227  0.41697  1.0000
  H   H437      1.0  0.49291  0.43226  0.07126  1.0000
  H   H438      1.0  0.47909  0.49029  0.44722  1.0000
  H   H439      1.0  0.47569  0.48207  0.49832  1.0000
  C   C286      1.0  0.47547  0.42643  0.69061  1.0000
  Fe  Fe55      1.0  0.46436  0.47069  0.40963  1.0000
  S   S112      1.0  0.46148  0.46045  0.37387  1.0000
  S   S113      1.0  0.45490  0.46890  0.47333  1.0000
  Fe  Fe56      1.0  0.48200  0.48472  0.33892  1.0000
  S   S114      1.0  0.48077  0.47568  0.29732  1.0000
  H   H440      1.0  0.47180  0.42011  0.77165  1.0000
  Fe  Fe57      1.0  0.46449  0.47452  0.32180  1.0000
  S   S115      1.0  0.45520  0.47640  0.27962  1.0000
  Fe  Fe58      1.0  0.47796  0.46259  0.35292  1.0000
  S   S116      1.0  0.48663  0.45095  0.35831  1.0000
  S   S117      1.0  0.46604  0.48454  0.35949  1.0000
  S   S118      1.0  0.48053  0.47188  0.39277  1.0000
  Fe  Fe59      1.0  0.45954  0.47390  0.70548  1.0000
  S   S119      1.0  0.47136  0.48217  0.64536  1.0000
  S   S120      1.0  0.44500  0.47788  0.71196  1.0000
  Fe  Fe60      1.0  0.47329  0.46278  0.73982  1.0000
  S   S121      1.0  0.48610  0.47022  0.68246  1.0000
  S   S122      1.0  0.47454  0.45196  0.79579  1.0000
  Fe  Fe61      1.0  0.48100  0.48396  0.68407  1.0000
  S   S123      1.0  0.49352  0.42347  0.24627  1.0000
  Fe  Fe62      1.0  0.47506  0.46755  0.65001  1.0000
  S   S124      1.0  0.47917  0.46159  0.59728  1.0000
  S   S125      1.0  0.46891  0.47681  0.74395  1.0000
  S   S126      1.0  0.46249  0.45901  0.70734  1.0000
  C   C287      1.0  0.46089  0.46580  0.51019  1.0000
  C   C288      1.0  0.46884  0.46147  0.50255  1.0000
  C   C289      1.0  0.47419  0.45990  0.53024  1.0000
  C   C290      1.0  0.47167  0.46271  0.56557  1.0000
  C   C291      1.0  0.46353  0.46676  0.57399  1.0000
  C   C292      1.0  0.45809  0.46823  0.54646  1.0000
  H   H441      1.0  0.47085  0.45926  0.47541  1.0000
  H   H442      1.0  0.48039  0.45663  0.52388  1.0000
  H   H443      1.0  0.46146  0.46886  0.60144  1.0000
  H   H444      1.0  0.45191  0.47153  0.55270  1.0000
  C   C293      1.0  0.40612  0.49786  0.97750  1.0000
  H   H445      1.0  0.42458  0.50191  0.92810  1.0000
  C   C294      1.0  0.47586  0.42801  0.75603  1.0000
  H   H446      1.0  0.47393  0.43203  0.77859  1.0000
  C   C295      1.0  0.44182  0.49774  0.30437  1.0000
  H   H447      1.0  0.47768  0.44606  0.66941  1.0000
  H   H448      1.0  0.41394  0.48125  0.93225  1.0000
  H   H449      1.0  0.43452  0.45311  0.42767  1.0000
  H   H450      1.0  0.41117  0.48518  0.03358  1.0000
  C   C296      1.0  0.40955  0.48662  0.93890  1.0000
  C   C297      1.0  0.48766  0.44293  0.32854  1.0000
  H   H451      1.0  0.45800  0.42458  0.74560  1.0000
  C   C298      1.0  0.50006  0.43685  0.78885  1.0000
  C   C299      1.0  0.49106  0.43079  0.27849  1.0000
  H   H452      1.0  0.41376  0.47681  0.00494  1.0000
  C   C300      1.0  0.48303  0.44317  0.29853  1.0000
  C   C301      1.0  0.46276  0.43223  0.73013  1.0000
  C   C302      1.0  0.49356  0.42493  0.08868  1.0000
  H   H453      1.0  0.48103  0.43716  0.25079  1.0000
  H   H454      1.0  0.47824  0.44810  0.29434  1.0000
  C   C303      1.0  0.43502  0.49121  0.81406  1.0000
  C   C304      1.0  0.44021  0.48384  0.81937  1.0000
  C   C305      1.0  0.44333  0.47974  0.78807  1.0000
  C   C306      1.0  0.44109  0.48284  0.75170  1.0000
  C   C307      1.0  0.49394  0.41453  0.15310  1.0000
  C   C308      1.0  0.49383  0.43650  0.33381  1.0000
  H   H455      1.0  0.44186  0.48134  0.84764  1.0000
  H   H456      1.0  0.44730  0.47402  0.79238  1.0000
  H   H457      1.0  0.49258  0.45471  0.72921  1.0000
  H   H458      1.0  0.46096  0.43658  0.75158  1.0000
  H   H459      1.0  0.46191  0.49051  0.80311  1.0000
  C   C309      1.0  0.43689  0.49343  0.25011  1.0000
  C   C310      1.0  0.44310  0.48689  0.24966  1.0000
  C   C311      1.0  0.44868  0.48576  0.27656  1.0000
  C   C312      1.0  0.44825  0.49146  0.30296  1.0000
  H   H460      1.0  0.41134  0.49263  0.90938  1.0000
  H   H461      1.0  0.47963  0.43858  0.85747  1.0000
  H   H462      1.0  0.44339  0.48253  0.22905  1.0000
  H   H463      1.0  0.45260  0.49084  0.32324  1.0000
  C   C313      1.0  0.49339  0.48791  0.74539  1.0000
  C   C314      1.0  0.40947  0.48240  0.00913  1.0000
  C   C315      1.0  0.43286  0.49439  0.77758  1.0000
  N   N28       1.0  0.41192  0.49059  0.97050  1.0000
  H   H464      1.0  0.47074  0.49997  0.71133  1.0000
  C   C316      1.0  0.48541  0.44026  0.82865  1.0000
  C   C317      1.0  0.49565  0.43059  0.30851  1.0000
  H   H465      1.0  0.40159  0.48285  0.94829  1.0000
  C   C318      1.0  0.43606  0.49868  0.27821  1.0000
  H   H466      1.0  0.49733  0.43618  0.35729  1.0000
  H   H467      1.0  0.48743  0.41915  0.08881  1.0000
  H   H468      1.0  0.47774  0.44728  0.71804  1.0000
  H   H469      1.0  0.47375  0.42957  0.66194  1.0000
  H   H470      1.0  0.50190  0.43207  0.15994  1.0000
  H   H471      1.0  0.40149  0.47854  0.02061  1.0000
  C   C319      1.0  0.48506  0.44713  0.79340  1.0000
  H   H472      1.0  0.47757  0.42109  0.15426  1.0000
  H   H473      1.0  0.45797  0.49745  0.74018  1.0000
  H   H474      1.0  0.43830  0.45632  0.37289  1.0000
  H   H475      1.0  0.48341  0.42634  0.68167  1.0000
  C   C320      1.0  0.49258  0.44925  0.75635  1.0000
  H   H476      1.0  0.48390  0.42843  0.74900  1.0000
  C   C321      1.0  0.43578  0.49011  0.74666  1.0000
  H   H477      1.0  0.48359  0.43408  0.13680  1.0000
  N   N29       1.0  0.47335  0.43231  0.71870  1.0000
  S   S127      1.0  0.49344  0.49893  0.32118  1.0000
  C   C322      1.0  0.49684  0.48696  0.77907  1.0000
  N   N30       1.0  0.43068  0.46613  0.39704  1.0000
  C   C323      1.0  0.43987  0.47282  0.39444  1.0000
  C   C324      1.0  0.42793  0.46993  0.35986  1.0000
  C   C325      1.0  0.42270  0.46565  0.43363  1.0000
  C   C326      1.0  0.43230  0.45614  0.40021  1.0000
  H   H478      1.0  0.44217  0.47020  0.42201  1.0000
  H   H479      1.0  0.43901  0.48046  0.39168  1.0000
  H   H480      1.0  0.44602  0.47326  0.36733  1.0000
  H   H481      1.0  0.42082  0.46530  0.36142  1.0000
  H   H482      1.0  0.42718  0.47768  0.35512  1.0000
  H   H483      1.0  0.43362  0.46997  0.33189  1.0000
  H   H484      1.0  0.42463  0.46295  0.46213  1.0000
  H   H485      1.0  0.41566  0.46058  0.43692  1.0000
  H   H486      1.0  0.42130  0.47309  0.43185  1.0000
  H   H487      1.0  0.42552  0.45085  0.40236  1.0000
  C   C327      1.0  0.42256  0.49549  0.95646  1.0000
  H   H488      1.0  0.46065  0.43560  0.70275  1.0000
  C   C328      1.0  0.49295  0.43521  0.82651  1.0000
  H   H489      1.0  0.42470  0.49828  0.98004  1.0000
  C   C329      1.0  0.49644  0.49690  0.71344  1.0000
  H   H490      1.0  0.50200  0.43957  0.11108  1.0000
  H   H491      1.0  0.50057  0.42374  0.07105  1.0000
  C   C330      1.0  0.48464  0.43700  0.27386  1.0000
  H   H492      1.0  0.43243  0.49408  0.22996  1.0000
  N   N31       1.0  0.49071  0.49060  0.47452  1.0000
  H   H493      1.0  0.48755  0.40869  0.15552  1.0000
  H   H494      1.0  0.43401  0.49250  0.71860  1.0000
  H   H495      1.0  0.48382  0.42619  0.18440  1.0000
  C   C331      1.0  0.49174  0.48893  0.51575  1.0000
  H   H496      1.0  0.48877  0.49419  0.53055  1.0000
  C   C332      1.0  0.48020  0.48950  0.47756  1.0000
  H   H497      1.0  0.49028  0.47554  0.47598  1.0000
  C   C333      1.0  0.48419  0.42656  0.15240  1.0000
  H   H498      1.0  0.49295  0.42966  0.85356  1.0000
  N   N32       1.0  0.49342  0.42450  0.13072  1.0000
  H   H499      1.0  0.48762  0.48131  0.53637  1.0000
  H   H500      1.0  0.42882  0.50003  0.77336  1.0000
  H   H501      1.0  0.49960  0.48975  0.51447  1.0000
  H   H502      1.0  0.49387  0.48430  0.42569  1.0000
  H   H503      1.0  0.49394  0.41398  0.18482  1.0000
  H   H504      1.0  0.39804  0.49451  0.98735  1.0000
  H   H505      1.0  0.48735  0.44304  0.68937  1.0000
  C   C334      1.0  0.49448  0.48324  0.45687  1.0000
  H   H506      1.0  0.47483  0.49345  0.77525  1.0000
  H   H507      1.0  0.42718  0.49036  0.94908  1.0000
  H   H508      1.0  0.40762  0.50092  0.00154  1.0000
  H   H509      1.0  0.40793  0.50426  0.94920  1.0000
  H   H510      1.0  0.49430  0.48005  0.80403  1.0000
  H   H511      1.0  0.50238  0.48378  0.45437  1.0000
  H   H512      1.0  0.50000  0.48097  0.33588  1.0000
  H   H513      1.0  0.47074  0.49794  0.81755  1.0000
  N   N33       1.0  0.46795  0.50550  0.76269  1.0000
  C   C335      1.0  0.46889  0.49645  0.79093  1.0000
  H   H514      1.0  0.45301  0.50394  0.79860  1.0000
  C   C336      1.0  0.50197  0.43199  0.12880  1.0000
  H   H515      1.0  0.50045  0.42570  0.31285  1.0000
  C   C337      1.0  0.49639  0.50070  0.44779  1.0000
  H   H516      1.0  0.50077  0.41268  0.13762  1.0000
  C   C338      1.0  0.46515  0.50306  0.72871  1.0000
  H   H517      1.0  0.50010  0.46524  0.28376  1.0000
  H   H518      1.0  0.49399  0.50645  0.46081  1.0000
  C   C339      1.0  0.50337  0.49599  0.33676  1.0000
  H   H519      1.0  0.50113  0.50233  0.58824  1.0000
  S   S128      1.0  0.42718  0.50561  0.28453  1.0000
  C   C340      1.0  0.50329  0.50480  0.71435  1.0000
  C   C341      1.0  0.50360  0.49489  0.78024  1.0000
  H   H520      1.0  0.47473  0.50637  0.29895  1.0000
  Fe  Fe63      1.0  0.47226  0.55353  0.29259  1.0000
  S   S129      1.0  0.47995  0.55449  0.33879  1.0000
  S   S130      1.0  0.45901  0.54151  0.30452  1.0000
  Fe  Fe64      1.0  0.48270  0.57098  0.30882  1.0000
  S   S131      1.0  0.48113  0.58183  0.34455  1.0000
  S   S132      1.0  0.47390  0.56983  0.26629  1.0000
  S   S133      1.0  0.42245  0.53387  0.13268  1.0000
  H   H521      1.0  0.46749  0.61896  0.67999  1.0000
  Fe  Fe65      1.0  0.43410  0.53461  0.16317  1.0000
  S   S134      1.0  0.44752  0.54715  0.14369  1.0000
  H   H522      1.0  0.45727  0.58542  0.77629  1.0000
  Fe  Fe66      1.0  0.44120  0.61139  0.39399  1.0000
  S   S135      1.0  0.43240  0.60867  0.45928  1.0000
  S   S136      1.0  0.44233  0.59794  0.37295  1.0000
  Fe  Fe67      1.0  0.44202  0.63370  0.37208  1.0000
  S   S137      1.0  0.43362  0.63258  0.43640  1.0000
  S   S138      1.0  0.44548  0.64730  0.31692  1.0000
  Fe  Fe68      1.0  0.44298  0.62238  0.45538  1.0000
  S   S139      1.0  0.44891  0.61980  0.50916  1.0000
  Fe  Fe69      1.0  0.42393  0.61898  0.43470  1.0000
  S   S140      1.0  0.40736  0.61452  0.46052  1.0000
  S   S141      1.0  0.45240  0.62462  0.39067  1.0000
  S   S142      1.0  0.43177  0.62062  0.36968  1.0000
  Fe  Fe70      1.0  0.37169  0.57891  0.31669  1.0000
  S   S143      1.0  0.37219  0.58505  0.36816  1.0000
  S   S144      1.0  0.35968  0.57742  0.28769  1.0000
  Fe  Fe71      1.0  0.39305  0.57734  0.29700  1.0000
  S   S145      1.0  0.39560  0.58384  0.34514  1.0000
  S   S146      1.0  0.40552  0.57357  0.25512  1.0000
  Fe  Fe72      1.0  0.38081  0.57386  0.38499  1.0000
  S   S147      1.0  0.38062  0.56475  0.44728  1.0000
  Fe  Fe73      1.0  0.38688  0.59443  0.32473  1.0000
  S   S148      1.0  0.39143  0.61065  0.31562  1.0000
  S   S149      1.0  0.37875  0.56662  0.33781  1.0000
  S   S150      1.0  0.38589  0.58912  0.27214  1.0000
  Fe  Fe74      1.0  0.47264  0.56120  0.91688  1.0000
  H   H523      1.0  0.30462  0.62776  0.02436  1.0000
  S   S151      1.0  0.45687  0.55420  0.92733  1.0000
  H   H524      1.0  0.29535  0.61747  0.06343  1.0000
  H   H525      1.0  0.45790  0.59578  0.79541  1.0000
  S   S152      1.0  0.47389  0.56954  0.96027  1.0000
  Fe  Fe75      1.0  0.43695  0.62554  0.72540  1.0000
  S   S153      1.0  0.44383  0.63330  0.76241  1.0000
  S   S154      1.0  0.43568  0.63391  0.66459  1.0000
  Fe  Fe76      1.0  0.43146  0.60546  0.79016  1.0000
  S   S155      1.0  0.43758  0.61133  0.83314  1.0000
  S   S156      1.0  0.42483  0.58929  0.80384  1.0000
  Fe  Fe77      1.0  0.43043  0.62390  0.81556  1.0000
  S   S157      1.0  0.42063  0.62824  0.86581  1.0000
  Fe  Fe78      1.0  0.45037  0.62015  0.77702  1.0000
  S   S158      1.0  0.46634  0.61963  0.76538  1.0000
  S   S159      1.0  0.42315  0.61705  0.77743  1.0000
  S   S160      1.0  0.44468  0.61338  0.73523  1.0000
  Fe  Fe79      1.0  0.39530  0.58064  0.67383  1.0000
  S   S161      1.0  0.38668  0.57538  0.74040  1.0000
  S   S162      1.0  0.41177  0.58544  0.65228  1.0000
  Fe  Fe80      1.0  0.37713  0.57856  0.64732  1.0000
  S   S163      1.0  0.36681  0.57294  0.71216  1.0000
  S   S164      1.0  0.37100  0.58198  0.59480  1.0000
  Fe  Fe81      1.0  0.37678  0.58494  0.72276  1.0000
  S   S165      1.0  0.37301  0.59561  0.75745  1.0000
  Fe  Fe82      1.0  0.37762  0.56393  0.72386  1.0000
  S   S166      1.0  0.37310  0.54828  0.76559  1.0000
  S   S167      1.0  0.38629  0.59126  0.65710  1.0000
  S   S168      1.0  0.38707  0.56847  0.65814  1.0000
  Fe  Fe83      1.0  0.43486  0.53314  0.80306  1.0000
  S   S169      1.0  0.43070  0.52190  0.77370  1.0000
  S   S170      1.0  0.44845  0.54561  0.77375  1.0000
  Fe  Fe84      1.0  0.41541  0.52398  0.79674  1.0000
  C   C342      1.0  0.45304  0.58864  0.79824  1.0000
  S   S171      1.0  0.41994  0.53603  0.82202  1.0000
  S   S172      1.0  0.26364  0.59888  0.22294  1.0000
  Fe  Fe85      1.0  0.31697  0.62686  0.20839  1.0000
  S   S173      1.0  0.33020  0.63694  0.15679  1.0000
  S   S174      1.0  0.30241  0.63030  0.20352  1.0000
  Fe  Fe86      1.0  0.32998  0.61646  0.24990  1.0000
  S   S175      1.0  0.34411  0.62558  0.20132  1.0000
  S   S176      1.0  0.33118  0.60604  0.30676  1.0000
  Fe  Fe87      1.0  0.33750  0.63846  0.20388  1.0000
  S   S177      1.0  0.34684  0.65384  0.19188  1.0000
  Fe  Fe88      1.0  0.33590  0.62346  0.15767  1.0000
  S   S178      1.0  0.34411  0.62315  0.09508  1.0000
  S   S179      1.0  0.32379  0.62957  0.25590  1.0000
  S   S180      1.0  0.32216  0.61307  0.20603  1.0000
  Fe  Fe89      1.0  0.48806  0.56966  0.22233  1.0000
  H   H526      1.0  0.48517  0.63466  0.61343  1.0000
  H   H527      1.0  0.31008  0.73219  0.10396  1.0000
  H   H528      1.0  0.27947  0.73037  0.11878  1.0000
  H   H529      1.0  0.45963  0.61892  0.64853  1.0000
  H   H530      1.0  0.47227  0.58569  0.00580  1.0000
  H   H531      1.0  0.40959  0.64059  0.31568  1.0000
  H   H532      1.0  0.39856  0.64058  0.40126  1.0000
  H   H533      1.0  0.41777  0.55304  0.65992  1.0000
  C   C343      1.0  0.42391  0.55119  0.67133  1.0000
  Fe  Fe90      1.0  0.41104  0.68296  0.26800  1.0000
  S   S181      1.0  0.39568  0.68423  0.29608  1.0000
  S   S182      1.0  0.41809  0.67752  0.31657  1.0000
  Fe  Fe91      1.0  0.40950  0.68969  0.18214  1.0000
  S   S183      1.0  0.39405  0.69125  0.20435  1.0000
  S   S184      1.0  0.41635  0.69393  0.11365  1.0000
  Fe  Fe92      1.0  0.39983  0.69867  0.24511  1.0000
  S   S185      1.0  0.39600  0.71318  0.24955  1.0000
  Fe  Fe93      1.0  0.39152  0.67671  0.25282  1.0000
  S   S186      1.0  0.37918  0.66256  0.27782  1.0000
  S   S187      1.0  0.41547  0.69796  0.21980  1.0000
  S   S188      1.0  0.40667  0.67464  0.22767  1.0000
  Fe  Fe94      1.0  0.37638  0.66840  0.94037  1.0000
  S   S189      1.0  0.38563  0.67994  0.88048  1.0000
  S   S190      1.0  0.36076  0.65873  0.96368  1.0000
  Fe  Fe95      1.0  0.39244  0.67171  0.97975  1.0000
  S   S191      1.0  0.40302  0.68350  0.92366  1.0000
  S   S192      1.0  0.39469  0.66499  0.03982  1.0000
  Fe  Fe96      1.0  0.38971  0.68928  0.91868  1.0000
  S   S193      1.0  0.38756  0.70493  0.90951  1.0000
  Fe  Fe97      1.0  0.39816  0.67317  0.89060  1.0000
  S   S194      1.0  0.40960  0.66986  0.84205  1.0000
  S   S195      1.0  0.37954  0.67816  0.97764  1.0000
  S   S196      1.0  0.38856  0.66104  0.94737  1.0000
  C   C344      1.0  0.43372  0.55379  0.71469  1.0000
  H   H534      1.0  0.34134  0.54004  0.68286  1.0000
  H   H535      1.0  0.38649  0.63981  0.39582  1.0000
  H   H536      1.0  0.42180  0.54304  0.68704  1.0000
  C   C345      1.0  0.46717  0.62209  0.64844  1.0000
  H   H537      1.0  0.40225  0.65896  0.36666  1.0000
  S   S197      1.0  0.40779  0.52653  0.74879  1.0000
  H   H538      1.0  0.34711  0.55276  0.61430  1.0000
  H   H539      1.0  0.41250  0.65375  0.29246  1.0000
  H   H540      1.0  0.47242  0.61940  0.62755  1.0000
  Fe  Fe98      1.0  0.31834  0.60792  0.95312  1.0000
  S   S198      1.0  0.31514  0.62265  0.92986  1.0000
  S   S199      1.0  0.31588  0.60105  0.02019  1.0000
  Fe  Fe99      1.0  0.32438  0.60534  0.86921  1.0000
  S   S200      1.0  0.32181  0.61994  0.83913  1.0000
  S   S201      1.0  0.32809  0.59515  0.83220  1.0000
  Fe  Fe100     1.0  0.32935  0.62568  0.87927  1.0000
  S   S202      1.0  0.34156  0.63982  0.85134  1.0000
  Fe  Fe101     1.0  0.30783  0.61541  0.89231  1.0000
  S   S203      1.0  0.29333  0.61801  0.88370  1.0000
  S   S204      1.0  0.33304  0.61136  0.90515  1.0000
  S   S205      1.0  0.30989  0.60043  0.91996  1.0000
  C   C346      1.0  0.26930  0.59599  0.86580  1.0000
  C   C347      1.0  0.27775  0.59317  0.87227  1.0000
  C   C348      1.0  0.28517  0.59981  0.87795  1.0000
  C   C349      1.0  0.28434  0.60944  0.87597  1.0000
  C   C350      1.0  0.27597  0.61229  0.86900  1.0000
  C   C351      1.0  0.26846  0.60559  0.86423  1.0000
  N   N34       1.0  0.36436  0.62525  0.91101  1.0000
  H   H541      1.0  0.29143  0.59745  0.88456  1.0000
  H   H542      1.0  0.27524  0.61971  0.86752  1.0000
  H   H543      1.0  0.26206  0.60790  0.85879  1.0000
  C   C352      1.0  0.35524  0.65400  0.93171  1.0000
  C   C353      1.0  0.34624  0.64674  0.94951  1.0000
  C   C354      1.0  0.34190  0.64239  0.92519  1.0000
  C   C355      1.0  0.34644  0.64546  0.88275  1.0000
  C   C356      1.0  0.35533  0.65284  0.86491  1.0000
  C   C357      1.0  0.35977  0.65706  0.88931  1.0000
  H   H544      1.0  0.34271  0.64435  0.98233  1.0000
  H   H545      1.0  0.33506  0.63670  0.93921  1.0000
  H   H546      1.0  0.35887  0.65524  0.83209  1.0000
  H   H547      1.0  0.36668  0.66267  0.87531  1.0000
  C   C358      1.0  0.39510  0.71472  0.91762  1.0000
  C   C359      1.0  0.39164  0.72317  0.91999  1.0000
  C   C360      1.0  0.39748  0.73126  0.92514  1.0000
  C   C361      1.0  0.40691  0.73103  0.92759  1.0000
  C   C362      1.0  0.41037  0.72256  0.92546  1.0000
  C   C363      1.0  0.40446  0.71441  0.92081  1.0000
  H   H548      1.0  0.38439  0.72346  0.91791  1.0000
  H   H549      1.0  0.39471  0.73771  0.92698  1.0000
  H   H550      1.0  0.41768  0.72234  0.92713  1.0000
  H   H551      1.0  0.40725  0.70799  0.91872  1.0000
  C   C364      1.0  0.41055  0.68575  0.09302  1.0000
  C   C365      1.0  0.41294  0.68796  0.05041  1.0000
  C   C366      1.0  0.40789  0.68179  0.03370  1.0000
  C   C367      1.0  0.40067  0.67322  0.05964  1.0000
  C   C368      1.0  0.39836  0.67096  0.10214  1.0000
  C   C369      1.0  0.40317  0.67730  0.11881  1.0000
  H   H552      1.0  0.41870  0.69444  0.03033  1.0000
  H   H553      1.0  0.40974  0.68353  0.00085  1.0000
  H   H554      1.0  0.39278  0.66434  0.12233  1.0000
  H   H555      1.0  0.40120  0.67559  0.15167  1.0000
  H   H556      1.0  0.39320  0.63860  0.30713  1.0000
  H   H557      1.0  0.35834  0.56214  0.59904  1.0000
  H   H558      1.0  0.48039  0.63409  0.66610  1.0000
  H   H559      1.0  0.40128  0.66342  0.31657  1.0000
  H   H560      1.0  0.46294  0.63361  0.69599  1.0000
  H   H561      1.0  0.46111  0.63416  0.59344  1.0000
  H   H562      1.0  0.39399  0.63226  0.37693  1.0000
  H   H563      1.0  0.39030  0.65767  0.35934  1.0000
  H   H564      1.0  0.47050  0.64509  0.58300  1.0000
  H   H565      1.0  0.47381  0.63445  0.57122  1.0000
  H   H566      1.0  0.39591  0.65174  0.28228  1.0000
  C   C370      1.0  0.41479  0.73706  0.28216  1.0000
  C   C371      1.0  0.40678  0.73872  0.26872  1.0000
  C   C372      1.0  0.40137  0.73144  0.25780  1.0000
  C   C373      1.0  0.40359  0.72222  0.26146  1.0000
  C   C374      1.0  0.41158  0.72047  0.27497  1.0000
  C   C375      1.0  0.41718  0.72789  0.28511  1.0000
  H   H567      1.0  0.40467  0.74558  0.26703  1.0000
  H   H568      1.0  0.39541  0.73298  0.24640  1.0000
  H   H569      1.0  0.41341  0.71340  0.27799  1.0000
  H   H570      1.0  0.42333  0.72646  0.29557  1.0000
  C   C376      1.0  0.33672  0.61657  0.07388  1.0000
  C   C377      1.0  0.33845  0.61971  0.03145  1.0000
  C   C378      1.0  0.33217  0.61490  0.01443  1.0000
  C   C379      1.0  0.32433  0.60677  0.03977  1.0000
  C   C380      1.0  0.32287  0.60342  0.08190  1.0000
  C   C381      1.0  0.32894  0.60841  0.09905  1.0000
  H   H571      1.0  0.34438  0.62610  0.01207  1.0000
  H   H572      1.0  0.33328  0.61758  0.98193  1.0000
  H   H573      1.0  0.31687  0.59708  0.10151  1.0000
  H   H574      1.0  0.32766  0.60587  0.13172  1.0000
  C   C382      1.0  0.35606  0.65595  0.21499  1.0000
  C   C383      1.0  0.35647  0.64876  0.24898  1.0000
  C   C384      1.0  0.36362  0.65088  0.26778  1.0000
  C   C385      1.0  0.37054  0.66012  0.25235  1.0000
  C   C386      1.0  0.37028  0.66722  0.21776  1.0000
  C   C387      1.0  0.36301  0.66517  0.19942  1.0000
  H   H575      1.0  0.35103  0.64173  0.26158  1.0000
  H   H576      1.0  0.36367  0.64543  0.29495  1.0000
  H   H577      1.0  0.37555  0.67436  0.20567  1.0000
  H   H578      1.0  0.36270  0.67080  0.17333  1.0000
  H   H579      1.0  0.38502  0.64577  0.32544  1.0000
  C   C388      1.0  0.40891  0.64763  0.32197  1.0000
  H   H580      1.0  0.43656  0.57382  0.83416  1.0000
  H   H581      1.0  0.44710  0.56875  0.82238  1.0000
  C   C389      1.0  0.27441  0.60767  0.21728  1.0000
  C   C390      1.0  0.27546  0.61784  0.20081  1.0000
  C   C391      1.0  0.28415  0.62463  0.19626  1.0000
  C   C392      1.0  0.29181  0.62136  0.20872  1.0000
  C   C393      1.0  0.29081  0.61120  0.22492  1.0000
  C   C394      1.0  0.28216  0.60439  0.22897  1.0000
  H   H582      1.0  0.30766  0.61633  0.04388  1.0000
  H   H583      1.0  0.28495  0.63244  0.18273  1.0000
  H   H584      1.0  0.29666  0.60857  0.23459  1.0000
  H   H585      1.0  0.28141  0.59652  0.24164  1.0000
  C   C395      1.0  0.38306  0.54266  0.76116  1.0000
  C   C396      1.0  0.38890  0.54298  0.72261  1.0000
  C   C397      1.0  0.39639  0.53791  0.71933  1.0000
  C   C398      1.0  0.39833  0.53279  0.75442  1.0000
  C   C399      1.0  0.39276  0.53278  0.79291  1.0000
  C   C400      1.0  0.38500  0.53755  0.79632  1.0000
  H   H586      1.0  0.38738  0.54681  0.69541  1.0000
  N   N35       1.0  0.47728  0.52140  0.29980  1.0000
  H   H587      1.0  0.39422  0.52884  0.82012  1.0000
  H   H588      1.0  0.38050  0.53727  0.82621  1.0000
  C   C401      1.0  0.36050  0.59543  0.77795  1.0000
  C   C402      1.0  0.35299  0.58878  0.77354  1.0000
  C   C403      1.0  0.34308  0.58876  0.79038  1.0000
  C   C404      1.0  0.34061  0.59537  0.81175  1.0000
  C   C405      1.0  0.34811  0.60205  0.81610  1.0000
  C   C406      1.0  0.35803  0.60207  0.79925  1.0000
  H   H589      1.0  0.35481  0.58365  0.75721  1.0000
  H   H590      1.0  0.33730  0.58357  0.78697  1.0000
  H   H591      1.0  0.34627  0.60723  0.83217  1.0000
  H   H592      1.0  0.36381  0.60728  0.80248  1.0000
  C   C407      1.0  0.41722  0.63965  0.85710  1.0000
  C   C408      1.0  0.40967  0.64086  0.88795  1.0000
  C   C409      1.0  0.40696  0.64992  0.88300  1.0000
  C   C410      1.0  0.41194  0.65797  0.84746  1.0000
  C   C411      1.0  0.41942  0.65672  0.81641  1.0000
  C   C412      1.0  0.42202  0.64759  0.82105  1.0000
  H   H593      1.0  0.40591  0.63475  0.91589  1.0000
  H   H594      1.0  0.40111  0.65068  0.90694  1.0000
  H   H595      1.0  0.42331  0.66288  0.78875  1.0000
  H   H596      1.0  0.42784  0.64675  0.79703  1.0000
  C   C413      1.0  0.42162  0.58779  0.76129  1.0000
  C   C414      1.0  0.41525  0.57901  0.76438  1.0000
  C   C415      1.0  0.41212  0.57824  0.73093  1.0000
  C   C416      1.0  0.41576  0.58607  0.69394  1.0000
  C   C417      1.0  0.42241  0.59463  0.69054  1.0000
  C   C418      1.0  0.42507  0.59560  0.72447  1.0000
  H   H597      1.0  0.41247  0.57296  0.79295  1.0000
  H   H598      1.0  0.40690  0.57162  0.73372  1.0000
  H   H599      1.0  0.42529  0.60068  0.66207  1.0000
  H   H600      1.0  0.42973  0.60248  0.72189  1.0000
  C   C419      1.0  0.47610  0.60158  0.86764  1.0000
  C   C420      1.0  0.46824  0.60601  0.87731  1.0000
  C   C421      1.0  0.46491  0.61121  0.84636  1.0000
  C   C422      1.0  0.46966  0.61231  0.80535  1.0000
  C   C423      1.0  0.47742  0.60777  0.79572  1.0000
  C   C424      1.0  0.48054  0.60230  0.82680  1.0000
  H   H601      1.0  0.46483  0.60556  0.90877  1.0000
  H   H602      1.0  0.45898  0.61475  0.85408  1.0000
  H   H603      1.0  0.48115  0.60861  0.76407  1.0000
  H   H604      1.0  0.48666  0.59899  0.81900  1.0000
  C   C425      1.0  0.45473  0.55222  0.88375  1.0000
  C   C426      1.0  0.46240  0.55498  0.84664  1.0000
  C   C427      1.0  0.46046  0.55330  0.81207  1.0000
  C   C428      1.0  0.45088  0.54876  0.81498  1.0000
  C   C429      1.0  0.44322  0.54624  0.85188  1.0000
  C   C430      1.0  0.44514  0.54793  0.88625  1.0000
  H   H605      1.0  0.46985  0.55821  0.84472  1.0000
  H   H606      1.0  0.46641  0.55521  0.78361  1.0000
  H   H607      1.0  0.43577  0.54292  0.85421  1.0000
  H   H608      1.0  0.43918  0.54581  0.91489  1.0000
  C   C431      1.0  0.37886  0.57026  0.48634  1.0000
  C   C432      1.0  0.38156  0.56635  0.52108  1.0000
  C   C433      1.0  0.37977  0.57030  0.55362  1.0000
  C   C434      1.0  0.37498  0.57799  0.55201  1.0000
  C   C435      1.0  0.37251  0.58205  0.51686  1.0000
  C   C436      1.0  0.37458  0.57829  0.48383  1.0000
  H   H609      1.0  0.38494  0.56016  0.52299  1.0000
  H   H610      1.0  0.38181  0.56719  0.58034  1.0000
  H   H611      1.0  0.36882  0.58801  0.51542  1.0000
  H   H612      1.0  0.37250  0.58137  0.45714  1.0000
  C   C437      1.0  0.35197  0.58558  0.29268  1.0000
  C   C438      1.0  0.34889  0.58996  0.25964  1.0000
  C   C439      1.0  0.34262  0.59638  0.26335  1.0000
  C   C440      1.0  0.33913  0.59816  0.30062  1.0000
  C   C441      1.0  0.34219  0.59373  0.33366  1.0000
  C   C442      1.0  0.34872  0.58759  0.32953  1.0000
  H   H613      1.0  0.35135  0.58840  0.23110  1.0000
  H   H614      1.0  0.34028  0.59976  0.23774  1.0000
  H   H615      1.0  0.33946  0.59504  0.36261  1.0000
  H   H616      1.0  0.35096  0.58415  0.35530  1.0000
  C   C443      1.0  0.44453  0.62350  0.55247  1.0000
  C   C444      1.0  0.44480  0.61784  0.59047  1.0000
  C   C445      1.0  0.44176  0.62077  0.62539  1.0000
  C   C446      1.0  0.43871  0.62955  0.62226  1.0000
  C   C447      1.0  0.43834  0.63517  0.58437  1.0000
  C   C448      1.0  0.44120  0.63213  0.54956  1.0000
  H   H617      1.0  0.44732  0.61112  0.59288  1.0000
  H   H618      1.0  0.44186  0.61629  0.65456  1.0000
  H   H619      1.0  0.43600  0.64199  0.58174  1.0000
  H   H620      1.0  0.44113  0.63663  0.52022  1.0000
  C   C449      1.0  0.43742  0.65528  0.31722  1.0000
  C   C450      1.0  0.43226  0.65662  0.35365  1.0000
  C   C451      1.0  0.42644  0.66353  0.35281  1.0000
  C   C452      1.0  0.42548  0.66893  0.31575  1.0000
  C   C453      1.0  0.43043  0.66743  0.27938  1.0000
  C   C454      1.0  0.43649  0.66072  0.28010  1.0000
  H   H621      1.0  0.43305  0.65261  0.38229  1.0000
  H   H622      1.0  0.42271  0.66472  0.38101  1.0000
  H   H623      1.0  0.42982  0.67162  0.25061  1.0000
  H   H624      1.0  0.44053  0.65978  0.25177  1.0000
  C   C455      1.0  0.40235  0.61410  0.42107  1.0000
  C   C456      1.0  0.39354  0.60714  0.42904  1.0000
  C   C457      1.0  0.39017  0.60599  0.39661  1.0000
  C   C458      1.0  0.39544  0.61205  0.35646  1.0000
  C   C459      1.0  0.40402  0.61925  0.34875  1.0000
  C   C460      1.0  0.40745  0.62029  0.38104  1.0000
  H   H625      1.0  0.38947  0.60243  0.46006  1.0000
  H   H626      1.0  0.38350  0.60043  0.40273  1.0000
  H   H627      1.0  0.40817  0.62381  0.31763  1.0000
  H   H628      1.0  0.41404  0.62594  0.37490  1.0000
  C   C461      1.0  0.40065  0.54349  0.23364  1.0000
  C   C462      1.0  0.40900  0.55111  0.20875  1.0000
  C   C463      1.0  0.41045  0.56029  0.21581  1.0000
  C   C464      1.0  0.40366  0.56185  0.24818  1.0000
  C   C465      1.0  0.39554  0.55410  0.27408  1.0000
  H   H629      1.0  0.46385  0.64446  0.65528  1.0000
  H   H630      1.0  0.41417  0.55001  0.18324  1.0000
  H   H631      1.0  0.41675  0.56627  0.19569  1.0000
  H   H632      1.0  0.35147  0.61569  0.29330  1.0000
  H   H633      1.0  0.41331  0.64859  0.34262  1.0000
  C   C466      1.0  0.47034  0.58632  0.35213  1.0000
  C   C467      1.0  0.46995  0.59433  0.36756  1.0000
  C   C468      1.0  0.46145  0.59803  0.37387  1.0000
  C   C469      1.0  0.45325  0.59369  0.36503  1.0000
  C   C470      1.0  0.45360  0.58563  0.34999  1.0000
  C   C471      1.0  0.46211  0.58197  0.34353  1.0000
  H   H634      1.0  0.47627  0.59772  0.37442  1.0000
  H   H635      1.0  0.46125  0.60423  0.38556  1.0000
  H   H636      1.0  0.44729  0.58222  0.34322  1.0000
  H   H637      1.0  0.46224  0.57572  0.33230  1.0000
  C   C472      1.0  0.45687  0.54264  0.25772  1.0000
  C   C473      1.0  0.45057  0.53485  0.25341  1.0000
  C   C474      1.0  0.44837  0.53600  0.21683  1.0000
  C   C475      1.0  0.45217  0.54502  0.18501  1.0000
  C   C476      1.0  0.45883  0.55265  0.18867  1.0000
  C   C477      1.0  0.46123  0.55142  0.22491  1.0000
  H   H638      1.0  0.44727  0.52798  0.27846  1.0000
  H   H639      1.0  0.44348  0.52993  0.21399  1.0000
  H   H640      1.0  0.46193  0.55960  0.16425  1.0000
  H   H641      1.0  0.46622  0.55741  0.22771  1.0000
  H   H642      1.0  0.44668  0.59040  0.78827  1.0000
  N   N36       1.0  0.37007  0.72543  0.30896  1.0000
  C   C478      1.0  0.36526  0.73266  0.32372  1.0000
  C   C479      1.0  0.37796  0.72385  0.32733  1.0000
  C   C480      1.0  0.37438  0.72928  0.26387  1.0000
  C   C481      1.0  0.36271  0.71592  0.32077  1.0000
  H   H643      1.0  0.37065  0.73991  0.31550  1.0000
  H   H644      1.0  0.36182  0.72998  0.35759  1.0000
  H   H645      1.0  0.35937  0.73416  0.30989  1.0000
  H   H646      1.0  0.38360  0.73090  0.31942  1.0000
  H   H647      1.0  0.37497  0.72080  0.36132  1.0000
  H   H648      1.0  0.38187  0.71854  0.31629  1.0000
  H   H649      1.0  0.37813  0.72403  0.25163  1.0000
  H   H650      1.0  0.37994  0.73645  0.25394  1.0000
  H   H651      1.0  0.36864  0.73061  0.24899  1.0000
  H   H652      1.0  0.35667  0.71685  0.30728  1.0000
  H   H653      1.0  0.35929  0.71276  0.35462  1.0000
  H   H654      1.0  0.36616  0.71032  0.30998  1.0000
  N   N37       1.0  0.36386  0.65139  0.08469  1.0000
  C   C482      1.0  0.36266  0.64276  0.12009  1.0000
  C   C483      1.0  0.35412  0.65202  0.07997  1.0000
  C   C484      1.0  0.37023  0.65024  0.04738  1.0000
  C   C485      1.0  0.36842  0.66052  0.09137  1.0000
  H   H655      1.0  0.36991  0.64196  0.12372  1.0000
  H   H656      1.0  0.35895  0.63578  0.11665  1.0000
  H   H657      1.0  0.35816  0.64356  0.14891  1.0000
  H   H658      1.0  0.35483  0.65838  0.05295  1.0000
  H   H659      1.0  0.35041  0.64520  0.07532  1.0000
  H   H660      1.0  0.34913  0.65299  0.10747  1.0000
  H   H661      1.0  0.37142  0.65671  0.02029  1.0000
  H   H662      1.0  0.36682  0.64356  0.04104  1.0000
  H   H663      1.0  0.37760  0.64961  0.04993  1.0000
  H   H664      1.0  0.36978  0.66716  0.06465  1.0000
  H   H665      1.0  0.37559  0.66015  0.09672  1.0000
  H   H666      1.0  0.36359  0.66173  0.11855  1.0000
  N   N38       1.0  0.27907  0.64275  0.27090  1.0000
  H   H667      1.0  0.26585  0.71787  0.95292  1.0000
  N   N39       1.0  0.42583  0.75013  0.14314  1.0000
  S   S206      1.0  0.41199  0.51159  0.20284  1.0000
  H   H668      1.0  0.26426  0.64229  0.26950  1.0000
  C   C486      1.0  0.26186  0.65794  0.20457  1.0000
  C   C487      1.0  0.46634  0.56774  0.06333  1.0000
  H   H669      1.0  0.29305  0.64493  0.28166  1.0000
  S   S207      1.0  0.30804  0.75017  0.04974  1.0000
  H   H670      1.0  0.42148  0.73660  0.19349  1.0000
  H   H671      1.0  0.42888  0.55617  0.22382  1.0000
  H   H672      1.0  0.28602  0.71656  0.83758  1.0000
  Fe  Fe102     1.0  0.31441  0.74713  0.99067  1.0000
  H   H673      1.0  0.49200  0.52132  0.30158  1.0000
  H   H674      1.0  0.44775  0.52300  0.01500  1.0000
  H   H675      1.0  0.32006  0.72948  0.17004  1.0000
  N   N40       1.0  0.30794  0.60270  0.77453  1.0000
  C   C488      1.0  0.30439  0.59863  0.74542  1.0000
  C   C489      1.0  0.31872  0.60699  0.75702  1.0000
  C   C490      1.0  0.30573  0.59467  0.81345  1.0000
  C   C491      1.0  0.30294  0.61048  0.78221  1.0000
  H   H676      1.0  0.30802  0.59273  0.73904  1.0000
  H   H677      1.0  0.30592  0.60449  0.71570  1.0000
  H   H678      1.0  0.29627  0.59531  0.75779  1.0000
  H   H679      1.0  0.32164  0.61015  0.77815  1.0000
  H   H680      1.0  0.32276  0.60127  0.75175  1.0000
  H   H681      1.0  0.32073  0.61302  0.72743  1.0000
  H   H682      1.0  0.30802  0.59754  0.83663  1.0000
  H   H683      1.0  0.30975  0.58888  0.80920  1.0000
  H   H684      1.0  0.29771  0.59098  0.82676  1.0000
  H   H685      1.0  0.29477  0.60761  0.79369  1.0000
  H   H686      1.0  0.30480  0.61689  0.75393  1.0000
  H   H687      1.0  0.30506  0.61339  0.80565  1.0000
  N   N41       1.0  0.39330  0.59312  0.81713  1.0000
  C   C492      1.0  0.38557  0.58378  0.83074  1.0000
  C   C493      1.0  0.40059  0.59164  0.83893  1.0000
  C   C494      1.0  0.38878  0.60107  0.82636  1.0000
  C   C495      1.0  0.39827  0.59599  0.77250  1.0000
  H   H688      1.0  0.37990  0.58456  0.81512  1.0000
  H   H689      1.0  0.38168  0.58139  0.86426  1.0000
  H   H690      1.0  0.38874  0.57766  0.82384  1.0000
  H   H691      1.0  0.40386  0.58545  0.83369  1.0000
  H   H692      1.0  0.40679  0.59837  0.82838  1.0000
  H   H693      1.0  0.39719  0.58982  0.87257  1.0000
  H   H694      1.0  0.39445  0.60821  0.81635  1.0000
  H   H695      1.0  0.38493  0.59918  0.85971  1.0000
  H   H696      1.0  0.38324  0.60234  0.81025  1.0000
  H   H697      1.0  0.40136  0.59000  0.76413  1.0000
  H   H698      1.0  0.40447  0.60274  0.76146  1.0000
  H   H699      1.0  0.39307  0.59752  0.75499  1.0000
  N   N42       1.0  0.41270  0.61382  0.57294  1.0000
  C   C496      1.0  0.41123  0.60420  0.56514  1.0000
  C   C497      1.0  0.41653  0.61299  0.60790  1.0000
  C   C498      1.0  0.40323  0.61668  0.58214  1.0000
  C   C499      1.0  0.41989  0.62144  0.53621  1.0000
  H   H700      1.0  0.40854  0.60459  0.53843  1.0000
  H   H701      1.0  0.40571  0.59829  0.59190  1.0000
  H   H702      1.0  0.41822  0.60175  0.55887  1.0000
  H   H703      1.0  0.41777  0.62012  0.61472  1.0000
  H   H704      1.0  0.41135  0.60719  0.63611  1.0000
  H   H705      1.0  0.42371  0.61094  0.60134  1.0000
  H   H706      1.0  0.40004  0.61704  0.55667  1.0000
  H   H707      1.0  0.40418  0.62407  0.58674  1.0000
  H   H708      1.0  0.39770  0.61127  0.61042  1.0000
  H   H709      1.0  0.42151  0.62874  0.54130  1.0000
  H   H710      1.0  0.41704  0.62251  0.50974  1.0000
  H   H711      1.0  0.42700  0.61933  0.52726  1.0000
  N   N43       1.0  0.39851  0.64761  0.34029  1.0000
  C   C500      1.0  0.39803  0.65730  0.34614  1.0000
  C   C501      1.0  0.39290  0.64581  0.31260  1.0000
  C   C502      1.0  0.39419  0.63972  0.38035  1.0000
  N   N44       1.0  0.46950  0.63303  0.63542  1.0000
  C   C503      1.0  0.46247  0.63625  0.66446  1.0000
  C   C504      1.0  0.47963  0.63691  0.63508  1.0000
  H   H712      1.0  0.45475  0.63331  0.66606  1.0000
  H   H713      1.0  0.37366  0.61928  0.87095  1.0000
  C   C505      1.0  0.44317  0.57246  0.84302  1.0000
  H   H714      1.0  0.43757  0.58807  0.86057  1.0000
  S   S208      1.0  0.48064  0.59581  0.90666  1.0000
  C   C506      1.0  0.46873  0.63686  0.59395  1.0000
  H   H715      1.0  0.35317  0.56658  0.66158  1.0000
  H   H716      1.0  0.48161  0.64515  0.62580  1.0000
  H   H717      1.0  0.43183  0.54567  0.73072  1.0000
  H   H718      1.0  0.38254  0.55979  0.16631  1.0000
  C   C507      1.0  0.35774  0.62660  0.88585  1.0000
  N   N45       1.0  0.44968  0.58177  0.84063  1.0000
  H   H719      1.0  0.44050  0.56710  0.87463  1.0000
  C   C508      1.0  0.40554  0.58766  0.47522  1.0000
  C   C509      1.0  0.35788  0.62206  0.28527  1.0000
  H   H720      1.0  0.35935  0.62648  0.25279  1.0000
  H   H721      1.0  0.35553  0.62671  0.30463  1.0000
  H   H722      1.0  0.30785  0.61077  0.11425  1.0000
  H   H723      1.0  0.44079  0.55560  0.68944  1.0000
  H   H724      1.0  0.38550  0.55363  0.21038  1.0000
  H   H725      1.0  0.40660  0.71344  0.10461  1.0000
  C   C510      1.0  0.45401  0.57477  0.09740  1.0000
  C   C511      1.0  0.44418  0.58639  0.86865  1.0000
  H   H726      1.0  0.46337  0.58645  0.85138  1.0000
  H   H727      1.0  0.37122  0.61656  0.23273  1.0000
  H   H728      1.0  0.37679  0.63205  0.24792  1.0000
  C   C512      1.0  0.30403  0.61644  0.12161  1.0000
  H   H729      1.0  0.30666  0.61870  0.14532  1.0000
  H   H730      1.0  0.29601  0.61274  0.13571  1.0000
  H   H731      1.0  0.29201  0.62823  0.10757  1.0000
  H   H732      1.0  0.43512  0.55756  0.73695  1.0000
  H   H733      1.0  0.43058  0.55284  0.64435  1.0000
  H   H734      1.0  0.41768  0.55857  0.75566  1.0000
  H   H735      1.0  0.43700  0.54248  0.30822  1.0000
  C   C513      1.0  0.45831  0.57960  0.85261  1.0000
  N   N46       1.0  0.36662  0.61870  0.29166  1.0000
  C   C514      1.0  0.37494  0.62741  0.28041  1.0000
  H   H736      1.0  0.36320  0.60582  0.27332  1.0000
  H   H737      1.0  0.37319  0.63222  0.29979  1.0000
  N   N47       1.0  0.42575  0.55672  0.69931  1.0000
  H   H738      1.0  0.37435  0.54839  0.20250  1.0000
  H   H739      1.0  0.36470  0.55205  0.69406  1.0000
  H   H740      1.0  0.28263  0.64346  0.32511  1.0000
  C   C515      1.0  0.36936  0.61243  0.26582  1.0000
  C   C516      1.0  0.36428  0.61288  0.33519  1.0000
  H   H741      1.0  0.35807  0.60622  0.34453  1.0000
  H   H742      1.0  0.36213  0.61732  0.35573  1.0000
  H   H743      1.0  0.38171  0.62514  0.28416  1.0000
  N   N48       1.0  0.30597  0.62501  0.08477  1.0000
  C   C517      1.0  0.30004  0.63192  0.09536  1.0000
  C   C518      1.0  0.30326  0.62151  0.05270  1.0000
  H   H744      1.0  0.30199  0.63474  0.11927  1.0000
  C   C519      1.0  0.41665  0.55440  0.73421  1.0000
  H   H745      1.0  0.41036  0.55618  0.72378  1.0000
  H   H746      1.0  0.43007  0.57187  0.69734  1.0000
  H   H747      1.0  0.44158  0.58143  0.90095  1.0000
  H   H748      1.0  0.44886  0.59348  0.86736  1.0000
  H   H749      1.0  0.45605  0.57441  0.88442  1.0000
  H   H750      1.0  0.30127  0.63845  0.06822  1.0000
  H   H751      1.0  0.37586  0.60967  0.27033  1.0000
  H   H752      1.0  0.37072  0.61022  0.34112  1.0000
  H   H753      1.0  0.42361  0.56190  0.32180  1.0000
  H   H754      1.0  0.34926  0.72489  0.89449  1.0000
  C   C520      1.0  0.31655  0.63018  0.06949  1.0000
  H   H755      1.0  0.46266  0.57612  0.83213  1.0000
  H   H756      1.0  0.32120  0.62518  0.06119  1.0000
  H   H757      1.0  0.31888  0.63282  0.09311  1.0000
  H   H758      1.0  0.41438  0.54640  0.75214  1.0000
  N   N49       1.0  0.42490  0.66607  0.93463  1.0000
  N   N50       1.0  0.42901  0.55283  0.28607  1.0000
  H   H759      1.0  0.29468  0.71943  0.04920  1.0000
  H   H760      1.0  0.31832  0.63670  0.04168  1.0000
  Fe  Fe103     1.0  0.48482  0.58142  0.90610  1.0000
  C   C521      1.0  0.42869  0.56746  0.67707  1.0000
  H   H761      1.0  0.43554  0.56950  0.65053  1.0000
  H   H762      1.0  0.46117  0.52312  0.06835  1.0000
  H   H763      1.0  0.42317  0.75344  0.19988  1.0000
  C   C522      1.0  0.40249  0.71750  0.08630  1.0000
  H   H764      1.0  0.42282  0.56989  0.66500  1.0000
  C   C523      1.0  0.47331  0.51064  0.32087  1.0000
  H   H765      1.0  0.34904  0.55725  0.71093  1.0000
  H   H766      1.0  0.44842  0.57103  0.08624  1.0000
  Fe  Fe104     1.0  0.25677  0.68534  0.89832  1.0000
  H   H767      1.0  0.36557  0.55918  0.28505  1.0000
  C   C524      1.0  0.28919  0.71644  0.26186  1.0000
  H   H768      1.0  0.26665  0.71712  0.90288  1.0000
  Fe  Fe105     1.0  0.48637  0.56292  0.96803  1.0000
  C   C525      1.0  0.48426  0.55661  0.10805  1.0000
  C   C526      1.0  0.39398  0.54498  0.26654  1.0000
  H   H769      1.0  0.36720  0.75534  0.13756  1.0000
  C   C527      1.0  0.46473  0.58380  0.02836  1.0000
  H   H770      1.0  0.39540  0.71743  0.10818  1.0000
  C   C528      1.0  0.40522  0.57793  0.42973  1.0000
  H   H771      1.0  0.40269  0.57085  0.45552  1.0000
  C   C529      1.0  0.41460  0.59496  0.40305  1.0000
  H   H772      1.0  0.41952  0.59402  0.37527  1.0000
  H   H773      1.0  0.40927  0.57647  0.40160  1.0000
  H   H774      1.0  0.28004  0.71591  0.02791  1.0000
  S   S209      1.0  0.30787  0.74910  0.93957  1.0000
  H   H775      1.0  0.39847  0.58005  0.42494  1.0000
  H   H776      1.0  0.40822  0.59729  0.39515  1.0000
  H   H777      1.0  0.42687  0.51764  0.94693  1.0000
  C   C530      1.0  0.32942  0.73447  0.06691  1.0000
  H   H778      1.0  0.42504  0.58852  0.45162  1.0000
  H   H779      1.0  0.46305  0.59090  0.03096  1.0000
  H   H780      1.0  0.45920  0.51619  0.76462  1.0000
  N   N51       1.0  0.41138  0.58580  0.43846  1.0000
  S   S210      1.0  0.48279  0.57341  0.86167  1.0000
  C   C531      1.0  0.26302  0.65084  0.18451  1.0000
  S   S211      1.0  0.43267  0.52186  0.86299  1.0000
  H   H781      1.0  0.41881  0.60118  0.40952  1.0000
  C   C532      1.0  0.42697  0.51546  0.00870  1.0000
  C   C533      1.0  0.47129  0.58177  0.08483  1.0000
  N   N52       1.0  0.46409  0.57703  0.06852  1.0000
  C   C534      1.0  0.42013  0.58265  0.44574  1.0000
  H   H782      1.0  0.40990  0.59370  0.48232  1.0000
  H   H783      1.0  0.42469  0.58117  0.41854  1.0000
  H   H784      1.0  0.30883  0.74149  0.20263  1.0000
  C   C535      1.0  0.27095  0.59848  0.97754  1.0000
  S   S212      1.0  0.27178  0.66793  0.19499  1.0000
  H   H785      1.0  0.41802  0.57581  0.47242  1.0000
  H   H786      1.0  0.44301  0.55520  0.29715  1.0000
  H   H787      1.0  0.39883  0.58994  0.47081  1.0000
  H   H788      1.0  0.46742  0.52543  0.34595  1.0000
  C   C536      1.0  0.43565  0.54979  0.30950  1.0000
  C   C537      1.0  0.27656  0.70047  0.93440  1.0000
  H   H789      1.0  0.40302  0.58092  0.50259  1.0000
  H   H790      1.0  0.37527  0.55286  0.27998  1.0000
  S   S213      1.0  0.48418  0.55339  0.92874  1.0000
  H   H791      1.0  0.35883  0.54969  0.60136  1.0000
  C   C538      1.0  0.28576  0.64668  0.29119  1.0000
  H   H792      1.0  0.28493  0.65542  0.21637  1.0000
  H   H793      1.0  0.37402  0.74687  0.97897  1.0000
  C   C539      1.0  0.36956  0.55507  0.26646  1.0000
  H   H794      1.0  0.38467  0.57498  0.18686  1.0000
  H   H795      1.0  0.36417  0.54817  0.27037  1.0000
  H   H796      1.0  0.46967  0.58866  0.09034  1.0000
  C   C540      1.0  0.38098  0.57030  0.21934  1.0000
  H   H797      1.0  0.38687  0.56860  0.23273  1.0000
  C   C541      1.0  0.28950  0.71441  0.93023  1.0000
  N   N53       1.0  0.37399  0.56117  0.22289  1.0000
  C   C542      1.0  0.37930  0.55550  0.19947  1.0000
  H   H798      1.0  0.37716  0.57487  0.23573  1.0000
  C   C543      1.0  0.46027  0.50947  0.78509  1.0000
  H   H799      1.0  0.32912  0.73032  0.04475  1.0000
  C   C544      1.0  0.36458  0.55370  0.66187  1.0000
  H   H800      1.0  0.28711  0.65488  0.28322  1.0000
  C   C545      1.0  0.36610  0.56385  0.20634  1.0000
  H   H801      1.0  0.36070  0.55715  0.20835  1.0000
  H   H802      1.0  0.36190  0.56806  0.22369  1.0000
  H   H803      1.0  0.39404  0.69861  0.05376  1.0000
  H   H804      1.0  0.50303  0.56219  0.17703  1.0000
  H   H805      1.0  0.36916  0.56858  0.17369  1.0000
  H   H806      1.0  0.35276  0.53642  0.66996  1.0000
  N   N54       1.0  0.35440  0.55202  0.66008  1.0000
  H   H807      1.0  0.36875  0.54897  0.64780  1.0000
  H   H808      1.0  0.36868  0.56153  0.64515  1.0000
  H   H809      1.0  0.34889  0.53970  0.71579  1.0000
  H   H810      1.0  0.35681  0.62063  0.87171  1.0000
  S   S214      1.0  0.41438  0.74091  0.93534  1.0000
  C   C546      1.0  0.35466  0.55421  0.61687  1.0000
  H   H811      1.0  0.43252  0.54912  0.34235  1.0000
  C   C547      1.0  0.34910  0.54158  0.68317  1.0000
  H   H812      1.0  0.37752  0.63246  0.85961  1.0000
  H   H813      1.0  0.37937  0.62433  0.90299  1.0000
  C   C548      1.0  0.37416  0.62531  0.88504  1.0000
  H   H814      1.0  0.39046  0.55513  0.29988  1.0000
  C   C549      1.0  0.34930  0.55863  0.67841  1.0000
  C   C550      1.0  0.29010  0.72071  0.07683  1.0000
  H   H815      1.0  0.34159  0.55760  0.67759  1.0000
  C   C551      1.0  0.27564  0.71679  0.05678  1.0000
  H   H816      1.0  0.38759  0.53905  0.28620  1.0000
  H   H817      1.0  0.26895  0.71900  0.05179  1.0000
  H   H818      1.0  0.31344  0.74193  0.35623  1.0000
  H   H819      1.0  0.47909  0.52448  0.35370  1.0000
  H   H820      1.0  0.43786  0.74835  0.16681  1.0000
  H   H821      1.0  0.47050  0.53917  0.01583  1.0000
  C   C552      1.0  0.45447  0.52920  0.00491  1.0000
  H   H822      1.0  0.39405  0.71519  0.00783  1.0000
  H   H823      1.0  0.26959  0.62046  0.19139  1.0000
  H   H824      1.0  0.35025  0.62653  0.90458  1.0000
  H   H825      1.0  0.29780  0.74707  0.44542  1.0000
  Fe  Fe106     1.0  0.41728  0.52374  0.88017  1.0000
  H   H826      1.0  0.36767  0.72869  0.92154  1.0000
  H   H827      1.0  0.35812  0.63359  0.94849  1.0000
  N   N55       1.0  0.28145  0.72409  0.06955  1.0000
  Fe  Fe107     1.0  0.27092  0.70174  0.21179  1.0000
  S   S215      1.0  0.42691  0.51204  0.08761  1.0000
  Fe  Fe108     1.0  0.42357  0.51817  0.14047  1.0000
  C   C553      1.0  0.28486  0.73377  0.03682  1.0000
  S   S216      1.0  0.42200  0.74637  0.29442  1.0000
  H   H828      1.0  0.38746  0.70213  0.09599  1.0000
  H   H829      1.0  0.35917  0.60937  0.93228  1.0000
  Fe  Fe109     1.0  0.42458  0.51442  0.22765  1.0000
  C   C554      1.0  0.36011  0.61570  0.94446  1.0000
  H   H830      1.0  0.40945  0.70923  0.00489  1.0000
  H   H831      1.0  0.36132  0.73249  0.82524  1.0000
  C   C555      1.0  0.29086  0.71830  0.88836  1.0000
  C   C556      1.0  0.39494  0.70254  0.07616  1.0000
  S   S217      1.0  0.39817  0.53232  0.22276  1.0000
  S   S218      1.0  0.41118  0.51180  0.85683  1.0000
  H   H832      1.0  0.27702  0.60532  0.96746  1.0000
  H   H833      1.0  0.39854  0.69829  0.09627  1.0000
  H   H834      1.0  0.41492  0.70940  0.04454  1.0000
  C   C557      1.0  0.41041  0.71310  0.02737  1.0000
  H   H835      1.0  0.39961  0.72634  0.01536  1.0000
  S   S219      1.0  0.43609  0.51947  0.16635  1.0000
  H   H836      1.0  0.36058  0.63380  0.86057  1.0000
  C   C558      1.0  0.32445  0.73393  0.13778  1.0000
  Fe  Fe110     1.0  0.41185  0.52752  0.19703  1.0000
  C   C559      1.0  0.48571  0.56170  0.13546  1.0000
  H   H837      1.0  0.45436  0.53464  0.97661  1.0000
  S   S220      1.0  0.39516  0.75291  0.98942  1.0000
  Fe  Fe111     1.0  0.26580  0.68084  0.20494  1.0000
  C   C560      1.0  0.36537  0.63342  0.92867  1.0000
  N   N56       1.0  0.40080  0.71290  0.05535  1.0000
  C   C561      1.0  0.26207  0.71884  0.92921  1.0000
  C   C562      1.0  0.41065  0.52357  0.01892  1.0000
  H   H838      1.0  0.36485  0.61443  0.96438  1.0000
  C   C563      1.0  0.39538  0.71848  0.03156  1.0000
  H   H839      1.0  0.43578  0.67922  0.89284  1.0000
  H   H840      1.0  0.36844  0.64076  0.90433  1.0000
  H   H841      1.0  0.38810  0.71853  0.05154  1.0000
  H   H842      1.0  0.35268  0.61546  0.96444  1.0000
  H   H843      1.0  0.28927  0.73947  0.04545  1.0000
  C   C564      1.0  0.42039  0.73962  0.16332  1.0000
  H   H844      1.0  0.28962  0.73323  0.00778  1.0000
  C   C565      1.0  0.35336  0.71906  0.90035  1.0000
  C   C566      1.0  0.26142  0.60209  0.03593  1.0000
  H   H845      1.0  0.43498  0.54675  0.23907  1.0000
  H   H846      1.0  0.27113  0.69358  0.95249  1.0000
  H   H847      1.0  0.37034  0.63270  0.94779  1.0000
  H   H848      1.0  0.41577  0.54425  0.33535  1.0000
  H   H849      1.0  0.36591  0.70839  0.87549  1.0000
  Fe  Fe112     1.0  0.33014  0.73815  0.94957  1.0000
  S   S221      1.0  0.48564  0.55483  0.03258  1.0000
  H   H850      1.0  0.34981  0.71265  0.89278  1.0000
  H   H851      1.0  0.40688  0.72533  0.07159  1.0000
  H   H852      1.0  0.41480  0.72084  0.00955  1.0000
  C   C567      1.0  0.48800  0.56141  0.06568  1.0000
  S   S222      1.0  0.40967  0.52513  0.94172  1.0000
  C   C568      1.0  0.27524  0.72510  0.10765  1.0000
  H   H853      1.0  0.27042  0.65344  0.27504  1.0000
  H   H854      1.0  0.47682  0.50794  0.34449  1.0000
  H   H855      1.0  0.36175  0.72033  0.82204  1.0000
  H   H856      1.0  0.47356  0.52079  0.24569  1.0000
  H   H857      1.0  0.42660  0.65168  0.93174  1.0000
  S   S223      1.0  0.49723  0.57215  0.26251  1.0000
  H   H858      1.0  0.25515  0.70131  0.99005  1.0000
  H   H859      1.0  0.40066  0.53791  0.68953  1.0000
  H   H860      1.0  0.28454  0.62970  0.27303  1.0000
  H   H861      1.0  0.27081  0.59627  0.95009  1.0000
  N   N57       1.0  0.26132  0.60008  0.99744  1.0000
  S   S224      1.0  0.42345  0.52977  0.22656  1.0000
  S   S225      1.0  0.48561  0.55327  0.24530  1.0000
  H   H862      1.0  0.48259  0.55796  0.16796  1.0000
  C   C569      1.0  0.42888  0.65957  0.91203  1.0000
  H   H863      1.0  0.27244  0.71789  0.13277  1.0000
  Fe  Fe113     1.0  0.49368  0.55553  0.28910  1.0000
  C   C570      1.0  0.26950  0.64527  0.28396  1.0000
  N   N58       1.0  0.36395  0.72284  0.87628  1.0000
  H   H864      1.0  0.42474  0.68143  0.92243  1.0000
  H   H865      1.0  0.43708  0.66180  0.89999  1.0000
  H   H866      1.0  0.29869  0.73363  0.16741  1.0000
  C   C571      1.0  0.35412  0.75116  0.92620  1.0000
  H   H867      1.0  0.42704  0.65816  0.99042  1.0000
  C   C572      1.0  0.41404  0.66257  0.95139  1.0000
  H   H868      1.0  0.43717  0.66849  0.95727  1.0000
  C   C573      1.0  0.29770  0.72998  0.19926  1.0000
  H   H869      1.0  0.26720  0.60888  0.03004  1.0000
  H   H870      1.0  0.41162  0.65474  0.97165  1.0000
  C   C574      1.0  0.45461  0.52624  0.07442  1.0000
  C   C575      1.0  0.42898  0.66582  0.96868  1.0000
  H   H871      1.0  0.48006  0.54895  0.11979  1.0000
  H   H872      1.0  0.42602  0.67057  0.98660  1.0000
  H   H873      1.0  0.42455  0.67676  0.88058  1.0000
  H   H874      1.0  0.42621  0.65989  0.88530  1.0000
  H   H875      1.0  0.44578  0.54355  0.01926  1.0000
  H   H876      1.0  0.41084  0.66710  0.96978  1.0000
  H   H877      1.0  0.27855  0.73654  0.03025  1.0000
  C   C576      1.0  0.42763  0.67633  0.90643  1.0000
  H   H878      1.0  0.41070  0.66309  0.92646  1.0000
  H   H879      1.0  0.49615  0.57512  0.01807  1.0000
  C   C577      1.0  0.27746  0.63186  0.28226  1.0000
  C   C578      1.0  0.28501  0.71337  0.86981  1.0000
  H   H880      1.0  0.38033  0.75272  0.21262  1.0000
  H   H881      1.0  0.37705  0.71738  0.86634  1.0000
  H   H882      1.0  0.27288  0.59247  0.99837  1.0000
  H   H883      1.0  0.35964  0.73297  0.99223  1.0000
  H   H884      1.0  0.44578  0.54127  0.07136  1.0000
  Fe  Fe114     1.0  0.49474  0.56632  0.87703  1.0000
  S   S226      1.0  0.29612  0.72054  0.95641  1.0000
  H   H885      1.0  0.46627  0.56253  0.09255  1.0000
  C   C579      1.0  0.41442  0.52074  0.05160  1.0000
  H   H886      1.0  0.43896  0.53192  0.05730  1.0000
  H   H887      1.0  0.44792  0.51996  0.08567  1.0000
  S   S227      1.0  0.26005  0.58744  0.85924  1.0000
  H   H888      1.0  0.41231  0.73866  0.16903  1.0000
  C   C580      1.0  0.42249  0.51651  0.04668  1.0000
  C   C581      1.0  0.44592  0.53782  0.04677  1.0000
  C   C582      1.0  0.29488  0.72099  0.28193  1.0000
  H   H889      1.0  0.49723  0.51475  0.53623  1.0000
  S   S228      1.0  0.28386  0.71546  0.19274  1.0000
  H   H890      1.0  0.28373  0.70949  0.27855  1.0000
  C   C583      1.0  0.28232  0.70545  0.95300  1.0000
  H   H891      1.0  0.29633  0.72517  0.87034  1.0000
  H   H892      1.0  0.25472  0.68489  0.10360  1.0000
  H   H893      1.0  0.37296  0.72926  0.81315  1.0000
  C   C584      1.0  0.41506  0.52239  0.98102  1.0000
  S   S229      1.0  0.33513  0.74916  0.20152  1.0000
  H   H894      1.0  0.46105  0.52622  0.99646  1.0000
  C   C585      1.0  0.29057  0.72091  0.22032  1.0000
  H   H895      1.0  0.43422  0.56832  0.27746  1.0000
  H   H896      1.0  0.42228  0.56496  0.27181  1.0000
  C   C586      1.0  0.49325  0.57136  0.05076  1.0000
  H   H897      1.0  0.26284  0.59582  0.05757  1.0000
  S   S230      1.0  0.31498  0.73158  0.99459  1.0000
  H   H898      1.0  0.27311  0.70935  0.08033  1.0000
  C   C587      1.0  0.28358  0.64720  0.22605  1.0000
  N   N59       1.0  0.45468  0.53379  0.03733  1.0000
  H   H899      1.0  0.26593  0.64218  0.31772  1.0000
  H   H900      1.0  0.46408  0.54546  0.04728  1.0000
  H   H901      1.0  0.27005  0.65160  0.16247  1.0000
  C   C588      1.0  0.43647  0.75106  0.13703  1.0000
  H   H902      1.0  0.45471  0.52946  0.09958  1.0000
  S   S231      1.0  0.26544  0.68636  0.25860  1.0000
  H   H903      1.0  0.35223  0.71661  0.93387  1.0000
  H   H904      1.0  0.25890  0.60719  0.94117  1.0000
  H   H905      1.0  0.47893  0.58382  0.06308  1.0000
  C   C589      1.0  0.41953  0.54522  0.30263  1.0000
  H   H906      1.0  0.40422  0.52657  0.02319  1.0000
  H   H907      1.0  0.45951  0.58042  0.01477  1.0000
  H   H908      1.0  0.29482  0.72628  0.08491  1.0000
  C   C590      1.0  0.27775  0.70447  0.89271  1.0000
  C   C591      1.0  0.42721  0.56242  0.28944  1.0000
  H   H909      1.0  0.45331  0.56966  0.12790  1.0000
  C   C592      1.0  0.46370  0.54189  0.02333  1.0000
  C   C593      1.0  0.30346  0.73447  0.21920  1.0000
  C   C594      1.0  0.43365  0.55387  0.24259  1.0000
  C   C595      1.0  0.30209  0.73000  0.26073  1.0000
  H   H910      1.0  0.30586  0.73659  0.40885  1.0000
  S   S232      1.0  0.34275  0.73213  0.96327  1.0000
  C   C596      1.0  0.31299  0.72551  0.11176  1.0000
  H   H911      1.0  0.36843  0.71197  0.91704  1.0000
  H   H912      1.0  0.33487  0.72106  0.11891  1.0000
  H   H913      1.0  0.41420  0.75565  0.17417  1.0000
  H   H914      1.0  0.28123  0.70230  0.98532  1.0000
  Fe  Fe115     1.0  0.30935  0.73371  0.94046  1.0000
  H   H915      1.0  0.32262  0.71440  0.15232  1.0000
  H   H916      1.0  0.29371  0.71748  0.31408  1.0000
  S   S233      1.0  0.32485  0.73913  0.89503  1.0000
  H   H917      1.0  0.42062  0.53788  0.30057  1.0000
  C   C597      1.0  0.47232  0.52465  0.26916  1.0000
  H   H918      1.0  0.28783  0.71366  0.10265  1.0000
  N   N60       1.0  0.32347  0.72829  0.10924  1.0000
  Fe  Fe116     1.0  0.40932  0.75480  0.94059  1.0000
  H   H919      1.0  0.36465  0.73729  0.88323  1.0000
  C   C598      1.0  0.35308  0.74182  0.95309  1.0000
  C   C599      1.0  0.36836  0.73112  0.88843  1.0000
  C   C600      1.0  0.36504  0.72639  0.83220  1.0000
  C   C601      1.0  0.49487  0.57641  0.07825  1.0000
  S   S234      1.0  0.30903  0.73548  0.28747  1.0000
  C   C602      1.0  0.47750  0.51299  0.74599  1.0000
  S   S235      1.0  0.27232  0.69586  0.15838  1.0000
  S   S236      1.0  0.49327  0.57807  0.15438  1.0000
  H   H920      1.0  0.46520  0.50874  0.33631  1.0000
  H   H921      1.0  0.26869  0.72774  0.10330  1.0000
  H   H922      1.0  0.41436  0.54721  0.28544  1.0000
  S   S237      1.0  0.32995  0.75358  0.94991  1.0000
  C   C603      1.0  0.48802  0.52352  0.27917  1.0000
  C   C604      1.0  0.49107  0.57159  0.12068  1.0000
  H   H923      1.0  0.47841  0.53487  0.31524  1.0000
  H   H924      1.0  0.26214  0.72680  0.91795  1.0000
  H   H925      1.0  0.46399  0.54772  0.99546  1.0000
  H   H926      1.0  0.44090  0.55943  0.22915  1.0000
  H   H927      1.0  0.45200  0.58160  0.10197  1.0000
  H   H928      1.0  0.37636  0.73419  0.87088  1.0000
  C   C605      1.0  0.36903  0.71481  0.88410  1.0000
  S   S238      1.0  0.33322  0.75077  0.29312  1.0000
  H   H929      1.0  0.32346  0.75491  0.37323  1.0000
  H   H930      1.0  0.30615  0.75274  0.12857  1.0000
  H   H931      1.0  0.32178  0.74076  0.13035  1.0000
  C   C606      1.0  0.36848  0.74807  0.96425  1.0000
  H   H932      1.0  0.29079  0.64539  0.21501  1.0000
  C   C607      1.0  0.36035  0.74023  0.97172  1.0000
  H   H933      1.0  0.46420  0.52312  0.28382  1.0000
  H   H934      1.0  0.49124  0.53157  0.26244  1.0000
  H   H935      1.0  0.47133  0.57673  0.11430  1.0000
  H   H936      1.0  0.46090  0.56377  0.05224  1.0000
  H   H937      1.0  0.33226  0.73626  0.13654  1.0000
  H   H938      1.0  0.32632  0.71480  0.09960  1.0000
  Fe  Fe117     1.0  0.32289  0.74824  0.25694  1.0000
  C   C608      1.0  0.42336  0.51850  0.97587  1.0000
  H   H939      1.0  0.27253  0.62865  0.26708  1.0000
  C   C609      1.0  0.31660  0.75496  0.39624  1.0000
  Fe  Fe118     1.0  0.42690  0.51075  0.83580  1.0000
  S   S239      1.0  0.26969  0.69926  0.86899  1.0000
  H   H940      1.0  0.48971  0.51941  0.25684  1.0000
  H   H941      1.0  0.49645  0.51723  0.60285  1.0000
  C   C610      1.0  0.47546  0.52674  0.33011  1.0000
  H   H942      1.0  0.43324  0.51223  0.00467  1.0000
  H   H943      1.0  0.47501  0.53276  0.25296  1.0000
  S   S240      1.0  0.49776  0.57552  0.91719  1.0000
  H   H944      1.0  0.27870  0.64449  0.20977  1.0000
  H   H945      1.0  0.43950  0.74669  0.11742  1.0000
  H   H946      1.0  0.41089  0.52156  0.08089  1.0000
  Fe  Fe119     1.0  0.32376  0.75441  0.89832  1.0000
  Fe  Fe120     1.0  0.25674  0.69661  0.16503  1.0000
  H   H947      1.0  0.27400  0.62824  0.31587  1.0000
  H   H948      1.0  0.42684  0.74948  0.08260  1.0000
  H   H949      1.0  0.31197  0.72136  0.09027  1.0000
  H   H950      1.0  0.47993  0.51486  0.77088  1.0000
  H   H951      1.0  0.47378  0.56922  0.04100  1.0000
  H   H952      1.0  0.30825  0.72077  0.14321  1.0000
  H   H953      1.0  0.33734  0.73700  0.06394  1.0000
  C   C611      1.0  0.32698  0.71924  0.12055  1.0000
  H   H954      1.0  0.27841  0.58573  0.87389  1.0000
  H   H955      1.0  0.32673  0.74118  0.05678  1.0000
  H   H956      1.0  0.47702  0.51997  0.72498  1.0000
  H   H957      1.0  0.25586  0.63752  0.17626  1.0000
  H   H958      1.0  0.25871  0.65726  0.75543  1.0000
  H   H959      1.0  0.42289  0.73491  0.14444  1.0000
  H   H960      1.0  0.30039  0.74018  0.36914  1.0000
  C   C612      1.0  0.30682  0.74232  0.37950  1.0000
  H   H961      1.0  0.48340  0.51026  0.72841  1.0000
  H   H962      1.0  0.41634  0.75343  0.10667  1.0000
  S   S241      1.0  0.35925  0.74793  0.22992  1.0000
  H   H963      1.0  0.26541  0.61546  0.96085  1.0000
  H   H964      1.0  0.25721  0.62985  0.92364  1.0000
  H   H965      1.0  0.29215  0.75057  0.40638  1.0000
  C   C613      1.0  0.25942  0.60862  0.96981  1.0000
  Fe  Fe121     1.0  0.34539  0.75322  0.23525  1.0000
  H   H966      1.0  0.46216  0.51150  0.81070  1.0000
  C   C614      1.0  0.31650  0.75645  0.06799  1.0000
  C   C615      1.0  0.29889  0.75248  0.41506  1.0000
  H   H967      1.0  0.49902  0.58407  0.06659  1.0000
  H   H968      1.0  0.31602  0.74972  0.42622  1.0000
  H   H969      1.0  0.34885  0.75235  0.91004  1.0000
  N   N61       1.0  0.30781  0.75233  0.38380  1.0000
  C   C616      1.0  0.36693  0.75497  0.24853  1.0000
  C   C617      1.0  0.42429  0.75383  0.10309  1.0000
  H   H970      1.0  0.46438  0.50970  0.70671  1.0000
  S   S242      1.0  0.50400  0.54530  0.28827  1.0000
  C   C618      1.0  0.37712  0.75589  0.23573  1.0000
  H   H971      1.0  0.25536  0.64518  0.03250  1.0000
  H   H972      1.0  0.25666  0.69926  0.94158  1.0000
  C   C619      1.0  0.25499  0.64291  0.19214  1.0000
  C   C620      1.0  0.31360  0.75648  0.10864  1.0000
  C   C621      1.0  0.42219  0.75605  0.16925  1.0000
  H   H973      1.0  0.50359  0.55064  0.36219  1.0000
  S   S243      1.0  0.25490  0.67404  0.95803  1.0000
  S   S244      1.0  0.25544  0.70321  0.21589  1.0000
  S   S245      1.0  0.25473  0.64833  0.93680  1.0000
  H   H974      1.0  0.25452  0.58453  0.02773  1.0000
  S   S246      1.0  0.41331  0.78762  0.25487  1.0000
  S   S247      1.0  0.42447  0.79063  0.34190  1.0000
  H   H975      1.0  0.36341  0.84884  0.21733  1.0000
  C   C622      1.0  0.41156  0.87337  0.67358  1.0000
  C   C623      1.0  0.45906  0.99682  0.56895  1.0000
  Fe  Fe122     1.0  0.33582  0.76538  0.18272  1.0000
  S   S248      1.0  0.32288  0.76435  0.23582  1.0000
  S   S249      1.0  0.33850  0.77249  0.11573  1.0000
  Fe  Fe123     1.0  0.33421  0.76705  0.26791  1.0000
  S   S250      1.0  0.33261  0.77601  0.31283  1.0000
  S   S251      1.0  0.49989  0.93634  0.94511  1.0000
  S   S252      1.0  0.34711  0.76959  0.21213  1.0000
  C   C624      1.0  0.32734  0.79697  0.95441  1.0000
  C   C625      1.0  0.37466  0.84020  0.25719  1.0000
  C   C626      1.0  0.50386  0.98788  0.39452  1.0000
  H   H976      1.0  0.39375  0.79285  0.28885  1.0000
  C   C627      1.0  0.50078  0.99557  0.84837  1.0000
  H   H977      1.0  0.46992  0.00462  0.46260  1.0000
  H   H978      1.0  0.45590  0.00315  0.56706  1.0000
  C   C628      1.0  0.38876  0.79487  0.31323  1.0000
  H   H979      1.0  0.42289  0.94447  0.00337  1.0000
  H   H980      1.0  0.48082  0.96475  0.28442  1.0000
  S   S253      1.0  0.32927  0.76866  0.84436  1.0000
  Fe  Fe124     1.0  0.46854  0.99597  0.69010  1.0000
  H   H981      1.0  0.36367  0.85186  0.28302  1.0000
  Fe  Fe125     1.0  0.39275  0.76526  0.94317  1.0000
  S   S254      1.0  0.40022  0.77711  0.96267  1.0000
  S   S255      1.0  0.37878  0.76775  0.93084  1.0000
  S   S256      1.0  0.41845  0.76626  0.95829  1.0000
  H   H982      1.0  0.34025  0.77010  0.03742  1.0000
  Fe  Fe126     1.0  0.41401  0.77771  0.91424  1.0000
  S   S257      1.0  0.42053  0.79333  0.86823  1.0000
  S   S258      1.0  0.40621  0.76631  0.89247  1.0000
  S   S259      1.0  0.47013  0.96764  0.42563  1.0000
  S   S260      1.0  0.45914  0.95769  0.35704  1.0000
  Fe  Fe127     1.0  0.48275  0.98039  0.38555  1.0000
  S   S261      1.0  0.49845  0.97968  0.37345  1.0000
  H   H983      1.0  0.47716  0.96657  0.77331  1.0000
  H   H984      1.0  0.32846  0.76146  0.01130  1.0000
  C   C629      1.0  0.36287  0.75939  0.27727  1.0000
  H   H985      1.0  0.39101  0.76162  0.24265  1.0000
  H   H986      1.0  0.38056  0.78385  0.04748  1.0000
  H   H987      1.0  0.48386  0.95918  0.74905  1.0000
  S   S262      1.0  0.41052  0.76582  0.24011  1.0000
  H   H988      1.0  0.49671  0.98776  0.86598  1.0000
  N   N62       1.0  0.46330  0.91995  0.06817  1.0000
  H   H989      1.0  0.31811  0.76118  0.15534  1.0000
  Fe  Fe128     1.0  0.49920  0.93333  0.26608  1.0000
  S   S263      1.0  0.48392  0.93525  0.27369  1.0000
  H   H990      1.0  0.42665  0.86536  0.68484  1.0000
  H   H991      1.0  0.30965  0.76725  0.34608  1.0000
  Fe  Fe129     1.0  0.43364  0.92417  0.24150  1.0000
  S   S264      1.0  0.44399  0.92348  0.18378  1.0000
  S   S265      1.0  0.43411  0.93848  0.25885  1.0000
  Fe  Fe130     1.0  0.42290  0.90201  0.26582  1.0000
  S   S266      1.0  0.43261  0.89981  0.21014  1.0000
  S   S267      1.0  0.41350  0.88917  0.32244  1.0000
  Fe  Fe131     1.0  0.44478  0.90890  0.22243  1.0000
  S   S268      1.0  0.45856  0.90393  0.22259  1.0000
  Fe  Fe132     1.0  0.43089  0.91450  0.17527  1.0000
  S   S269      1.0  0.43286  0.91850  0.10700  1.0000
  S   S270      1.0  0.43541  0.91013  0.28060  1.0000
  S   S271      1.0  0.42019  0.91624  0.23058  1.0000
  Fe  Fe133     1.0  0.36841  0.82188  0.45545  1.0000
  S   S272      1.0  0.36286  0.82679  0.40128  1.0000
  S   S273      1.0  0.36040  0.81761  0.52368  1.0000
  Fe  Fe134     1.0  0.38793  0.82123  0.40182  1.0000
  S   S274      1.0  0.38417  0.82621  0.34469  1.0000
  S   S275      1.0  0.40245  0.81742  0.39674  1.0000
  Fe  Fe135     1.0  0.37811  0.83720  0.37127  1.0000
  S   S276      1.0  0.38181  0.85251  0.32467  1.0000
  Fe  Fe136     1.0  0.36943  0.81530  0.37839  1.0000
  S   S277      1.0  0.36703  0.80595  0.33673  1.0000
  S   S278      1.0  0.38306  0.83301  0.42664  1.0000
  S   S279      1.0  0.37375  0.80968  0.43474  1.0000
  Fe  Fe137     1.0  0.46055  0.84215  0.46011  1.0000
  S   S280      1.0  0.45562  0.85615  0.44322  1.0000
  S   S281      1.0  0.46571  0.83768  0.51586  1.0000
  Fe  Fe138     1.0  0.45696  0.83593  0.38732  1.0000
  S   S282      1.0  0.45212  0.84974  0.36500  1.0000
  S   S283      1.0  0.45737  0.82560  0.34748  1.0000
  Fe  Fe139     1.0  0.46460  0.85818  0.37882  1.0000
  S   S284      1.0  0.47118  0.87416  0.33765  1.0000
  Fe  Fe140     1.0  0.44367  0.84677  0.43059  1.0000
  S   S285      1.0  0.42865  0.84961  0.44045  1.0000
  S   S286      1.0  0.47044  0.84467  0.39573  1.0000
  S   S287      1.0  0.44766  0.83241  0.45297  1.0000
  Fe  Fe141     1.0  0.41948  0.91686  0.85516  1.0000
  S   S288      1.0  0.42660  0.91545  0.90412  1.0000
  S   S289      1.0  0.42077  0.93278  0.81838  1.0000
  Fe  Fe142     1.0  0.41358  0.89418  0.87163  1.0000
  S   S290      1.0  0.42068  0.89152  0.92154  1.0000
  S   S291      1.0  0.40912  0.87967  0.85757  1.0000
  Fe  Fe143     1.0  0.41371  0.90279  0.94269  1.0000
  S   S292      1.0  0.40704  0.90101  0.01015  1.0000
  Fe  Fe144     1.0  0.43299  0.90447  0.87900  1.0000
  S   S293      1.0  0.44880  0.90396  0.86831  1.0000
  S   S294      1.0  0.40568  0.90481  0.89577  1.0000
  S   S295      1.0  0.42668  0.90646  0.82743  1.0000
  Fe  Fe145     1.0  0.37056  0.81910  0.78827  1.0000
  S   S296      1.0  0.38045  0.81946  0.72731  1.0000
  S   S297      1.0  0.36226  0.80445  0.83871  1.0000
  Fe  Fe146     1.0  0.37895  0.84147  0.77342  1.0000
  S   S298      1.0  0.38917  0.84319  0.71145  1.0000
  S   S299      1.0  0.37884  0.85544  0.79312  1.0000
  Fe  Fe147     1.0  0.37654  0.83372  0.70200  1.0000
  S   S300      1.0  0.37580  0.83978  0.63734  1.0000
  Fe  Fe148     1.0  0.39210  0.82888  0.74160  1.0000
  S   S301      1.0  0.40776  0.82757  0.72651  1.0000
  S   S302      1.0  0.36584  0.83294  0.76232  1.0000
  S   S303      1.0  0.38270  0.82761  0.80429  1.0000
  Fe  Fe149     1.0  0.44672  0.85555  0.78124  1.0000
  S   S304      1.0  0.45850  0.86863  0.73733  1.0000
  S   S305      1.0  0.43070  0.85541  0.80015  1.0000
  Fe  Fe150     1.0  0.46076  0.84269  0.79053  1.0000
  S   S306      1.0  0.47408  0.85496  0.74648  1.0000
  S   S307      1.0  0.46026  0.82657  0.82077  1.0000
  Fe  Fe151     1.0  0.46743  0.86494  0.77995  1.0000
  S   S308      1.0  0.47416  0.87925  0.79130  1.0000
  Fe  Fe152     1.0  0.46419  0.85787  0.70740  1.0000
  S   S309      1.0  0.46726  0.86246  0.63815  1.0000
  S   S310      1.0  0.45493  0.85240  0.82640  1.0000
  S   S311      1.0  0.45165  0.84506  0.74884  1.0000
  H   H992      1.0  0.44228  0.80912  0.77258  1.0000
  S   S312      1.0  0.49976  0.98684  0.71026  1.0000
  Fe  Fe153     1.0  0.49745  0.91157  0.91697  1.0000
  S   S313      1.0  0.48653  0.91339  0.97062  1.0000
  H   H993      1.0  0.49042  0.94669  0.78946  1.0000
  Fe  Fe154     1.0  0.48789  0.92832  0.92801  1.0000
  S   S314      1.0  0.47448  0.93388  0.92532  1.0000
  N   N63       1.0  0.49570  0.00260  0.86354  1.0000
  H   H994      1.0  0.45442  0.97029  0.67066  1.0000
  Fe  Fe155     1.0  0.49946  0.92121  0.98412  1.0000
  H   H995      1.0  0.40357  0.87320  0.68023  1.0000
  C   C630      1.0  0.47974  0.88369  0.82468  1.0000
  C   C631      1.0  0.48420  0.87800  0.84930  1.0000
  C   C632      1.0  0.48903  0.88212  0.87316  1.0000
  C   C633      1.0  0.48934  0.89191  0.87347  1.0000
  C   C634      1.0  0.48469  0.89753  0.84954  1.0000
  C   C635      1.0  0.48002  0.89347  0.82513  1.0000
  H   H996      1.0  0.48411  0.87049  0.84930  1.0000
  H   H997      1.0  0.49135  0.87203  0.52245  1.0000
  H   H998      1.0  0.48474  0.90503  0.84953  1.0000
  H   H999      1.0  0.47655  0.89796  0.80650  1.0000
  C   C636      1.0  0.41423  0.83502  0.74771  1.0000
  C   C637      1.0  0.42384  0.84067  0.72509  1.0000
  C   C638      1.0  0.42894  0.84691  0.74127  1.0000
  C   C639      1.0  0.42448  0.84740  0.78031  1.0000
  C   C640      1.0  0.41488  0.84176  0.80291  1.0000
  C   C641      1.0  0.40974  0.83562  0.78651  1.0000
  H   H1000     1.0  0.42722  0.84043  0.69461  1.0000
  H   H1001     1.0  0.43620  0.85157  0.72298  1.0000
  H   H1002     1.0  0.41138  0.84221  0.83294  1.0000
  H   H1003     1.0  0.40233  0.83132  0.80416  1.0000
  C   C642      1.0  0.40002  0.87283  0.84287  1.0000
  C   C643      1.0  0.40038  0.86314  0.84265  1.0000
  C   C644      1.0  0.39378  0.85761  0.82878  1.0000
  C   C645      1.0  0.38679  0.86174  0.81432  1.0000
  C   C646      1.0  0.38629  0.87134  0.81538  1.0000
  C   C647      1.0  0.39286  0.87686  0.82948  1.0000
  H   H1004     1.0  0.40588  0.85991  0.85287  1.0000
  H   H1005     1.0  0.39419  0.85019  0.82882  1.0000
  H   H1006     1.0  0.38086  0.87459  0.80467  1.0000
  H   H1007     1.0  0.39245  0.88427  0.82949  1.0000
  C   C648      1.0  0.45583  0.91248  0.88365  1.0000
  C   C649      1.0  0.46454  0.91072  0.89044  1.0000
  C   C650      1.0  0.47025  0.91730  0.90325  1.0000
  C   C651      1.0  0.46726  0.92567  0.90940  1.0000
  C   C652      1.0  0.45862  0.92754  0.90211  1.0000
  C   C653      1.0  0.45294  0.92097  0.88899  1.0000
  H   H1008     1.0  0.46682  0.90419  0.88625  1.0000
  H   H1009     1.0  0.47691  0.91579  0.90855  1.0000
  H   H1010     1.0  0.45633  0.93407  0.90635  1.0000
  H   H1011     1.0  0.44648  0.92259  0.88225  1.0000
  C   C654      1.0  0.46470  0.84374  0.55355  1.0000
  C   C655      1.0  0.46026  0.85168  0.55207  1.0000
  C   C656      1.0  0.46055  0.85700  0.57993  1.0000
  C   C657      1.0  0.46506  0.85431  0.61017  1.0000
  C   C658      1.0  0.46912  0.84610  0.61280  1.0000
  C   C659      1.0  0.46895  0.84086  0.58456  1.0000
  H   H1012     1.0  0.45685  0.85390  0.52877  1.0000
  H   H1013     1.0  0.45750  0.86340  0.57738  1.0000
  H   H1014     1.0  0.47291  0.84416  0.63501  1.0000
  H   H1015     1.0  0.47246  0.83478  0.58580  1.0000
  C   C660      1.0  0.36475  0.82376  0.55519  1.0000
  C   C661      1.0  0.36248  0.81874  0.59723  1.0000
  C   C662      1.0  0.36580  0.82348  0.62302  1.0000
  C   C663      1.0  0.37121  0.83339  0.60710  1.0000
  C   C664      1.0  0.37332  0.83844  0.56525  1.0000
  C   C665      1.0  0.37023  0.83363  0.53932  1.0000
  H   H1016     1.0  0.35815  0.81114  0.60989  1.0000
  H   H1017     1.0  0.36407  0.81952  0.65522  1.0000
  H   H1018     1.0  0.37739  0.84613  0.55275  1.0000
  H   H1019     1.0  0.37187  0.83764  0.50725  1.0000
  C   C666      1.0  0.41002  0.82654  0.40678  1.0000
  C   C667      1.0  0.41746  0.82421  0.42287  1.0000
  C   C668      1.0  0.42332  0.83139  0.43241  1.0000
  C   C669      1.0  0.42165  0.84085  0.42648  1.0000
  C   C670      1.0  0.41435  0.84326  0.40949  1.0000
  C   C671      1.0  0.40861  0.83613  0.39921  1.0000
  H   H1020     1.0  0.41859  0.81680  0.42861  1.0000
  H   H1021     1.0  0.42888  0.82945  0.44577  1.0000
  H   H1022     1.0  0.41315  0.85064  0.40418  1.0000
  H   H1023     1.0  0.40319  0.83810  0.38494  1.0000
  C   C672      1.0  0.42575  0.91261  0.08227  1.0000
  C   C673      1.0  0.41588  0.90739  0.10205  1.0000
  C   C674      1.0  0.41027  0.90366  0.07987  1.0000
  C   C675      1.0  0.41452  0.90493  0.03806  1.0000
  C   C676      1.0  0.42450  0.90983  0.01880  1.0000
  C   C677      1.0  0.43002  0.91380  0.04059  1.0000
  H   H1024     1.0  0.41248  0.90648  0.13405  1.0000
  H   H1025     1.0  0.40255  0.89987  0.09503  1.0000
  H   H1026     1.0  0.42792  0.91073  0.98690  1.0000
  H   H1027     1.0  0.43763  0.91785  0.02490  1.0000
  C   C678      1.0  0.40524  0.87880  0.32112  1.0000
  C   C679      1.0  0.40186  0.87909  0.28761  1.0000
  C   C680      1.0  0.39477  0.87095  0.28894  1.0000
  C   C681      1.0  0.39113  0.86237  0.32338  1.0000
  C   C682      1.0  0.39475  0.86197  0.35636  1.0000
  C   C683      1.0  0.40169  0.87018  0.35537  1.0000
  H   H1028     1.0  0.40450  0.88569  0.26111  1.0000
  H   H1029     1.0  0.39201  0.87135  0.26329  1.0000
  H   H1030     1.0  0.39197  0.85546  0.38317  1.0000
  H   H1031     1.0  0.40422  0.86989  0.38154  1.0000
  H   H1032     1.0  0.42620  0.76402  0.15518  1.0000
  S   S315      1.0  0.47685  0.98824  0.78539  1.0000
  H   H1033     1.0  0.49002  0.88564  0.42038  1.0000
  C   C684      1.0  0.49415  0.00043  0.90787  1.0000
  C   C685      1.0  0.35961  0.82731  0.29303  1.0000
  Fe  Fe156     1.0  0.48505  0.99045  0.72017  1.0000
  H   H1034     1.0  0.42839  0.76171  0.08695  1.0000
  H   H1035     1.0  0.49355  0.92598  0.11974  1.0000
  H   H1036     1.0  0.33726  0.78400  0.98331  1.0000
  H   H1037     1.0  0.44839  0.78005  0.38974  1.0000
  C   C686      1.0  0.49920  0.89550  0.33137  1.0000
  C   C687      1.0  0.49874  0.88535  0.33945  1.0000
  C   C688      1.0  0.49003  0.87861  0.34338  1.0000
  C   C689      1.0  0.48175  0.88202  0.33895  1.0000
  C   C690      1.0  0.48219  0.89215  0.33157  1.0000
  C   C691      1.0  0.49083  0.89883  0.32822  1.0000
  H   H1038     1.0  0.37928  0.78224  0.10051  1.0000
  H   H1039     1.0  0.48985  0.87085  0.34827  1.0000
  H   H1040     1.0  0.47584  0.89488  0.32801  1.0000
  H   H1041     1.0  0.49104  0.90660  0.32305  1.0000
  C   C692      1.0  0.47663  0.92620  0.26204  1.0000
  C   C693      1.0  0.47899  0.91714  0.26301  1.0000
  C   C694      1.0  0.47335  0.91018  0.25151  1.0000
  C   C695      1.0  0.46538  0.91233  0.23888  1.0000
  C   C696      1.0  0.46278  0.92120  0.23967  1.0000
  C   C697      1.0  0.46840  0.92813  0.25117  1.0000
  H   H1042     1.0  0.48504  0.91544  0.27330  1.0000
  H   H1043     1.0  0.47510  0.90314  0.25281  1.0000
  H   H1044     1.0  0.45653  0.92286  0.23089  1.0000
  H   H1045     1.0  0.46649  0.93509  0.25083  1.0000
  H   H1046     1.0  0.49164  0.98324  0.45053  1.0000
  C   C698      1.0  0.44699  0.95638  0.81339  1.0000
  C   C699      1.0  0.43925  0.95920  0.80055  1.0000
  C   C700      1.0  0.43132  0.95194  0.80136  1.0000
  C   C701      1.0  0.43117  0.94184  0.81429  1.0000
  C   C702      1.0  0.43911  0.93909  0.82563  1.0000
  C   C703      1.0  0.44687  0.94629  0.82595  1.0000
  H   H1047     1.0  0.43913  0.96693  0.79190  1.0000
  H   H1048     1.0  0.42511  0.95412  0.79339  1.0000
  H   H1049     1.0  0.43925  0.93139  0.83437  1.0000
  H   H1050     1.0  0.45279  0.94400  0.83613  1.0000
  H   H1051     1.0  0.49831  0.89211  0.13926  1.0000
  H   H1052     1.0  0.38823  0.79703  0.40629  1.0000
  C   C704      1.0  0.45226  0.95267  0.32866  1.0000
  C   C705      1.0  0.44601  0.95749  0.31142  1.0000
  C   C706      1.0  0.44060  0.95308  0.28999  1.0000
  C   C707      1.0  0.44140  0.94383  0.28511  1.0000
  C   C708      1.0  0.44765  0.93901  0.30231  1.0000
  C   C709      1.0  0.45303  0.94339  0.32388  1.0000
  H   H1053     1.0  0.44531  0.96461  0.31472  1.0000
  H   H1054     1.0  0.43580  0.95691  0.27693  1.0000
  H   H1055     1.0  0.44840  0.93191  0.29894  1.0000
  H   H1056     1.0  0.45786  0.93958  0.33680  1.0000
  C   C710      1.0  0.43129  0.80241  0.86099  1.0000
  C   C711      1.0  0.43151  0.81246  0.84504  1.0000
  C   C712      1.0  0.44021  0.81992  0.83434  1.0000
  C   C713      1.0  0.44890  0.81741  0.83839  1.0000
  C   C714      1.0  0.44866  0.80736  0.85489  1.0000
  C   C715      1.0  0.43988  0.79989  0.86642  1.0000
  H   H1057     1.0  0.42492  0.81452  0.84072  1.0000
  H   H1058     1.0  0.44020  0.82761  0.82255  1.0000
  H   H1059     1.0  0.45533  0.80534  0.85827  1.0000
  H   H1060     1.0  0.43986  0.79219  0.87823  1.0000
  C   C716      1.0  0.33947  0.77822  0.83867  1.0000
  C   C717      1.0  0.34136  0.78759  0.80968  1.0000
  C   C718      1.0  0.34870  0.79563  0.80762  1.0000
  C   C719      1.0  0.35420  0.79435  0.83470  1.0000
  C   C720      1.0  0.35259  0.78489  0.86243  1.0000
  C   C721      1.0  0.34530  0.77687  0.86432  1.0000
  H   H1061     1.0  0.33693  0.78872  0.78949  1.0000
  H   H1062     1.0  0.34986  0.80289  0.78611  1.0000
  H   H1063     1.0  0.35688  0.78378  0.88318  1.0000
  H   H1064     1.0  0.34416  0.76968  0.88596  1.0000
  C   C722      1.0  0.36296  0.77146  0.09495  1.0000
  S   S316      1.0  0.49732  0.91846  0.05188  1.0000
  H   H1065     1.0  0.33241  0.79232  0.88433  1.0000
  H   H1066     1.0  0.48125  0.99398  0.87183  1.0000
  H   H1067     1.0  0.50297  0.91223  0.82266  1.0000
  H   H1068     1.0  0.36200  0.82498  0.32048  1.0000
  H   H1069     1.0  0.49100  0.97204  0.79713  1.0000
  S   S317      1.0  0.49612  0.89690  0.90224  1.0000
  H   H1070     1.0  0.44173  0.83324  0.70416  1.0000
  H   H1071     1.0  0.44719  0.77420  0.29549  1.0000
  H   H1072     1.0  0.38196  0.76273  0.05082  1.0000
  C   C723      1.0  0.40987  0.77665  0.14436  1.0000
  H   H1073     1.0  0.35218  0.83927  0.24399  1.0000
  H   H1074     1.0  0.43379  0.97030  0.62659  1.0000
  H   H1075     1.0  0.31573  0.75980  0.32047  1.0000
  C   C724      1.0  0.34231  0.78418  0.31960  1.0000
  C   C725      1.0  0.33997  0.78903  0.34913  1.0000
  C   C726      1.0  0.34740  0.79561  0.35527  1.0000
  C   C727      1.0  0.35729  0.79746  0.33176  1.0000
  C   C728      1.0  0.35962  0.79259  0.30235  1.0000
  C   C729      1.0  0.35221  0.78597  0.29638  1.0000
  H   H1076     1.0  0.33236  0.78771  0.36735  1.0000
  H   H1077     1.0  0.34545  0.79926  0.37804  1.0000
  H   H1078     1.0  0.36723  0.79392  0.28396  1.0000
  H   H1079     1.0  0.35418  0.78229  0.27368  1.0000
  C   C730      1.0  0.32997  0.76624  0.09804  1.0000
  C   C731      1.0  0.47877  0.95914  0.77846  1.0000
  C   C732      1.0  0.48957  0.90424  0.17358  1.0000
  C   C733      1.0  0.48518  0.94704  0.81777  1.0000
  H   H1080     1.0  0.43616  0.80579  0.73861  1.0000
  H   H1081     1.0  0.48849  0.94514  0.84279  1.0000
  H   H1082     1.0  0.49259  0.87767  0.89144  1.0000
  C   C734      1.0  0.50359  0.99412  0.45166  1.0000
  H   H1083     1.0  0.31922  0.78928  0.90624  1.0000
  C   C735      1.0  0.32600  0.78707  0.91004  1.0000
  C   C736      1.0  0.43371  0.80045  0.34231  1.0000
  C   C737      1.0  0.44274  0.80461  0.31078  1.0000
  C   C738      1.0  0.44989  0.81218  0.31323  1.0000
  C   C739      1.0  0.44810  0.81585  0.34677  1.0000
  C   C740      1.0  0.43904  0.81175  0.37807  1.0000
  C   C741      1.0  0.43194  0.80407  0.37594  1.0000
  H   H1084     1.0  0.44425  0.80200  0.28454  1.0000
  H   H1085     1.0  0.45687  0.81528  0.28879  1.0000
  H   H1086     1.0  0.43751  0.81445  0.40411  1.0000
  H   H1087     1.0  0.42500  0.80095  0.40056  1.0000
  C   C742      1.0  0.41734  0.77571  0.06509  1.0000
  C   C743      1.0  0.42347  0.78085  0.08181  1.0000
  H   H1088     1.0  0.42026  0.77535  0.03445  1.0000
  H   H1089     1.0  0.43111  0.78443  0.06401  1.0000
  H   H1090     1.0  0.40996  0.85465  0.71964  1.0000
  H   H1091     1.0  0.48275  0.88605  0.46873  1.0000
  H   H1092     1.0  0.36896  0.75754  0.06414  1.0000
  H   H1093     1.0  0.35228  0.84241  0.30900  1.0000
  Fe  Fe157     1.0  0.40397  0.76493  0.00442  1.0000
  C   C744      1.0  0.36045  0.84376  0.29835  1.0000
  H   H1094     1.0  0.42692  0.77021  0.36143  1.0000
  H   H1095     1.0  0.47608  0.91405  0.05767  1.0000
  C   C745      1.0  0.44850  0.82017  0.66973  1.0000
  H   H1096     1.0  0.38137  0.78964  0.32289  1.0000
  H   H1097     1.0  0.43779  0.82533  0.75620  1.0000
  H   H1098     1.0  0.44015  0.95555  0.62391  1.0000
  C   C746      1.0  0.39334  0.78427  0.36626  1.0000
  H   H1099     1.0  0.40954  0.85764  0.76574  1.0000
  H   H1100     1.0  0.49610  0.87058  0.41672  1.0000
  H   H1101     1.0  0.41381  0.90897  0.33140  1.0000
  C   C747      1.0  0.33633  0.78436  0.95301  1.0000
  N   N64       1.0  0.41402  0.87024  0.71186  1.0000
  H   H1102     1.0  0.42714  0.94741  0.89270  1.0000
  H   H1103     1.0  0.45516  0.82460  0.74925  1.0000
  H   H1104     1.0  0.39609  0.78366  0.39292  1.0000
  N   N65       1.0  0.39253  0.79442  0.34825  1.0000
  Fe  Fe158     1.0  0.46387  0.98031  0.77284  1.0000
  H   H1105     1.0  0.45211  0.96234  0.61883  1.0000
  C   C748      1.0  0.43869  0.97199  0.64462  1.0000
  H   H1106     1.0  0.39853  0.78200  0.34349  1.0000
  H   H1107     1.0  0.43525  0.97617  0.66427  1.0000
  H   H1108     1.0  0.47853  0.87171  0.53139  1.0000
  H   H1109     1.0  0.44839  0.95885  0.71167  1.0000
  H   H1110     1.0  0.45427  0.81630  0.65984  1.0000
  H   H1111     1.0  0.44643  0.95072  0.65913  1.0000
  H   H1112     1.0  0.31812  0.77208  0.98056  1.0000
  H   H1113     1.0  0.42450  0.93049  0.35872  1.0000
  H   H1114     1.0  0.41520  0.92276  0.97081  1.0000
  C   C749      1.0  0.44711  0.96555  0.69188  1.0000
  C   C750      1.0  0.40910  0.90982  0.35980  1.0000
  H   H1115     1.0  0.39737  0.91904  0.40056  1.0000
  C   C751      1.0  0.42214  0.92267  0.35953  1.0000
  C   C752      1.0  0.39654  0.78903  0.83469  1.0000
  C   C753      1.0  0.40197  0.80668  0.82007  1.0000
  H   H1116     1.0  0.39746  0.78996  0.80188  1.0000
  H   H1117     1.0  0.40354  0.78783  0.84017  1.0000
  H   H1118     1.0  0.39067  0.78213  0.85326  1.0000
  H   H1119     1.0  0.40030  0.81338  0.82737  1.0000
  H   H1120     1.0  0.40297  0.80805  0.78691  1.0000
  H   H1121     1.0  0.38510  0.80021  0.80605  1.0000
  H   H1122     1.0  0.49993  0.99398  0.48248  1.0000
  H   H1123     1.0  0.49565  0.88652  0.45890  1.0000
  H   H1124     1.0  0.49420  0.90267  0.24225  1.0000
  C   C754      1.0  0.44632  0.77788  0.31963  1.0000
  H   H1125     1.0  0.39626  0.76757  0.14655  1.0000
  H   H1126     1.0  0.48682  0.89091  0.24697  1.0000
  C   C755      1.0  0.38319  0.76097  0.25260  1.0000
  H   H1127     1.0  0.42829  0.84104  0.34019  1.0000
  C   C756      1.0  0.48470  0.86905  0.51510  1.0000
  H   H1128     1.0  0.34288  0.78993  0.92918  1.0000
  N   N66       1.0  0.37274  0.76924  0.08870  1.0000
  C   C757      1.0  0.40384  0.77128  0.12826  1.0000
  C   C758      1.0  0.46184  0.98276  0.54589  1.0000
  C   C759      1.0  0.49235  0.96451  0.80148  1.0000
  H   H1129     1.0  0.48945  0.99282  0.92556  1.0000
  H   H1130     1.0  0.37466  0.76951  0.02638  1.0000
  H   H1131     1.0  0.49590  0.97447  0.29169  1.0000
  C   C760      1.0  0.48881  0.88305  0.45394  1.0000
  C   C761      1.0  0.45911  0.91534  0.04177  1.0000
  H   H1132     1.0  0.35502  0.75879  0.28707  1.0000
  S   S318      1.0  0.46365  0.00075  0.63394  1.0000
  H   H1133     1.0  0.47120  0.98363  0.62399  1.0000
  H   H1134     1.0  0.43762  0.77050  0.42366  1.0000
  C   C762      1.0  0.47410  0.92126  0.05522  1.0000
  H   H1135     1.0  0.47556  0.85963  0.47313  1.0000
  C   C763      1.0  0.49467  0.86847  0.45039  1.0000
  C   C764      1.0  0.41493  0.92911  0.98300  1.0000
  H   H1136     1.0  0.43852  0.94264  0.93028  1.0000
  H   H1137     1.0  0.42668  0.86826  0.73072  1.0000
  H   H1138     1.0  0.38486  0.80475  0.36651  1.0000
  C   C765      1.0  0.41043  0.92694  0.32476  1.0000
  C   C766      1.0  0.42192  0.94631  0.97253  1.0000
  H   H1139     1.0  0.44876  0.80516  0.73205  1.0000
  H   H1140     1.0  0.46943  0.97357  0.57809  1.0000
  N   N67       1.0  0.44223  0.88187  0.33641  1.0000
  C   C767      1.0  0.45105  0.88972  0.32939  1.0000
  C   C768      1.0  0.44020  0.88266  0.29733  1.0000
  C   C769      1.0  0.43361  0.88301  0.36623  1.0000
  C   C770      1.0  0.44406  0.87207  0.35258  1.0000
  H   H1141     1.0  0.45766  0.88908  0.30678  1.0000
  H   H1142     1.0  0.45288  0.88931  0.35809  1.0000
  H   H1143     1.0  0.44997  0.89724  0.31704  1.0000
  H   H1144     1.0  0.43355  0.87690  0.30146  1.0000
  H   H1145     1.0  0.43881  0.88997  0.28437  1.0000
  H   H1146     1.0  0.44658  0.88193  0.27387  1.0000
  H   H1147     1.0  0.43483  0.88240  0.39622  1.0000
  H   H1148     1.0  0.42683  0.87723  0.37189  1.0000
  H   H1149     1.0  0.43200  0.89032  0.35486  1.0000
  H   H1150     1.0  0.43757  0.86594  0.35844  1.0000
  H   H1151     1.0  0.44563  0.87121  0.38208  1.0000
  H   H1152     1.0  0.45055  0.87101  0.33084  1.0000
  C   C771      1.0  0.40815  0.86005  0.73598  1.0000
  H   H1153     1.0  0.40195  0.80916  0.32152  1.0000
  H   H1154     1.0  0.32820  0.79720  0.98431  1.0000
  C   C772      1.0  0.32614  0.76134  0.04257  1.0000
  H   H1155     1.0  0.38720  0.78937  0.90946  1.0000
  H   H1156     1.0  0.44718  0.84433  0.27238  1.0000
  H   H1157     1.0  0.44163  0.81658  0.66532  1.0000
  H   H1158     1.0  0.40005  0.79538  0.89541  1.0000
  H   H1159     1.0  0.45899  0.83250  0.69721  1.0000
  H   H1160     1.0  0.32046  0.79924  0.95245  1.0000
  H   H1161     1.0  0.39103  0.80256  0.89874  1.0000
  H   H1162     1.0  0.41484  0.92616  0.29567  1.0000
  H   H1163     1.0  0.36275  0.83659  0.21344  1.0000
  H   H1164     1.0  0.37846  0.79224  0.85738  1.0000
  C   C773      1.0  0.39302  0.79619  0.88930  1.0000
  H   H1165     1.0  0.49308  0.86024  0.46235  1.0000
  H   H1166     1.0  0.47753  0.92470  0.07450  1.0000
  H   H1167     1.0  0.40775  0.79962  0.31043  1.0000
  H   H1168     1.0  0.46211  0.92010  0.00908  1.0000
  C   C774      1.0  0.32038  0.76123  0.12386  1.0000
  C   C775      1.0  0.45819  0.99123  0.54250  1.0000
  H   H1169     1.0  0.32552  0.77961  0.90623  1.0000
  H   H1170     1.0  0.31147  0.78148  0.98228  1.0000
  H   H1171     1.0  0.47417  0.96422  0.84691  1.0000
  C   C776      1.0  0.43929  0.82536  0.72394  1.0000
  S   S319      1.0  0.45893  0.99431  0.75388  1.0000
  H   H1172     1.0  0.49779  0.96483  0.77232  1.0000
  H   H1173     1.0  0.50141  0.99662  0.81570  1.0000
  N   N68       1.0  0.32706  0.78701  0.95021  1.0000
  H   H1174     1.0  0.35140  0.82533  0.30378  1.0000
  Fe  Fe159     1.0  0.47283  0.00247  0.76112  1.0000
  H   H1175     1.0  0.36573  0.76778  0.31674  1.0000
  C   C777      1.0  0.44335  0.80954  0.74006  1.0000
  H   H1176     1.0  0.45420  0.99315  0.52103  1.0000
  H   H1177     1.0  0.37807  0.84825  0.24106  1.0000
  N   N69       1.0  0.44098  0.87487  0.87469  1.0000
  C   C778      1.0  0.43902  0.87601  0.91581  1.0000
  C   C779      1.0  0.43511  0.88017  0.85264  1.0000
  C   C780      1.0  0.43819  0.86425  0.87886  1.0000
  C   C781      1.0  0.45158  0.87899  0.85131  1.0000
  H   H1178     1.0  0.44342  0.87216  0.93305  1.0000
  H   H1179     1.0  0.43108  0.87298  0.93415  1.0000
  H   H1180     1.0  0.44100  0.88394  0.91381  1.0000
  H   H1181     1.0  0.43717  0.88826  0.84799  1.0000
  H   H1182     1.0  0.43617  0.87919  0.82197  1.0000
  H   H1183     1.0  0.42709  0.87738  0.86987  1.0000
  H   H1184     1.0  0.43982  0.86317  0.84834  1.0000
  H   H1185     1.0  0.43015  0.86097  0.89492  1.0000
  H   H1186     1.0  0.44233  0.85993  0.89596  1.0000
  H   H1187     1.0  0.45327  0.87841  0.81983  1.0000
  H   H1188     1.0  0.45629  0.87505  0.86638  1.0000
  H   H1189     1.0  0.45402  0.88697  0.84802  1.0000
  N   N70       1.0  0.49032  0.95863  0.31600  1.0000
  C   C782      1.0  0.48440  0.95891  0.35594  1.0000
  C   C783      1.0  0.49428  0.94978  0.32246  1.0000
  C   C784      1.0  0.49859  0.96760  0.29616  1.0000
  C   C785      1.0  0.48398  0.95818  0.28973  1.0000
  H   H1190     1.0  0.45296  0.92901  0.07381  1.0000
  H   H1191     1.0  0.48892  0.95936  0.37657  1.0000
  H   H1192     1.0  0.31770  0.76258  0.39871  1.0000
  H   H1193     1.0  0.43637  0.78115  0.38790  1.0000
  C   C786      1.0  0.37910  0.76518  0.28222  1.0000
  H   H1194     1.0  0.48826  0.94286  0.33750  1.0000
  H   H1195     1.0  0.47091  0.87020  0.47810  1.0000
  H   H1196     1.0  0.48189  0.89952  0.18799  1.0000
  H   H1197     1.0  0.36247  0.77651  0.06646  1.0000
  C   C787      1.0  0.47602  0.95693  0.85024  1.0000
  H   H1198     1.0  0.48275  0.86084  0.52864  1.0000
  H   H1199     1.0  0.48976  0.91112  0.18240  1.0000
  N   N71       1.0  0.39951  0.82977  0.54509  1.0000
  C   C788      1.0  0.40895  0.82686  0.53570  1.0000
  C   C789      1.0  0.39834  0.83561  0.50670  1.0000
  C   C790      1.0  0.39951  0.83584  0.57272  1.0000
  C   C791      1.0  0.39125  0.82080  0.56510  1.0000
  H   H1200     1.0  0.41011  0.82252  0.56403  1.0000
  H   H1201     1.0  0.41533  0.83347  0.52007  1.0000
  H   H1202     1.0  0.40917  0.82224  0.51501  1.0000
  H   H1203     1.0  0.39824  0.83123  0.48525  1.0000
  H   H1204     1.0  0.39131  0.83795  0.51256  1.0000
  H   H1205     1.0  0.40445  0.84244  0.49078  1.0000
  H   H1206     1.0  0.40581  0.84253  0.55903  1.0000
  H   H1207     1.0  0.39995  0.83157  0.60278  1.0000
  H   H1208     1.0  0.39264  0.83846  0.57921  1.0000
  H   H1209     1.0  0.38403  0.82275  0.57222  1.0000
  H   H1210     1.0  0.39177  0.81625  0.59452  1.0000
  H   H1211     1.0  0.39100  0.81606  0.54505  1.0000
  H   H1212     1.0  0.36127  0.77508  0.11913  1.0000
  C   C792      1.0  0.43184  0.76511  0.36501  1.0000
  H   H1213     1.0  0.47901  0.95523  0.87632  1.0000
  H   H1214     1.0  0.44170  0.78317  0.31342  1.0000
  C   C793      1.0  0.45615  0.82464  0.71718  1.0000
  H   H1215     1.0  0.40541  0.80111  0.36007  1.0000
  H   H1216     1.0  0.40131  0.90758  0.36060  1.0000
  H   H1217     1.0  0.36207  0.82270  0.27355  1.0000
  H   H1218     1.0  0.45093  0.91408  0.05131  1.0000
  Fe  Fe160     1.0  0.46327  0.97167  0.37545  1.0000
  S   S320      1.0  0.42783  0.78617  0.14515  1.0000
  Fe  Fe161     1.0  0.42158  0.78211  0.29796  1.0000
  H   H1219     1.0  0.41459  0.94802  0.97589  1.0000
  C   C794      1.0  0.47740  0.86788  0.46231  1.0000
  C   C795      1.0  0.46357  0.99401  0.59904  1.0000
  H   H1220     1.0  0.31920  0.77929  0.01407  1.0000
  N   N72       1.0  0.36377  0.83801  0.27084  1.0000
  H   H1221     1.0  0.40679  0.77736  0.17416  1.0000
  C   C796      1.0  0.40528  0.92094  0.39860  1.0000
  H   H1222     1.0  0.49589  0.96300  0.82586  1.0000
  H   H1223     1.0  0.50112  0.96833  0.47890  1.0000
  H   H1224     1.0  0.36282  0.84176  0.32605  1.0000
  C   C797      1.0  0.41980  0.78111  0.12194  1.0000
  C   C798      1.0  0.40760  0.77068  0.08886  1.0000
  C   C799      1.0  0.49892  0.98806  0.43360  1.0000
  H   H1225     1.0  0.42338  0.91781  0.38654  1.0000
  N   N73       1.0  0.48640  0.87212  0.47043  1.0000
  H   H1226     1.0  0.49870  0.94932  0.29284  1.0000
  S   S321      1.0  0.38638  0.77115  0.30568  1.0000
  H   H1227     1.0  0.42826  0.75937  0.39556  1.0000
  H   H1228     1.0  0.41365  0.87491  0.76469  1.0000
  H   H1229     1.0  0.42721  0.92195  0.33170  1.0000
  C   C800      1.0  0.44799  0.76350  0.36755  1.0000
  N   N74       1.0  0.39403  0.79770  0.84568  1.0000
  H   H1230     1.0  0.40917  0.80603  0.82477  1.0000
  H   H1231     1.0  0.48813  0.95775  0.25948  1.0000
  Fe  Fe162     1.0  0.42179  0.78030  0.21402  1.0000
  H   H1232     1.0  0.30261  0.75775  0.33290  1.0000
  S   S322      1.0  0.40010  0.76295  0.07191  1.0000
  H   H1233     1.0  0.43197  0.94948  0.71821  1.0000
  C   C801      1.0  0.36207  0.75903  0.91954  1.0000
  C   C802      1.0  0.38462  0.79891  0.83874  1.0000
  H   H1234     1.0  0.47167  0.95365  0.78563  1.0000
  H   H1235     1.0  0.43161  0.84998  0.29043  1.0000
  H   H1236     1.0  0.44402  0.96978  0.71204  1.0000
  Fe  Fe163     1.0  0.40274  0.77262  0.28432  1.0000
  H   H1237     1.0  0.47831  0.94111  0.82640  1.0000
  H   H1238     1.0  0.38794  0.77710  0.07160  1.0000
  H   H1239     1.0  0.37146  0.76573  0.15263  1.0000
  H   H1240     1.0  0.41575  0.92673  0.01402  1.0000
  H   H1241     1.0  0.47805  0.95227  0.37161  1.0000
  H   H1242     1.0  0.41007  0.90440  0.38615  1.0000
  H   H1243     1.0  0.42933  0.87809  0.68381  1.0000
  H   H1244     1.0  0.41313  0.86834  0.65504  1.0000
  N   N75       1.0  0.48309  0.95690  0.81198  1.0000
  S   S323      1.0  0.43102  0.77584  0.25440  1.0000
  H   H1245     1.0  0.46896  0.95125  0.85902  1.0000
  C   C803      1.0  0.46758  0.98578  0.60137  1.0000
  H   H1246     1.0  0.41585  0.88103  0.65443  1.0000
  C   C804      1.0  0.48606  0.00161  0.85620  1.0000
  H   H1247     1.0  0.36270  0.76629  0.89925  1.0000
  H   H1248     1.0  0.40367  0.87670  0.74500  1.0000
  C   C805      1.0  0.31859  0.77966  0.98324  1.0000
  H   H1249     1.0  0.38244  0.80534  0.84713  1.0000
  C   C806      1.0  0.49426  0.89611  0.23134  1.0000
  H   H1250     1.0  0.45099  0.82793  0.64850  1.0000
  C   C807      1.0  0.41169  0.87697  0.73594  1.0000
  H   H1251     1.0  0.47766  0.92610  0.02281  1.0000
  H   H1252     1.0  0.37744  0.83814  0.28365  1.0000
  S   S324      1.0  0.48195  0.00520  0.69584  1.0000
  S   S325      1.0  0.47252  0.98147  0.70901  1.0000
  H   H1253     1.0  0.35693  0.76461  0.10469  1.0000
  H   H1254     1.0  0.37747  0.83603  0.23628  1.0000
  S   S326      1.0  0.45579  0.98192  0.40472  1.0000
  H   H1255     1.0  0.40009  0.85946  0.74282  1.0000
  H   H1256     1.0  0.42575  0.95408  0.68257  1.0000
  H   H1257     1.0  0.43381  0.93408  0.98171  1.0000
  H   H1258     1.0  0.40260  0.92552  0.32550  1.0000
  Fe  Fe164     1.0  0.46385  0.97871  0.45120  1.0000
  C   C808      1.0  0.46665  0.98014  0.57508  1.0000
  H   H1259     1.0  0.40710  0.92863  0.39998  1.0000
  S   S327      1.0  0.45853  0.97429  0.52085  1.0000
  N   N76       1.0  0.44043  0.96288  0.66920  1.0000
  H   H1260     1.0  0.49921  0.94996  0.34167  1.0000
  H   H1261     1.0  0.44644  0.83150  0.27728  1.0000
  C   C809      1.0  0.43252  0.93608  0.95152  1.0000
  H   H1262     1.0  0.42722  0.96016  0.71941  1.0000
  C   C810      1.0  0.42132  0.94079  0.91465  1.0000
  H   H1263     1.0  0.43213  0.82205  0.72083  1.0000
  H   H1264     1.0  0.41293  0.93482  0.32286  1.0000
  C   C811      1.0  0.42464  0.87052  0.70221  1.0000
  N   N77       1.0  0.41174  0.92009  0.36069  1.0000
  S   S328      1.0  0.45628  0.96500  0.81904  1.0000
  C   C812      1.0  0.44274  0.83665  0.29039  1.0000
  H   H1265     1.0  0.43632  0.84490  0.22857  1.0000
  S   S329      1.0  0.47656  0.98406  0.33395  1.0000
  S   S330      1.0  0.41031  0.76737  0.33009  1.0000
  H   H1266     1.0  0.43332  0.92982  0.93926  1.0000
  H   H1267     1.0  0.37811  0.79209  0.39061  1.0000
  C   C813      1.0  0.43093  0.95637  0.69859  1.0000
  H   H1268     1.0  0.42766  0.95319  0.95241  1.0000
  Fe  Fe165     1.0  0.46987  0.99394  0.36648  1.0000
  H   H1269     1.0  0.38608  0.77879  0.37668  1.0000
  H   H1270     1.0  0.43006  0.81949  0.30171  1.0000
  H   H1271     1.0  0.44314  0.83523  0.32209  1.0000
  H   H1272     1.0  0.46053  0.90609  0.11537  1.0000
  H   H1273     1.0  0.46184  0.91677  0.13218  1.0000
  H   H1274     1.0  0.33655  0.77703  0.94859  1.0000
  C   C814      1.0  0.43217  0.83719  0.24792  1.0000
  H   H1275     1.0  0.42446  0.83621  0.24697  1.0000
  N   N78       1.0  0.43241  0.83522  0.29039  1.0000
  C   C815      1.0  0.45892  0.91350  0.11126  1.0000
  H   H1276     1.0  0.45074  0.91229  0.12186  1.0000
  H   H1277     1.0  0.42166  0.93466  0.90120  1.0000
  H   H1278     1.0  0.41580  0.88478  0.71853  1.0000
  C   C816      1.0  0.44498  0.95762  0.64169  1.0000
  S   S331      1.0  0.47719  0.99115  0.41480  1.0000
  H   H1279     1.0  0.46201  0.82072  0.70915  1.0000
  H   H1280     1.0  0.41403  0.94245  0.91621  1.0000
  Fe  Fe166     1.0  0.41896  0.76164  0.28293  1.0000
  H   H1281     1.0  0.40740  0.93032  0.98686  1.0000
  H   H1282     1.0  0.42703  0.82314  0.34676  1.0000
  H   H1283     1.0  0.46083  0.90805  0.04317  1.0000
  C   C817      1.0  0.42688  0.82492  0.31473  1.0000
  H   H1284     1.0  0.46426  0.93475  0.03215  1.0000
  H   H1285     1.0  0.46406  0.93338  0.08407  1.0000
  H   H1286     1.0  0.38789  0.80240  0.29942  1.0000
  N   N79       1.0  0.44682  0.81992  0.71274  1.0000
  H   H1287     1.0  0.44572  0.97708  0.62239  1.0000
  C   C818      1.0  0.38563  0.79716  0.37945  1.0000
  H   H1288     1.0  0.33365  0.80266  0.92973  1.0000
  C   C819      1.0  0.40235  0.80140  0.33431  1.0000
  N   N80       1.0  0.42267  0.93807  0.95542  1.0000
  H   H1289     1.0  0.41989  0.84097  0.31106  1.0000
  H   H1290     1.0  0.43554  0.83207  0.23336  1.0000
  C   C820      1.0  0.36037  0.84081  0.23479  1.0000
  C   C821      1.0  0.46106  0.92972  0.06435  1.0000
  H   H1291     1.0  0.40608  0.91588  0.42634  1.0000
  H   H1292     1.0  0.41898  0.82360  0.31635  1.0000
  C   C822      1.0  0.42784  0.84212  0.30872  1.0000
  S   S332      1.0  0.49797  0.92614  0.87336  1.0000
  H   H1293     1.0  0.47762  0.95152  0.30414  1.0000
  H   H1294     1.0  0.50319  0.96761  0.26581  1.0000
  H   H1295     1.0  0.48128  0.96546  0.35184  1.0000
  C   C823      1.0  0.33282  0.76630  0.05737  1.0000
  H   H1296     1.0  0.47831  0.87027  0.42899  1.0000
  H   H1297     1.0  0.29942  0.75994  0.41893  1.0000
  C   C824      1.0  0.44103  0.77577  0.39198  1.0000
  C   C825      1.0  0.50146  0.92731  0.10680  1.0000
  H   H1298     1.0  0.38019  0.76062  0.12392  1.0000
  C   C826      1.0  0.38046  0.77853  0.07652  1.0000
  C   C827      1.0  0.36894  0.76446  0.29418  1.0000
  H   H1299     1.0  0.48701  0.00335  0.82290  1.0000
  C   C828      1.0  0.37291  0.76244  0.12732  1.0000
  H   H1300     1.0  0.45374  0.78233  0.31584  1.0000
  N   N81       1.0  0.44180  0.77056  0.36106  1.0000
  C   C829      1.0  0.30893  0.75960  0.34416  1.0000
  H   H1301     1.0  0.49115  0.90644  0.13978  1.0000
  H   H1302     1.0  0.50020  0.00694  0.70934  1.0000
  H   H1303     1.0  0.50162  0.87158  0.45553  1.0000
  C   C830      1.0  0.37465  0.76455  0.05611  1.0000
  H   H1304     1.0  0.50047  0.95548  0.48380  1.0000
  H   H1305     1.0  0.45559  0.76737  0.36442  1.0000
  H   H1306     1.0  0.50358  0.96805  0.31505  1.0000
  H   H1307     1.0  0.50176  0.88600  0.18243  1.0000
  C   C831      1.0  0.49644  0.89012  0.17318  1.0000
  H   H1308     1.0  0.48681  0.00332  0.46079  1.0000
  H   H1309     1.0  0.48895  0.88495  0.18709  1.0000
  H   H1310     1.0  0.50129  0.00102  0.91440  1.0000
  H   H1311     1.0  0.49042  0.00570  0.91997  1.0000
  N   N82       1.0  0.49677  0.89904  0.18630  1.0000
  H   H1312     1.0  0.44078  0.75893  0.12205  1.0000
  H   H1313     1.0  0.43206  0.76129  0.34141  1.0000
  H   H1314     1.0  0.49967  0.89241  0.24220  1.0000
  H   H1315     1.0  0.50294  0.96441  0.43445  1.0000
  H   H1316     1.0  0.48197  0.00678  0.86723  1.0000
  H   H1317     1.0  0.44862  0.75938  0.34490  1.0000
  H   H1318     1.0  0.44482  0.75791  0.39864  1.0000
  C   C832      1.0  0.36924  0.75753  0.93864  1.0000
  C   C833      1.0  0.58890  0.19108  0.09230  1.0000
  H   H1319     1.0  0.63011  0.20384  0.83056  1.0000
  H   H1320     1.0  0.57745  0.18334  0.17130  1.0000
  H   H1321     1.0  0.71652  0.22554  0.77723  1.0000
  H   H1322     1.0  0.57124  0.02003  0.56980  1.0000
  C   C834      1.0  0.51877  0.00815  0.75082  1.0000
  C   C835      1.0  0.57395  0.12100  0.83127  1.0000
  Fe  Fe167     1.0  0.69361  0.24223  0.25780  1.0000
  S   S333      1.0  0.68516  0.22938  0.31623  1.0000
  H   H1323     1.0  0.55158  0.07523  0.31061  1.0000
  S   S334      1.0  0.68736  0.24338  0.20617  1.0000
  Fe  Fe168     1.0  0.63392  0.23902  0.14381  1.0000
  S   S335      1.0  0.62343  0.22774  0.13199  1.0000
  S   S336      1.0  0.65018  0.23995  0.12117  1.0000
  Fe  Fe169     1.0  0.61777  0.24726  0.18631  1.0000
  S   S337      1.0  0.60573  0.23650  0.17872  1.0000
  C   C836      1.0  0.71445  0.24364  0.77712  1.0000
  Fe  Fe170     1.0  0.61390  0.22496  0.19660  1.0000
  S   S338      1.0  0.60850  0.20910  0.24018  1.0000
  Fe  Fe171     1.0  0.61615  0.24004  0.11494  1.0000
  S   S339      1.0  0.61176  0.24444  0.05774  1.0000
  S   S340      1.0  0.62510  0.23543  0.20974  1.0000
  S   S341      1.0  0.62751  0.25163  0.12123  1.0000
  Fe  Fe172     1.0  0.60315  0.21589  0.82671  1.0000
  S   S342      1.0  0.61412  0.23081  0.79328  1.0000
  S   S343      1.0  0.60123  0.20600  0.78596  1.0000
  Fe  Fe173     1.0  0.60400  0.21808  0.91014  1.0000
  S   S344      1.0  0.61520  0.23268  0.88193  1.0000
  S   S345      1.0  0.60033  0.21147  0.97869  1.0000
  Fe  Fe174     1.0  0.60586  0.23647  0.84208  1.0000
  Fe  Fe175     1.0  0.62246  0.22588  0.83632  1.0000
  S   S346      1.0  0.63870  0.22666  0.81315  1.0000
  S   S347      1.0  0.59404  0.22201  0.87249  1.0000
  S   S348      1.0  0.61208  0.21089  0.86773  1.0000
  Fe  Fe176     1.0  0.68568  0.23352  0.95733  1.0000
  S   S349      1.0  0.68023  0.22820  0.02610  1.0000
  Fe  Fe177     1.0  0.67923  0.24486  0.88994  1.0000
  S   S350      1.0  0.66651  0.25133  0.88227  1.0000
  Fe  Fe178     1.0  0.68989  0.22901  0.87594  1.0000
  S   S351      1.0  0.69246  0.21790  0.84107  1.0000
  S   S352      1.0  0.67593  0.22863  0.92280  1.0000
  S   S353      1.0  0.68805  0.24979  0.92758  1.0000
  Fe  Fe179     1.0  0.53845  0.06915  0.20198  1.0000
  S   S354      1.0  0.52925  0.06703  0.26575  1.0000
  S   S355      1.0  0.55339  0.06621  0.19251  1.0000
  Fe  Fe180     1.0  0.52266  0.07403  0.16526  1.0000
  H   H1324     1.0  0.57816  0.02849  0.74179  1.0000
  S   S356      1.0  0.52280  0.07980  0.09905  1.0000
  Fe  Fe181     1.0  0.52504  0.08093  0.23865  1.0000
  S   S357      1.0  0.52429  0.09238  0.27360  1.0000
  Fe  Fe182     1.0  0.51712  0.05848  0.25013  1.0000
  H   H1325     1.0  0.58119  0.16980  0.41024  1.0000
  S   S358      1.0  0.53518  0.08358  0.17537  1.0000
  S   S359      1.0  0.52689  0.05981  0.18755  1.0000
  Fe  Fe183     1.0  0.63138  0.16738  0.40311  1.0000
  S   S360      1.0  0.64206  0.16678  0.34629  1.0000
  S   S361      1.0  0.61746  0.17211  0.40186  1.0000
  Fe  Fe184     1.0  0.64340  0.16059  0.45733  1.0000
  S   S362      1.0  0.65510  0.15902  0.40510  1.0000
  S   S363      1.0  0.64065  0.15732  0.52575  1.0000
  Fe  Fe185     1.0  0.65368  0.17377  0.36878  1.0000
  S   S364      1.0  0.66719  0.18546  0.32256  1.0000
  Fe  Fe186     1.0  0.64256  0.15210  0.38607  1.0000
  S   S365      1.0  0.64326  0.13933  0.35873  1.0000
  S   S366      1.0  0.64285  0.17572  0.42206  1.0000
  S   S367      1.0  0.63108  0.15235  0.44180  1.0000
  Fe  Fe187     1.0  0.55973  0.13804  0.32100  1.0000
  S   S368      1.0  0.57412  0.14929  0.28183  1.0000
  S   S369      1.0  0.55690  0.12601  0.29010  1.0000
  Fe  Fe188     1.0  0.55903  0.14695  0.39246  1.0000
  S   S370      1.0  0.57337  0.15819  0.35825  1.0000
  S   S371      1.0  0.55128  0.14675  0.45722  1.0000
  Fe  Fe189     1.0  0.56777  0.16070  0.30461  1.0000
  S   S372      1.0  0.57002  0.17659  0.26508  1.0000
  Fe  Fe190     1.0  0.57843  0.14593  0.33857  1.0000
  S   S373      1.0  0.59314  0.14295  0.33767  1.0000
  S   S374      1.0  0.55287  0.14996  0.33939  1.0000
  S   S375      1.0  0.56455  0.13429  0.37735  1.0000
  Fe  Fe191     1.0  0.60266  0.07780  0.28966  1.0000
  S   S376      1.0  0.59606  0.08070  0.23907  1.0000
  Fe  Fe192     1.0  0.60870  0.10009  0.28190  1.0000
  S   S377      1.0  0.60259  0.10433  0.22944  1.0000
  S   S378      1.0  0.61095  0.11210  0.31301  1.0000
  Fe  Fe193     1.0  0.58985  0.09134  0.26740  1.0000
  S   S379      1.0  0.57442  0.09287  0.27525  1.0000
  Fe  Fe194     1.0  0.60935  0.09328  0.20518  1.0000
  S   S380      1.0  0.61641  0.09575  0.13712  1.0000
  S   S381      1.0  0.59534  0.08750  0.32091  1.0000
  S   S382      1.0  0.61670  0.08991  0.25440  1.0000
  Fe  Fe195     1.0  0.60307  0.09517  0.87372  1.0000
  S   S383      1.0  0.59310  0.09742  0.92869  1.0000
  S   S384      1.0  0.61295  0.10886  0.82136  1.0000
  Fe  Fe196     1.0  0.59179  0.07312  0.89678  1.0000
  S   S385      1.0  0.58128  0.07408  0.95364  1.0000
  S   S386      1.0  0.58970  0.05797  0.88536  1.0000
  Fe  Fe197     1.0  0.58107  0.08874  0.91409  1.0000
  S   S387      1.0  0.56706  0.09333  0.91447  1.0000
  Fe  Fe198     1.0  0.59438  0.08258  0.96402  1.0000
  S   S388      1.0  0.59255  0.07848  0.03241  1.0000
  S   S389      1.0  0.59073  0.08746  0.85655  1.0000
  S   S390      1.0  0.60519  0.08063  0.90966  1.0000
  Fe  Fe199     1.0  0.65705  0.18204  0.75686  1.0000
  S   S391      1.0  0.65403  0.18561  0.69636  1.0000
  S   S392      1.0  0.65935  0.19378  0.78872  1.0000
  Fe  Fe200     1.0  0.64750  0.15965  0.77861  1.0000
  S   S393      1.0  0.64358  0.16159  0.72112  1.0000
  S   S394      1.0  0.64367  0.14484  0.82820  1.0000
  Fe  Fe201     1.0  0.65865  0.17181  0.68974  1.0000
  S   S395      1.0  0.66703  0.17007  0.62945  1.0000
  Fe  Fe202     1.0  0.63928  0.17512  0.73140  1.0000
  S   S396      1.0  0.62541  0.17928  0.72644  1.0000
  S   S397      1.0  0.66312  0.16900  0.74729  1.0000
  S   S398      1.0  0.64178  0.17230  0.79193  1.0000
  Fe  Fe203     1.0  0.57215  0.16314  0.71415  1.0000
  S   S399      1.0  0.57538  0.14875  0.74333  1.0000
  S   S400      1.0  0.57037  0.17427  0.75024  1.0000
  Fe  Fe204     1.0  0.57210  0.15765  0.63524  1.0000
  S   S401      1.0  0.57535  0.14309  0.65990  1.0000
  S   S402      1.0  0.57492  0.16224  0.56597  1.0000
  Fe  Fe205     1.0  0.56423  0.14131  0.72001  1.0000
  S   S403      1.0  0.55752  0.12489  0.75526  1.0000
  Fe  Fe206     1.0  0.58601  0.15144  0.68143  1.0000
  S   S404      1.0  0.60099  0.14857  0.66948  1.0000
  S   S405      1.0  0.55999  0.15549  0.69429  1.0000
  S   S406      1.0  0.58371  0.16626  0.65344  1.0000
  Fe  Fe207     1.0  0.51460  0.07932  0.84275  1.0000
  S   S407      1.0  0.52253  0.07594  0.88875  1.0000
  S   S408      1.0  0.51476  0.09553  0.81755  1.0000
  H   H1326     1.0  0.59209  0.05375  0.67363  1.0000
  S   S409      1.0  0.51705  0.05282  0.88994  1.0000
  C   C837      1.0  0.58309  0.05535  0.31721  1.0000
  H   H1327     1.0  0.56425  0.01227  0.52520  1.0000
  H   H1328     1.0  0.54930  0.03471  0.24423  1.0000
  Fe  Fe208     1.0  0.52886  0.06664  0.85282  1.0000
  S   S410      1.0  0.54458  0.06582  0.83877  1.0000
  C   C838      1.0  0.50506  0.09504  0.98226  1.0000
  S   S411      1.0  0.52195  0.07099  0.80405  1.0000
  S   S412      1.0  0.60158  0.06174  0.32299  1.0000
  H   H1329     1.0  0.64590  0.17806  0.86473  1.0000
  H   H1330     1.0  0.57809  0.04794  0.65013  1.0000
  H   H1331     1.0  0.62265  0.18688  0.79947  1.0000
  H   H1332     1.0  0.57875  0.06511  0.82921  1.0000
  C   C839      1.0  0.54545  0.11712  0.77205  1.0000
  C   C840      1.0  0.54434  0.10684  0.78524  1.0000
  C   C841      1.0  0.53499  0.10025  0.79830  1.0000
  C   C842      1.0  0.52660  0.10385  0.79904  1.0000
  C   C843      1.0  0.52767  0.11415  0.78579  1.0000
  C   C844      1.0  0.53708  0.12078  0.77217  1.0000
  H   H1333     1.0  0.55075  0.10391  0.78514  1.0000
  H   H1334     1.0  0.53428  0.09236  0.80759  1.0000
  H   H1335     1.0  0.52120  0.11701  0.78625  1.0000
  H   H1336     1.0  0.53784  0.12870  0.76223  1.0000
  C   C845      1.0  0.61874  0.17108  0.70883  1.0000
  C   C846      1.0  0.62354  0.16593  0.68492  1.0000
  C   C847      1.0  0.61809  0.15902  0.67258  1.0000
  C   C848      1.0  0.60784  0.15731  0.68408  1.0000
  C   C849      1.0  0.60306  0.16270  0.70688  1.0000
  C   C850      1.0  0.60851  0.16957  0.71930  1.0000
  H   H1337     1.0  0.63145  0.16743  0.67529  1.0000
  H   H1338     1.0  0.62180  0.15511  0.65377  1.0000
  H   H1339     1.0  0.59515  0.16153  0.71551  1.0000
  H   H1340     1.0  0.60478  0.17357  0.73771  1.0000
  H   H1341     1.0  0.58482  0.03775  0.88584  1.0000
  C   C851      1.0  0.62040  0.11889  0.82839  1.0000
  C   C852      1.0  0.62173  0.12854  0.80264  1.0000
  C   C853      1.0  0.62861  0.13656  0.80332  1.0000
  C   C854      1.0  0.63433  0.13502  0.82936  1.0000
  C   C855      1.0  0.63276  0.12543  0.85613  1.0000
  C   C856      1.0  0.62580  0.11740  0.85579  1.0000
  H   H1342     1.0  0.61750  0.12978  0.78174  1.0000
  H   H1343     1.0  0.62948  0.14395  0.78369  1.0000
  H   H1344     1.0  0.63710  0.12415  0.87661  1.0000
  H   H1345     1.0  0.62489  0.11000  0.87559  1.0000
  C   C857      1.0  0.56120  0.08619  0.89058  1.0000
  C   C858      1.0  0.56441  0.07795  0.88399  1.0000
  C   C859      1.0  0.55952  0.07198  0.86631  1.0000
  C   C860      1.0  0.55136  0.07416  0.85556  1.0000
  C   C861      1.0  0.54833  0.08258  0.86090  1.0000
  C   C862      1.0  0.55321  0.08857  0.87866  1.0000
  H   H1346     1.0  0.57051  0.07598  0.89337  1.0000
  H   H1347     1.0  0.56185  0.06546  0.86235  1.0000
  H   H1348     1.0  0.54234  0.08455  0.85087  1.0000
  H   H1349     1.0  0.55080  0.09504  0.88304  1.0000
  C   C863      1.0  0.60947  0.09176  0.10712  1.0000
  C   C864      1.0  0.59961  0.08635  0.12485  1.0000
  C   C865      1.0  0.59458  0.08242  0.10140  1.0000
  C   C866      1.0  0.59917  0.08418  0.05942  1.0000
  C   C867      1.0  0.60891  0.08994  0.04111  1.0000
  C   C868      1.0  0.61406  0.09361  0.06501  1.0000
  H   H1350     1.0  0.59587  0.08500  0.15686  1.0000
  H   H1351     1.0  0.58709  0.07795  0.11609  1.0000
  H   H1352     1.0  0.61256  0.09132  0.00889  1.0000
  H   H1353     1.0  0.62167  0.09781  0.05084  1.0000
  C   C869      1.0  0.56816  0.15726  0.53778  1.0000
  C   C870      1.0  0.55786  0.15516  0.54973  1.0000
  C   C871      1.0  0.55279  0.15194  0.52480  1.0000
  C   C872      1.0  0.55795  0.15072  0.48784  1.0000
  C   C873      1.0  0.56825  0.15272  0.47613  1.0000
  C   C874      1.0  0.57333  0.15608  0.50074  1.0000
  H   H1354     1.0  0.55381  0.15633  0.57754  1.0000
  H   H1355     1.0  0.54483  0.15053  0.53385  1.0000
  H   H1356     1.0  0.57231  0.15167  0.44811  1.0000
  H   H1357     1.0  0.58131  0.15776  0.49100  1.0000
  C   C875      1.0  0.64861  0.16238  0.54942  1.0000
  C   C876      1.0  0.64457  0.16565  0.58242  1.0000
  C   C877      1.0  0.65030  0.16838  0.60593  1.0000
  C   C878      1.0  0.66006  0.16761  0.59753  1.0000
  C   C879      1.0  0.66418  0.16448  0.56417  1.0000
  C   C880      1.0  0.65848  0.16189  0.54009  1.0000
  H   H1358     1.0  0.63692  0.16597  0.59020  1.0000
  H   H1359     1.0  0.64717  0.17103  0.63084  1.0000
  H   H1360     1.0  0.67169  0.16373  0.55786  1.0000
  H   H1361     1.0  0.66155  0.15898  0.51585  1.0000
  C   C881      1.0  0.63409  0.13130  0.34860  1.0000
  C   C882      1.0  0.63706  0.12551  0.32356  1.0000
  C   C883      1.0  0.63013  0.11943  0.31298  1.0000
  C   C884      1.0  0.62007  0.11902  0.32746  1.0000
  C   C885      1.0  0.61708  0.12470  0.35302  1.0000
  C   C886      1.0  0.62402  0.13079  0.36350  1.0000
  H   H1362     1.0  0.64482  0.12579  0.31192  1.0000
  H   H1363     1.0  0.63258  0.11513  0.29335  1.0000
  H   H1364     1.0  0.60933  0.12444  0.36458  1.0000
  H   H1365     1.0  0.62158  0.13511  0.38305  1.0000
  C   C887      1.0  0.61017  0.16389  0.38631  1.0000
  C   C888      1.0  0.60426  0.16733  0.36317  1.0000
  C   C889      1.0  0.59886  0.16087  0.34868  1.0000
  C   C890      1.0  0.59930  0.15096  0.35769  1.0000
  C   C891      1.0  0.60510  0.14750  0.38123  1.0000
  C   C892      1.0  0.61056  0.15396  0.39534  1.0000
  H   H1366     1.0  0.60417  0.17506  0.35516  1.0000
  H   H1367     1.0  0.59467  0.16365  0.32930  1.0000
  H   H1368     1.0  0.60539  0.13982  0.38853  1.0000
  H   H1369     1.0  0.61502  0.15121  0.41337  1.0000
  S   S413      1.0  0.69253  0.24507  0.84054  1.0000
  H   H1370     1.0  0.61580  0.19538  0.81470  1.0000
  C   C893      1.0  0.58606  0.12662  0.76392  1.0000
  H   H1371     1.0  0.63682  0.16445  0.20467  1.0000
  C   C894      1.0  0.51784  0.07316  0.07041  1.0000
  H   H1372     1.0  0.65748  0.25070  0.97050  1.0000
  H   H1373     1.0  0.59711  0.04486  0.70223  1.0000
  H   H1374     1.0  0.57983  0.02279  0.70198  1.0000
  C   C895      1.0  0.58334  0.02874  0.71216  1.0000
  C   C896      1.0  0.50630  0.05973  0.06454  1.0000
  H   H1375     1.0  0.52711  0.08390  0.01292  1.0000
  H   H1376     1.0  0.58939  0.03282  0.63070  1.0000
  H   H1377     1.0  0.64780  0.25126  0.76092  1.0000
  H   H1378     1.0  0.72567  0.23468  0.73312  1.0000
  C   C897      1.0  0.53341  0.10204  0.27623  1.0000
  C   C898      1.0  0.54330  0.10465  0.25174  1.0000
  C   C899      1.0  0.55030  0.11205  0.25615  1.0000
  C   C900      1.0  0.54756  0.11702  0.28494  1.0000
  C   C901      1.0  0.53764  0.11446  0.30928  1.0000
  C   C902      1.0  0.53066  0.10703  0.30494  1.0000
  H   H1379     1.0  0.54555  0.10098  0.22928  1.0000
  H   H1380     1.0  0.55792  0.11393  0.23699  1.0000
  H   H1381     1.0  0.53535  0.11818  0.33151  1.0000
  H   H1382     1.0  0.52303  0.10515  0.32400  1.0000
  C   C903      1.0  0.55964  0.07379  0.21369  1.0000
  C   C904      1.0  0.55750  0.08289  0.21374  1.0000
  C   C905      1.0  0.56234  0.08891  0.23136  1.0000
  C   C906      1.0  0.56905  0.08567  0.25032  1.0000
  C   C907      1.0  0.57098  0.07646  0.25122  1.0000
  C   C908      1.0  0.56643  0.07059  0.23219  1.0000
  H   H1383     1.0  0.55225  0.08541  0.19965  1.0000
  H   H1384     1.0  0.56091  0.09607  0.23023  1.0000
  H   H1385     1.0  0.57574  0.07370  0.26769  1.0000
  H   H1386     1.0  0.56796  0.06346  0.23290  1.0000
  C   C909      1.0  0.68316  0.21119  0.82686  1.0000
  C   C910      1.0  0.68550  0.20441  0.80591  1.0000
  C   C911      1.0  0.67837  0.19902  0.79383  1.0000
  C   C912      1.0  0.66878  0.20037  0.80258  1.0000
  C   C913      1.0  0.66643  0.20709  0.82375  1.0000
  C   C914      1.0  0.67356  0.21247  0.83578  1.0000
  H   H1387     1.0  0.69290  0.20335  0.79877  1.0000
  H   H1388     1.0  0.68032  0.19392  0.77746  1.0000
  H   H1389     1.0  0.65906  0.20823  0.83068  1.0000
  H   H1390     1.0  0.67162  0.21766  0.85175  1.0000
  C   C915      1.0  0.59247  0.19700  0.77753  1.0000
  C   C916      1.0  0.59588  0.19228  0.74844  1.0000
  C   C917      1.0  0.58930  0.18526  0.74012  1.0000
  C   C918      1.0  0.57914  0.18285  0.76055  1.0000
  C   C919      1.0  0.57572  0.18757  0.78960  1.0000
  C   C920      1.0  0.58231  0.19453  0.79821  1.0000
  H   H1391     1.0  0.60369  0.19409  0.73197  1.0000
  H   H1392     1.0  0.59209  0.18182  0.71743  1.0000
  H   H1393     1.0  0.56790  0.18584  0.80557  1.0000
  H   H1394     1.0  0.57949  0.19806  0.82053  1.0000
  C   C921      1.0  0.64631  0.23327  0.83367  1.0000
  C   C922      1.0  0.64294  0.23979  0.85373  1.0000
  C   C923      1.0  0.64926  0.24550  0.86758  1.0000
  C   C924      1.0  0.65888  0.24443  0.86293  1.0000
  C   C925      1.0  0.66222  0.23775  0.84369  1.0000
  C   C926      1.0  0.65598  0.23230  0.82849  1.0000
  H   H1395     1.0  0.63550  0.24052  0.85812  1.0000
  H   H1396     1.0  0.64664  0.25063  0.88260  1.0000
  H   H1397     1.0  0.66965  0.23690  0.83992  1.0000
  H   H1398     1.0  0.65866  0.22728  0.81290  1.0000
  C   C927      1.0  0.59777  0.20025  0.24611  1.0000
  C   C928      1.0  0.58998  0.20297  0.23331  1.0000
  C   C929      1.0  0.58144  0.19567  0.23986  1.0000
  C   C930      1.0  0.58069  0.18560  0.25857  1.0000
  C   C931      1.0  0.58848  0.18290  0.27131  1.0000
  C   C932      1.0  0.59692  0.19020  0.26549  1.0000
  H   H1399     1.0  0.59049  0.21071  0.21899  1.0000
  H   H1400     1.0  0.57538  0.19783  0.23054  1.0000
  H   H1401     1.0  0.58804  0.17518  0.28527  1.0000
  H   H1402     1.0  0.60289  0.18803  0.27564  1.0000
  C   C933      1.0  0.60886  0.23521  0.03569  1.0000
  C   C934      1.0  0.60527  0.23750  0.00238  1.0000
  C   C935      1.0  0.60278  0.23027  0.98447  1.0000
  C   C936      1.0  0.60390  0.22072  0.99962  1.0000
  C   C937      1.0  0.60763  0.21846  0.03251  1.0000
  C   C938      1.0  0.61005  0.22567  0.05069  1.0000
  H   H1403     1.0  0.60430  0.24483  0.99059  1.0000
  H   H1404     1.0  0.59981  0.23205  0.95936  1.0000
  H   H1405     1.0  0.60876  0.21116  0.04360  1.0000
  H   H1406     1.0  0.61285  0.22385  0.07621  1.0000
  S   S414      1.0  0.55399  0.02317  0.73338  1.0000
  H   H1407     1.0  0.58571  0.20571  0.15319  1.0000
  H   H1408     1.0  0.55519  0.08407  0.12478  1.0000
  H   H1409     1.0  0.56926  0.05013  0.30836  1.0000
  H   H1410     1.0  0.55559  0.03912  0.27587  1.0000
  C   C939      1.0  0.52132  0.07711  0.02747  1.0000
  H   H1411     1.0  0.57734  0.10343  0.33532  1.0000
  Fe  Fe209     1.0  0.51001  0.06258  0.92218  1.0000
  C   C940      1.0  0.67969  0.21754  0.31554  1.0000
  C   C941      1.0  0.67095  0.21174  0.34687  1.0000
  C   C942      1.0  0.66674  0.20205  0.34852  1.0000
  C   C943      1.0  0.67146  0.19794  0.31967  1.0000
  C   C944      1.0  0.68011  0.20380  0.28808  1.0000
  C   C945      1.0  0.68414  0.21358  0.28568  1.0000
  H   H1412     1.0  0.66745  0.21476  0.37004  1.0000
  H   H1413     1.0  0.65999  0.19770  0.37262  1.0000
  H   H1414     1.0  0.68380  0.20071  0.26551  1.0000
  H   H1415     1.0  0.69089  0.21795  0.26154  1.0000
  C   C946      1.0  0.68856  0.23330  0.04786  1.0000
  C   C947      1.0  0.68529  0.23265  0.08925  1.0000
  C   C948      1.0  0.69177  0.23679  0.10712  1.0000
  H   H1416     1.0  0.57513  0.20741  0.10901  1.0000
  H   H1417     1.0  0.67770  0.22897  0.10734  1.0000
  H   H1418     1.0  0.68918  0.23625  0.13896  1.0000
  H   H1419     1.0  0.63952  0.24397  0.00917  1.0000
  S   S415      1.0  0.54675  0.01353  0.45308  1.0000
  C   C949      1.0  0.66734  0.24867  0.13025  1.0000
  C   C950      1.0  0.65717  0.24778  0.13941  1.0000
  C   C951      1.0  0.65253  0.25259  0.16533  1.0000
  Fe  Fe210     1.0  0.53975  0.01234  0.77210  1.0000
  N   N83       1.0  0.50747  0.09530  0.93900  1.0000
  H   H1420     1.0  0.67095  0.24499  0.10999  1.0000
  H   H1421     1.0  0.73763  0.24362  0.78082  1.0000
  S   S416      1.0  0.51195  0.07229  0.22739  1.0000
  C   C952      1.0  0.58132  0.04185  0.86612  1.0000
  N   N84       1.0  0.53517  0.04159  0.80322  1.0000
  C   C953      1.0  0.52532  0.03460  0.82277  1.0000
  C   C954      1.0  0.54024  0.04177  0.83414  1.0000
  C   C955      1.0  0.53409  0.05159  0.78487  1.0000
  C   C956      1.0  0.54107  0.03837  0.77091  1.0000
  H   H1422     1.0  0.52589  0.02696  0.83686  1.0000
  H   H1423     1.0  0.52138  0.03424  0.79996  1.0000
  H   H1424     1.0  0.52058  0.03689  0.84691  1.0000
  H   H1425     1.0  0.54141  0.03438  0.84786  1.0000
  H   H1426     1.0  0.54766  0.04708  0.82032  1.0000
  H   H1427     1.0  0.53597  0.04411  0.85927  1.0000
  H   H1428     1.0  0.54138  0.05709  0.76989  1.0000
  H   H1429     1.0  0.52973  0.05421  0.80864  1.0000
  H   H1430     1.0  0.53015  0.05170  0.76184  1.0000
  H   H1431     1.0  0.54863  0.04335  0.75594  1.0000
  H   H1432     1.0  0.53750  0.03813  0.74692  1.0000
  H   H1433     1.0  0.54184  0.03081  0.78417  1.0000
  H   H1434     1.0  0.52147  0.09196  0.93734  1.0000
  H   H1435     1.0  0.72931  0.22777  0.77419  1.0000
  H   H1436     1.0  0.64701  0.23858  0.95105  1.0000
  H   H1437     1.0  0.64280  0.22582  0.98231  1.0000
  N   N85       1.0  0.63042  0.20228  0.77195  1.0000
  C   C957      1.0  0.62810  0.21189  0.75726  1.0000
  C   C958      1.0  0.63733  0.20054  0.73748  1.0000
  H   H1438     1.0  0.62452  0.21199  0.73309  1.0000
  H   H1439     1.0  0.63483  0.21813  0.74480  1.0000
  H   H1440     1.0  0.62284  0.21339  0.78246  1.0000
  H   H1441     1.0  0.64205  0.20832  0.79246  1.0000
  H   H1442     1.0  0.63918  0.19332  0.74763  1.0000
  H   H1443     1.0  0.64438  0.20639  0.72425  1.0000
  H   H1444     1.0  0.63407  0.20032  0.71260  1.0000
  H   H1445     1.0  0.61751  0.19404  0.76509  1.0000
  N   N86       1.0  0.61001  0.16141  0.54065  1.0000
  C   C959      1.0  0.60515  0.15847  0.51238  1.0000
  C   C960      1.0  0.61886  0.16964  0.51694  1.0000
  C   C961      1.0  0.61299  0.15291  0.56324  1.0000
  C   C962      1.0  0.60306  0.16463  0.57006  1.0000
  H   H1446     1.0  0.59838  0.15234  0.52927  1.0000
  H   H1447     1.0  0.61017  0.15598  0.48974  1.0000
  H   H1448     1.0  0.60291  0.16477  0.49455  1.0000
  H   H1449     1.0  0.62268  0.17208  0.53736  1.0000
  H   H1450     1.0  0.62427  0.16737  0.49492  1.0000
  H   H1451     1.0  0.61694  0.17616  0.49893  1.0000
  H   H1452     1.0  0.61677  0.15495  0.58452  1.0000
  H   H1453     1.0  0.61821  0.15025  0.54204  1.0000
  H   H1454     1.0  0.60649  0.14660  0.58215  1.0000
  H   H1455     1.0  0.60644  0.16685  0.59212  1.0000
  H   H1456     1.0  0.59631  0.15856  0.58852  1.0000
  H   H1457     1.0  0.60059  0.17102  0.55425  1.0000
  N   N87       1.0  0.55088  0.12623  0.62663  1.0000
  C   C963      1.0  0.54318  0.13114  0.61755  1.0000
  C   C964      1.0  0.54983  0.11692  0.61628  1.0000
  C   C965      1.0  0.54977  0.12399  0.67065  1.0000
  C   C966      1.0  0.56073  0.13285  0.60211  1.0000
  H   H1458     1.0  0.54385  0.13828  0.62445  1.0000
  H   H1459     1.0  0.53564  0.12642  0.63604  1.0000
  H   H1460     1.0  0.54371  0.13282  0.58464  1.0000
  H   H1461     1.0  0.55550  0.11299  0.62296  1.0000
  H   H1462     1.0  0.54245  0.11175  0.63428  1.0000
  H   H1463     1.0  0.55065  0.11835  0.58319  1.0000
  H   H1464     1.0  0.55551  0.12037  0.67873  1.0000
  H   H1465     1.0  0.54245  0.11893  0.69022  1.0000
  H   H1466     1.0  0.55045  0.13084  0.67971  1.0000
  H   H1467     1.0  0.56674  0.12938  0.60812  1.0000
  H   H1468     1.0  0.56179  0.13991  0.60948  1.0000
  H   H1469     1.0  0.56181  0.13479  0.56865  1.0000
  N   N88       1.0  0.65750  0.22207  0.23252  1.0000
  C   C967      1.0  0.66424  0.22462  0.19030  1.0000
  C   C968      1.0  0.66300  0.21966  0.26177  1.0000
  C   C969      1.0  0.64935  0.21341  0.24072  1.0000
  C   C970      1.0  0.65341  0.23058  0.23724  1.0000
  H   H1470     1.0  0.66751  0.21838  0.18562  1.0000
  H   H1471     1.0  0.67046  0.23114  0.18308  1.0000
  H   H1472     1.0  0.66034  0.22650  0.16731  1.0000
  H   H1473     1.0  0.66918  0.22604  0.25671  1.0000
  H   H1474     1.0  0.65816  0.21760  0.29405  1.0000
  H   H1475     1.0  0.66625  0.21331  0.25875  1.0000
  H   H1476     1.0  0.64408  0.21131  0.27228  1.0000
  H   H1477     1.0  0.65217  0.20683  0.23769  1.0000
  H   H1478     1.0  0.64507  0.21499  0.21896  1.0000
  H   H1479     1.0  0.65939  0.23733  0.23013  1.0000
  H   H1480     1.0  0.64848  0.22902  0.26901  1.0000
  H   H1481     1.0  0.64900  0.23242  0.21628  1.0000
  H   H1482     1.0  0.56978  0.18470  0.13898  1.0000
  H   H1483     1.0  0.67728  0.18164  0.49219  1.0000
  C   C971      1.0  0.64143  0.23780  0.02935  1.0000
  H   H1484     1.0  0.59512  0.19644  0.06600  1.0000
  H   H1485     1.0  0.57464  0.19964  0.07705  1.0000
  H   H1486     1.0  0.58143  0.09264  0.05972  1.0000
  H   H1487     1.0  0.57228  0.07510  0.09726  1.0000
  H   H1488     1.0  0.58198  0.19354  0.33584  1.0000
  H   H1489     1.0  0.68031  0.17208  0.40323  1.0000
  H   H1490     1.0  0.56195  0.08553  0.01498  1.0000
  H   H1491     1.0  0.56926  0.17796  0.35543  1.0000
  H   H1492     1.0  0.58419  0.18688  0.07901  1.0000
  H   H1493     1.0  0.57046  0.19245  0.17081  1.0000
  H   H1494     1.0  0.55992  0.07081  0.09799  1.0000
  H   H1495     1.0  0.58625  0.17755  0.35781  1.0000
  H   H1496     1.0  0.59205  0.18576  0.11070  1.0000
  H   H1497     1.0  0.53045  0.07254  0.35314  1.0000
  H   H1498     1.0  0.56758  0.08834  0.12389  1.0000
  H   H1499     1.0  0.67850  0.17103  0.47566  1.0000
  H   H1500     1.0  0.55276  0.09343  0.30135  1.0000
  H   H1501     1.0  0.55182  0.08247  0.06176  1.0000
  H   H1502     1.0  0.57289  0.03488  0.66313  1.0000
  Fe  Fe211     1.0  0.55851  0.02084  0.79019  1.0000
  H   H1503     1.0  0.50545  0.07951  0.95396  1.0000
  H   H1504     1.0  0.64083  0.15693  0.92382  1.0000
  H   H1505     1.0  0.63339  0.15163  0.20826  1.0000
  H   H1506     1.0  0.59943  0.12254  0.26042  1.0000
  H   H1507     1.0  0.61855  0.07249  0.14370  1.0000
  H   H1508     1.0  0.53176  0.02005  0.31422  1.0000
  C   C972      1.0  0.56277  0.00831  0.62593  1.0000
  C   C973      1.0  0.66222  0.17118  0.85035  1.0000
  S   S417      1.0  0.56500  0.00816  0.77886  1.0000
  C   C974      1.0  0.64923  0.17660  0.88985  1.0000
  H   H1509     1.0  0.58562  0.20903  0.06564  1.0000
  C   C975      1.0  0.63505  0.20241  0.80422  1.0000
  C   C976      1.0  0.62121  0.19429  0.78869  1.0000
  H   H1510     1.0  0.59461  0.04586  0.61816  1.0000
  H   H1511     1.0  0.53186  0.04646  0.30045  1.0000
  H   H1512     1.0  0.63689  0.19525  0.81587  1.0000
  H   H1513     1.0  0.52201  0.10492  0.92032  1.0000
  C   C977      1.0  0.67281  0.25407  0.14829  1.0000
  H   H1514     1.0  0.53972  0.00791  0.55183  1.0000
  S   S418      1.0  0.60276  0.25185  0.82848  1.0000
  C   C978      1.0  0.64891  0.23260  0.97216  1.0000
  H   H1515     1.0  0.59248  0.19633  0.15579  1.0000
  C   C979      1.0  0.58240  0.05207  0.86043  1.0000
  C   C980      1.0  0.58969  0.20153  0.13507  1.0000
  H   H1516     1.0  0.59619  0.20698  0.11090  1.0000
  N   N89       1.0  0.65047  0.23552  0.00723  1.0000
  N   N90       1.0  0.58323  0.19621  0.11740  1.0000
  C   C981      1.0  0.57486  0.18887  0.15096  1.0000
  C   C982      1.0  0.65276  0.22733  0.03507  1.0000
  C   C983      1.0  0.57947  0.20338  0.09125  1.0000
  N   N91       1.0  0.58572  0.03856  0.68111  1.0000
  H   H1517     1.0  0.65952  0.22541  0.01906  1.0000
  H   H1518     1.0  0.65566  0.23113  0.95384  1.0000
  Fe  Fe212     1.0  0.50946  0.05750  0.84302  1.0000
  S   S419      1.0  0.50675  0.04678  0.80668  1.0000
  C   C984      1.0  0.56182  0.00862  0.55795  1.0000
  H   H1519     1.0  0.61311  0.07037  0.23456  1.0000
  C   C985      1.0  0.51830  0.09751  0.92044  1.0000
  H   H1520     1.0  0.61639  0.04722  0.21159  1.0000
  H   H1521     1.0  0.62387  0.05694  0.16524  1.0000
  C   C986      1.0  0.57578  0.03688  0.84660  1.0000
  C   C987      1.0  0.65882  0.24439  0.99224  1.0000
  H   H1522     1.0  0.64468  0.25194  0.17247  1.0000
  S   S420      1.0  0.56363  0.02909  0.34376  1.0000
  C   C988      1.0  0.56729  0.17801  0.38774  1.0000
  C   C989      1.0  0.58376  0.17763  0.38996  1.0000
  C   C990      1.0  0.57970  0.19328  0.36855  1.0000
  H   H1523     1.0  0.59035  0.18114  0.39646  1.0000
  H   H1524     1.0  0.58627  0.19722  0.37388  1.0000
  H   H1525     1.0  0.57400  0.19757  0.37260  1.0000
  C   C991      1.0  0.56715  0.07610  0.07896  1.0000
  H   H1526     1.0  0.57014  0.07390  0.05141  1.0000
  N   N92       1.0  0.53975  0.03508  0.30095  1.0000
  N   N93       1.0  0.57590  0.18296  0.39644  1.0000
  H   H1527     1.0  0.56121  0.18183  0.39247  1.0000
  H   H1528     1.0  0.68994  0.19706  0.41029  1.0000
  H   H1529     1.0  0.52037  0.07531  0.97040  1.0000
  H   H1530     1.0  0.65251  0.16453  0.95382  1.0000
  H   H1531     1.0  0.58040  0.02774  0.37505  1.0000
  H   H1532     1.0  0.56423  0.17018  0.40814  1.0000
  N   N94       1.0  0.56624  0.08644  0.06756  1.0000
  C   C992      1.0  0.57601  0.09317  0.04257  1.0000
  C   C993      1.0  0.55930  0.08741  0.04370  1.0000
  H   H1533     1.0  0.57562  0.10103  0.03305  1.0000
  S   S421      1.0  0.56446  0.03634  0.79374  1.0000
  H   H1534     1.0  0.50588  0.02157  0.32650  1.0000
  C   C994      1.0  0.68183  0.19471  0.41659  1.0000
  H   H1535     1.0  0.69116  0.18209  0.38761  1.0000
  H   H1536     1.0  0.68034  0.19838  0.38805  1.0000
  H   H1537     1.0  0.65454  0.18367  0.88503  1.0000
  H   H1538     1.0  0.53872  0.04650  0.25076  1.0000
  C   C995      1.0  0.57658  0.04064  0.67382  1.0000
  C   C996      1.0  0.54906  0.03370  0.27649  1.0000
  H   H1539     1.0  0.57912  0.09128  0.01433  1.0000
  H   H1540     1.0  0.55844  0.09513  0.03462  1.0000
  C   C997      1.0  0.57788  0.05724  0.83452  1.0000
  H   H1541     1.0  0.65315  0.14883  0.67649  1.0000
  H   H1542     1.0  0.53190  0.01709  0.61734  1.0000
  H   H1543     1.0  0.68129  0.18369  0.36691  1.0000
  H   H1544     1.0  0.67818  0.19773  0.44066  1.0000
  N   N95       1.0  0.72224  0.23907  0.78734  1.0000
  H   H1545     1.0  0.66014  0.24681  0.01803  1.0000
  C   C998      1.0  0.57289  0.18290  0.43946  1.0000
  H   H1546     1.0  0.57922  0.18643  0.44741  1.0000
  H   H1547     1.0  0.56703  0.18693  0.44550  1.0000
  C   C999      1.0  0.56251  0.08906  0.10513  1.0000
  H   H1548     1.0  0.57121  0.04078  0.70231  1.0000
  C   C1000     1.0  0.61099  0.06835  0.16452  1.0000
  N   N96       1.0  0.67829  0.18382  0.42910  1.0000
  C   C1001     1.0  0.68298  0.18025  0.39532  1.0000
  H   H1549     1.0  0.68899  0.18134  0.46013  1.0000
  H   H1550     1.0  0.56990  0.17520  0.46117  1.0000
  H   H1551     1.0  0.56170  0.09679  0.09797  1.0000
  H   H1552     1.0  0.63099  0.12298  0.69537  1.0000
  C   C1002     1.0  0.68089  0.17926  0.46586  1.0000
  H   H1553     1.0  0.66453  0.17285  0.44863  1.0000
  C   C1003     1.0  0.51159  0.01113  0.73426  1.0000
  H   H1554     1.0  0.53292  0.03466  0.36286  1.0000
  C   C1004     1.0  0.66746  0.18103  0.43861  1.0000
  H   H1555     1.0  0.66527  0.18418  0.41130  1.0000
  H   H1556     1.0  0.53757  0.08207  0.30595  1.0000
  C   C1005     1.0  0.59058  0.05275  0.33249  1.0000
  H   H1557     1.0  0.54513  0.05095  0.28179  1.0000
  Fe  Fe213     1.0  0.70307  0.24944  0.16544  1.0000
  H   H1558     1.0  0.66220  0.16055  0.92414  1.0000
  H   H1559     1.0  0.71633  0.24720  0.74355  1.0000
  H   H1560     1.0  0.66362  0.18369  0.46361  1.0000
  C   C1006     1.0  0.59266  0.03858  0.64248  1.0000
  H   H1561     1.0  0.64659  0.22055  0.04764  1.0000
  C   C1007     1.0  0.61614  0.05328  0.18545  1.0000
  H   H1562     1.0  0.55675  0.07554  0.35081  1.0000
  H   H1563     1.0  0.64322  0.17490  0.91921  1.0000
  Fe  Fe214     1.0  0.70123  0.24839  0.88177  1.0000
  H   H1564     1.0  0.61678  0.05919  0.25096  1.0000
  H   H1565     1.0  0.66598  0.16511  0.84834  1.0000
  H   H1566     1.0  0.64360  0.16042  0.86936  1.0000
  C   C1008     1.0  0.59022  0.04622  0.69615  1.0000
  N   N97       1.0  0.54384  0.08129  0.35466  1.0000
  H   H1567     1.0  0.53056  0.08529  0.34782  1.0000
  C   C1009     1.0  0.53522  0.08022  0.33992  1.0000
  C   C1010     1.0  0.54967  0.07431  0.34387  1.0000
  C   C1011     1.0  0.69839  0.23802  0.02442  1.0000
  C   C1012     1.0  0.70162  0.24146  0.08383  1.0000
  H   H1568     1.0  0.60737  0.07389  0.17462  1.0000
  H   H1569     1.0  0.54551  0.06648  0.36054  1.0000
  S   S422      1.0  0.69947  0.23230  0.91431  1.0000
  H   H1570     1.0  0.57508  0.02905  0.85146  1.0000
  H   H1571     1.0  0.64658  0.14052  0.72746  1.0000
  C   C1013     1.0  0.55002  0.09155  0.33518  1.0000
  H   H1572     1.0  0.56808  0.12298  0.81817  1.0000
  H   H1573     1.0  0.70099  0.23848  0.99252  1.0000
  H   H1574     1.0  0.70726  0.23802  0.78767  1.0000
  H   H1575     1.0  0.63986  0.25055  0.72990  1.0000
  C   C1014     1.0  0.61664  0.06489  0.22338  1.0000
  C   C1015     1.0  0.70493  0.24196  0.04254  1.0000
  H   H1576     1.0  0.54050  0.02611  0.35799  1.0000
  H   H1577     1.0  0.62473  0.15915  0.20410  1.0000
  H   H1578     1.0  0.54582  0.09704  0.34208  1.0000
  H   H1579     1.0  0.58510  0.04630  0.72544  1.0000
  H   H1580     1.0  0.63421  0.12533  0.73783  1.0000
  H   H1581     1.0  0.53561  0.07147  0.41531  1.0000
  C   C1016     1.0  0.54045  0.07910  0.39957  1.0000
  C   C1017     1.0  0.63061  0.15767  0.21796  1.0000
  H   H1582     1.0  0.55664  0.09268  0.34531  1.0000
  H   H1583     1.0  0.62438  0.06885  0.20434  1.0000
  H   H1584     1.0  0.54281  0.04555  0.03466  1.0000
  H   H1585     1.0  0.52574  0.05516  0.03170  1.0000
  S   S423      1.0  0.56824  0.01373  0.65692  1.0000
  H   H1586     1.0  0.58957  0.13338  0.76953  1.0000
  S   S424      1.0  0.51087  0.04281  0.29610  1.0000
  S   S425      1.0  0.70978  0.24724  0.10474  1.0000
  H   H1587     1.0  0.53952  0.07115  0.95179  1.0000
  H   H1588     1.0  0.61675  0.16436  0.26437  1.0000
  H   H1589     1.0  0.62116  0.13947  0.27152  1.0000
  S   S426      1.0  0.70959  0.24707  0.21695  1.0000
  N   N98       1.0  0.62681  0.15491  0.26305  1.0000
  H   H1590     1.0  0.54680  0.07973  0.41162  1.0000
  H   H1591     1.0  0.61562  0.14358  0.31318  1.0000
  C   C1018     1.0  0.54429  0.05378  0.02402  1.0000
  C   C1019     1.0  0.52947  0.05306  0.00477  1.0000
  H   H1592     1.0  0.55244  0.05682  0.01408  1.0000
  H   H1593     1.0  0.52757  0.04483  0.01417  1.0000
  H   H1594     1.0  0.62901  0.17010  0.26211  1.0000
  C   C1020     1.0  0.61867  0.14584  0.27929  1.0000
  C   C1021     1.0  0.62315  0.16305  0.27489  1.0000
  H   H1595     1.0  0.53613  0.08435  0.40848  1.0000
  H   H1596     1.0  0.71257  0.24546  0.02440  1.0000
  N   N99       1.0  0.54026  0.05729  0.99040  1.0000
  C   C1022     1.0  0.54236  0.06822  0.97747  1.0000
  H   H1597     1.0  0.54094  0.05608  0.05092  1.0000
  H   H1598     1.0  0.52613  0.05571  0.98041  1.0000
  C   C1023     1.0  0.59429  0.12532  0.28142  1.0000
  H   H1599     1.0  0.59748  0.12596  0.30616  1.0000
  H   H1600     1.0  0.58957  0.10554  0.30180  1.0000
  C   C1024     1.0  0.63483  0.15305  0.28020  1.0000
  H   H1601     1.0  0.64119  0.15966  0.26832  1.0000
  H   H1602     1.0  0.63764  0.14678  0.27293  1.0000
  H   H1603     1.0  0.55043  0.07165  0.96681  1.0000
  H   H1604     1.0  0.53889  0.07087  0.00307  1.0000
  C   C1025     1.0  0.58475  0.10871  0.32186  1.0000
  H   H1605     1.0  0.59418  0.13290  0.26427  1.0000
  H   H1606     1.0  0.58788  0.10906  0.34701  1.0000
  H   H1607     1.0  0.58373  0.06299  0.30150  1.0000
  H   H1608     1.0  0.61243  0.14694  0.26734  1.0000
  H   H1609     1.0  0.62064  0.16132  0.30874  1.0000
  N   N100      1.0  0.58429  0.11859  0.29852  1.0000
  H   H1610     1.0  0.58496  0.11479  0.24352  1.0000
  C   C1026     1.0  0.57668  0.10954  0.79338  1.0000
  C   C1027     1.0  0.57128  0.04207  0.82068  1.0000
  H   H1611     1.0  0.65419  0.22939  0.06144  1.0000
  H   H1612     1.0  0.66787  0.17796  0.84584  1.0000
  H   H1613     1.0  0.56896  0.05644  0.79494  1.0000
  H   H1614     1.0  0.63223  0.15111  0.31417  1.0000
  C   C1028     1.0  0.54491  0.05411  0.95535  1.0000
  H   H1615     1.0  0.55307  0.05714  0.94382  1.0000
  C   C1029     1.0  0.58031  0.11785  0.26493  1.0000
  C   C1030     1.0  0.57777  0.12250  0.32620  1.0000
  H   H1616     1.0  0.57979  0.12520  0.24698  1.0000
  H   H1617     1.0  0.58051  0.12315  0.35205  1.0000
  H   H1618     1.0  0.54208  0.05671  0.92929  1.0000
  H   H1619     1.0  0.73398  0.25054  0.73974  1.0000
  H   H1620     1.0  0.57271  0.11291  0.27694  1.0000
  H   H1621     1.0  0.57011  0.11771  0.33920  1.0000
  H   H1622     1.0  0.57734  0.12998  0.30952  1.0000
  H   H1623     1.0  0.54345  0.04591  0.96386  1.0000
  H   H1624     1.0  0.58050  0.12859  0.74885  1.0000
  H   H1625     1.0  0.60083  0.04942  0.25439  1.0000
  N   N101      1.0  0.61118  0.06045  0.20000  1.0000
  S   S427      1.0  0.52561  0.01626  0.76840  1.0000
  H   H1626     1.0  0.64010  0.13475  0.62410  1.0000
  C   C1031     1.0  0.64697  0.15933  0.89437  1.0000
  H   H1627     1.0  0.65167  0.13351  0.63194  1.0000
  H   H1628     1.0  0.63708  0.15037  0.66601  1.0000
  H   H1629     1.0  0.57322  0.10306  0.82170  1.0000
  H   H1630     1.0  0.58586  0.10941  0.85014  1.0000
  H   H1631     1.0  0.62788  0.13949  0.67347  1.0000
  H   H1632     1.0  0.65540  0.13680  0.69248  1.0000
  H   H1633     1.0  0.52415  0.02861  0.31952  1.0000
  H   H1634     1.0  0.59483  0.11337  0.80017  1.0000
  H   H1635     1.0  0.57075  0.11116  0.78000  1.0000
  C   C1032     1.0  0.57484  0.04803  0.32146  1.0000
  C   C1033     1.0  0.58911  0.11566  0.82085  1.0000
  C   C1034     1.0  0.57238  0.05229  0.81486  1.0000
  C   C1035     1.0  0.64586  0.13765  0.63646  1.0000
  C   C1036     1.0  0.53129  0.02778  0.30110  1.0000
  H   H1636     1.0  0.59298  0.12205  0.82763  1.0000
  H   H1637     1.0  0.59525  0.04065  0.36582  1.0000
  H   H1638     1.0  0.54620  0.03898  0.34439  1.0000
  H   H1639     1.0  0.64930  0.14552  0.61728  1.0000
  H   H1640     1.0  0.57728  0.12751  0.83883  1.0000
  H   H1641     1.0  0.64272  0.12175  0.70140  1.0000
  N   N102      1.0  0.64164  0.13679  0.68004  1.0000
  H   H1642     1.0  0.59190  0.12488  0.74154  1.0000
  H   H1643     1.0  0.50549  0.10346  0.88322  1.0000
  N   N103      1.0  0.58146  0.11821  0.80233  1.0000
  C   C1037     1.0  0.51743  0.07233  0.00323  1.0000
  H   H1644     1.0  0.59964  0.03698  0.64683  1.0000
  C   C1038     1.0  0.63720  0.12626  0.70462  1.0000
  H   H1645     1.0  0.58210  0.10726  0.77143  1.0000
  C   C1039     1.0  0.63397  0.14240  0.68420  1.0000
  H   H1646     1.0  0.63062  0.14201  0.71655  1.0000
  H   H1647     1.0  0.55006  0.02618  0.28962  1.0000
  H   H1648     1.0  0.65048  0.15304  0.89329  1.0000
  C   C1040     1.0  0.64953  0.14091  0.69476  1.0000
  H   H1649     1.0  0.61707  0.25368  0.87247  1.0000
  C   C1041     1.0  0.58951  0.04275  0.35376  1.0000
  H   H1650     1.0  0.72501  0.23081  0.84110  1.0000
  C   C1042     1.0  0.56577  0.01301  0.58332  1.0000
  H   H1651     1.0  0.71656  0.25352  0.93675  1.0000
  C   C1043     1.0  0.57379  0.03803  0.34239  1.0000
  H   H1652     1.0  0.53091  0.02872  0.26958  1.0000
  H   H1653     1.0  0.57028  0.11478  0.86050  1.0000
  C   C1044     1.0  0.60097  0.05529  0.22671  1.0000
  C   C1045     1.0  0.53884  0.04519  0.28281  1.0000
  C   C1046     1.0  0.53982  0.03367  0.34344  1.0000
  H   H1654     1.0  0.50762  0.06126  0.12194  1.0000
  H   H1655     1.0  0.71836  0.23997  0.84841  1.0000
  C   C1047     1.0  0.73158  0.24679  0.77339  1.0000
  C   C1048     1.0  0.58109  0.03542  0.35911  1.0000
  H   H1656     1.0  0.53301  0.01725  0.54576  1.0000
  H   H1657     1.0  0.50704  0.11053  0.91680  1.0000
  H   H1658     1.0  0.59662  0.05176  0.21035  1.0000
  C   C1049     1.0  0.64035  0.25177  0.75894  1.0000
  H   H1659     1.0  0.51682  0.01490  0.59672  1.0000
  C   C1050     1.0  0.72352  0.23144  0.76699  1.0000
  H   H1660     1.0  0.71333  0.24948  0.79184  1.0000
  H   H1661     1.0  0.64233  0.24006  0.05596  1.0000
  H   H1662     1.0  0.61221  0.04982  0.16761  1.0000
  H   H1663     1.0  0.60685  0.06537  0.14614  1.0000
  H   H1664     1.0  0.66384  0.17339  0.92090  1.0000
  N   N104      1.0  0.65418  0.16843  0.88960  1.0000
  H   H1665     1.0  0.59700  0.06051  0.23788  1.0000
  H   H1666     1.0  0.65932  0.17283  0.82412  1.0000
  Fe  Fe215     1.0  0.55652  0.01394  0.39193  1.0000
  C   C1051     1.0  0.65837  0.16665  0.92367  1.0000
  H   H1667     1.0  0.66577  0.24288  0.97566  1.0000
  H   H1668     1.0  0.59006  0.02687  0.71833  1.0000
  H   H1669     1.0  0.73074  0.25261  0.78854  1.0000
  H   H1670     1.0  0.52037  0.09752  0.88810  1.0000
  H   H1671     1.0  0.63497  0.23128  0.04107  1.0000
  S   S428      1.0  0.54362  0.01075  0.82959  1.0000
  H   H1672     1.0  0.71227  0.22857  0.84375  1.0000
  C   C1052     1.0  0.71934  0.23439  0.83213  1.0000
  C   C1053     1.0  0.50974  0.06373  0.02157  1.0000
  C   C1054     1.0  0.51040  0.06435  0.08888  1.0000
  H   H1673     1.0  0.51054  0.01851  0.73105  1.0000
  H   H1674     1.0  0.63404  0.25673  0.82724  1.0000
  H   H1675     1.0  0.50640  0.03546  0.75137  1.0000
  H   H1676     1.0  0.68063  0.25461  0.14161  1.0000
  C   C1055     1.0  0.53091  0.00893  0.62584  1.0000
  H   H1677     1.0  0.50771  0.08915  0.00045  1.0000
  C   C1056     1.0  0.53217  0.00912  0.55675  1.0000
  H   H1678     1.0  0.50914  0.01388  0.84617  1.0000
  H   H1679     1.0  0.53836  0.00747  0.62244  1.0000
  Fe  Fe216     1.0  0.55951  0.01016  0.72401  1.0000
  H   H1680     1.0  0.63489  0.24547  0.78439  1.0000
  H   H1681     1.0  0.62273  0.25497  0.78629  1.0000
  H   H1682     1.0  0.50853  0.10221  0.98499  1.0000
  S   S429      1.0  0.50438  0.05775  0.99183  1.0000
  H   H1683     1.0  0.50443  0.08554  0.90492  1.0000
  Fe  Fe217     1.0  0.52638  0.41239  0.23425  1.0000
  S   S430      1.0  0.53773  0.42600  0.19010  1.0000
  S   S431      1.0  0.53076  0.39832  0.26071  1.0000
  Fe  Fe218     1.0  0.50934  0.42235  0.23123  1.0000
  S   S432      1.0  0.51955  0.43654  0.18685  1.0000
  H   H1684     1.0  0.58367  0.35657  0.57312  1.0000
  Fe  Fe219     1.0  0.52698  0.42706  0.15471  1.0000
  H   H1685     1.0  0.62147  0.27431  0.94790  1.0000
  Fe  Fe220     1.0  0.52904  0.43402  0.22664  1.0000
  S   S433      1.0  0.53525  0.44668  0.24546  1.0000
  S   S434      1.0  0.51607  0.41288  0.19610  1.0000
  S   S435      1.0  0.51842  0.42040  0.27365  1.0000
  Fe  Fe221     1.0  0.57822  0.38541  0.30567  1.0000
  S   S436      1.0  0.58491  0.38665  0.35486  1.0000
  S   S437      1.0  0.57365  0.39912  0.27665  1.0000
  Fe  Fe222     1.0  0.58171  0.36476  0.31166  1.0000
  S   S438      1.0  0.58813  0.36411  0.36288  1.0000
  S   S439      1.0  0.58194  0.35384  0.27626  1.0000
  Fe  Fe223     1.0  0.57608  0.37103  0.38820  1.0000
  S   S440      1.0  0.56688  0.36740  0.45440  1.0000
  Fe  Fe224     1.0  0.59631  0.37972  0.32550  1.0000
  S   S441      1.0  0.61269  0.38477  0.31080  1.0000
  S   S442      1.0  0.56866  0.37007  0.34056  1.0000
  S   S443      1.0  0.59065  0.38009  0.27278  1.0000
  Fe  Fe225     1.0  0.63546  0.40520  0.43649  1.0000
  S   S444      1.0  0.64469  0.41264  0.37069  1.0000
  S   S445      1.0  0.62523  0.38994  0.46127  1.0000
  Fe  Fe226     1.0  0.64123  0.42335  0.46065  1.0000
  S   S446      1.0  0.65094  0.43235  0.39685  1.0000
  S   S447      1.0  0.63735  0.42983  0.51208  1.0000
  Fe  Fe227     1.0  0.63872  0.42571  0.37690  1.0000
  S   S448      1.0  0.63454  0.43398  0.32357  1.0000
  Fe  Fe228     1.0  0.65609  0.41852  0.39612  1.0000
  S   S449      1.0  0.67213  0.41996  0.36436  1.0000
  S   S450      1.0  0.62852  0.41783  0.44059  1.0000
  S   S451      1.0  0.64736  0.41001  0.46205  1.0000
  Fe  Fe229     1.0  0.58130  0.45226  0.28149  1.0000
  S   S452      1.0  0.58068  0.46003  0.32834  1.0000
  S   S453      1.0  0.57120  0.43723  0.29865  1.0000
  Fe  Fe230     1.0  0.59667  0.46963  0.21332  1.0000
  S   S454      1.0  0.59761  0.47859  0.25583  1.0000
  S   S455      1.0  0.60346  0.47761  0.14544  1.0000
  Fe  Fe231     1.0  0.59722  0.46420  0.30081  1.0000
  S   S456      1.0  0.60575  0.46209  0.34572  1.0000
  Fe  Fe232     1.0  0.58111  0.47352  0.27889  1.0000
  S   S457      1.0  0.57046  0.48330  0.27944  1.0000
  S   S458      1.0  0.59779  0.45563  0.25615  1.0000
  S   S459      1.0  0.58024  0.46527  0.23416  1.0000
  Fe  Fe233     1.0  0.51689  0.41924  0.91719  1.0000
  S   S460      1.0  0.51679  0.41131  0.87032  1.0000
  H   H1686     1.0  0.63638  0.27708  0.25749  1.0000
  Fe  Fe234     1.0  0.53161  0.43765  0.85479  1.0000
  S   S461      1.0  0.53290  0.43145  0.80315  1.0000
  S   S462      1.0  0.54087  0.45244  0.84703  1.0000
  Fe  Fe235     1.0  0.51638  0.42613  0.83013  1.0000
  H   H1687     1.0  0.50773  0.45375  0.32208  1.0000
  Fe  Fe236     1.0  0.53329  0.41737  0.84724  1.0000
  S   S463      1.0  0.54608  0.41017  0.83450  1.0000
  S   S464      1.0  0.51512  0.43347  0.87897  1.0000
  S   S465      1.0  0.53328  0.42413  0.89716  1.0000
  Fe  Fe237     1.0  0.58033  0.37773  0.64109  1.0000
  S   S466      1.0  0.56731  0.36552  0.68492  1.0000
  S   S467      1.0  0.58791  0.38108  0.57344  1.0000
  Fe  Fe238     1.0  0.58414  0.38537  0.70831  1.0000
  S   S468      1.0  0.57174  0.37380  0.75788  1.0000
  S   S469      1.0  0.59236  0.39768  0.72302  1.0000
  Fe  Fe239     1.0  0.57685  0.36327  0.72561  1.0000
  S   S470      1.0  0.57582  0.34765  0.76325  1.0000
  Fe  Fe240     1.0  0.56329  0.37708  0.71384  1.0000
  S   S471      1.0  0.54789  0.37887  0.73778  1.0000
  S   S472      1.0  0.59022  0.37464  0.67964  1.0000
  S   S473      1.0  0.57542  0.38947  0.66619  1.0000
  Fe  Fe241     1.0  0.64909  0.42001  0.70788  1.0000
  S   S474      1.0  0.64755  0.43104  0.74214  1.0000
  S   S475      1.0  0.65953  0.42294  0.64465  1.0000
  Fe  Fe242     1.0  0.63414  0.40313  0.77827  1.0000
  S   S476      1.0  0.63133  0.41255  0.81894  1.0000
  S   S477      1.0  0.62575  0.38733  0.79496  1.0000
  Fe  Fe243     1.0  0.63129  0.42401  0.76287  1.0000
  S   S478      1.0  0.61848  0.43113  0.76958  1.0000
  Fe  Fe244     1.0  0.64770  0.41867  0.79523  1.0000
  S   S479      1.0  0.65593  0.42242  0.83692  1.0000
  S   S480      1.0  0.63287  0.41410  0.72360  1.0000
  S   S481      1.0  0.65057  0.40818  0.75942  1.0000
  Fe  Fe245     1.0  0.59369  0.45881  0.96932  1.0000
  S   S482      1.0  0.60157  0.47395  0.92461  1.0000
  S   S483      1.0  0.59464  0.45210  0.03253  1.0000
  Fe  Fe246     1.0  0.58521  0.45243  0.90782  1.0000
  S   S484      1.0  0.59214  0.46703  0.85862  1.0000
  S   S485      1.0  0.57726  0.44030  0.89091  1.0000
  Fe  Fe247     1.0  0.60548  0.46599  0.87844  1.0000
  S   S486      1.0  0.62028  0.46845  0.83194  1.0000
  Fe  Fe248     1.0  0.58737  0.47353  0.90902  1.0000
  H   H1688     1.0  0.61508  0.26151  0.97352  1.0000
  S   S487      1.0  0.59883  0.45092  0.92428  1.0000
  S   S488      1.0  0.57921  0.45887  0.95726  1.0000
  S   S489      1.0  0.74038  0.28009  0.94945  1.0000
  Fe  Fe249     1.0  0.69352  0.37976  0.30328  1.0000
  S   S490      1.0  0.70056  0.36709  0.30229  1.0000
  S   S491      1.0  0.68376  0.37966  0.36377  1.0000
  Fe  Fe250     1.0  0.70204  0.38925  0.21183  1.0000
  S   S492      1.0  0.71021  0.37764  0.20376  1.0000
  S   S493      1.0  0.70273  0.40132  0.15591  1.0000
  Fe  Fe251     1.0  0.69602  0.36701  0.24679  1.0000
  S   S494      1.0  0.68991  0.35305  0.23418  1.0000
  Fe  Fe252     1.0  0.71406  0.37889  0.25971  1.0000
  S   S495      1.0  0.72859  0.37680  0.26894  1.0000
  S   S496      1.0  0.68766  0.37857  0.25207  1.0000
  S   S497      1.0  0.70723  0.39164  0.26366  1.0000
  Fe  Fe253     1.0  0.62645  0.33021  0.14494  1.0000
  S   S498      1.0  0.61891  0.31534  0.19189  1.0000
  S   S499      1.0  0.62267  0.33708  0.08867  1.0000
  Fe  Fe254     1.0  0.64083  0.33561  0.19010  1.0000
  S   S500      1.0  0.63467  0.32098  0.24035  1.0000
  S   S501      1.0  0.65041  0.35000  0.18712  1.0000
  Fe  Fe255     1.0  0.63432  0.31426  0.18972  1.0000
  C   C1057     1.0  0.58259  0.35393  0.60661  1.0000
  Fe  Fe256     1.0  0.61985  0.32337  0.23759  1.0000
  S   S502      1.0  0.60751  0.32231  0.29342  1.0000
  S   S503      1.0  0.64180  0.32881  0.13973  1.0000
  S   S504      1.0  0.62602  0.33825  0.19062  1.0000
  H   H1689     1.0  0.53642  0.47084  0.80074  1.0000
  Fe  Fe257     1.0  0.61446  0.31269  0.93457  1.0000
  S   S505      1.0  0.62852  0.30811  0.91621  1.0000
  S   S506      1.0  0.60722  0.30734  0.00299  1.0000
  Fe  Fe258     1.0  0.61611  0.32315  0.84607  1.0000
  S   S507      1.0  0.63015  0.31868  0.82233  1.0000
  S   S508      1.0  0.61391  0.33565  0.79753  1.0000
  Fe  Fe259     1.0  0.62264  0.30363  0.86922  1.0000
  S   S509      1.0  0.62510  0.28839  0.86807  1.0000
  Fe  Fe260     1.0  0.63455  0.32343  0.87163  1.0000
  S   S510      1.0  0.64973  0.33348  0.85544  1.0000
  S   S511      1.0  0.60816  0.30763  0.88966  1.0000
  S   S512      1.0  0.62094  0.32840  0.89369  1.0000
  Fe  Fe261     1.0  0.67550  0.36726  0.96261  1.0000
  S   S513      1.0  0.68987  0.37311  0.91101  1.0000
  S   S514      1.0  0.66187  0.35494  0.97596  1.0000
  Fe  Fe262     1.0  0.68135  0.38266  0.00361  1.0000
  S   S515      1.0  0.69596  0.38996  0.95470  1.0000
  S   S516      1.0  0.67508  0.38654  0.06090  1.0000
  Fe  Fe263     1.0  0.68748  0.38813  0.91121  1.0000
  S   S517      1.0  0.68933  0.39998  0.85246  1.0000
  Fe  Fe264     1.0  0.69717  0.37442  0.95894  1.0000
  S   S518      1.0  0.71085  0.36892  0.96354  1.0000
  S   S519      1.0  0.67274  0.38224  0.95988  1.0000
  S   S520      1.0  0.68291  0.36715  0.01078  1.0000
  H   H1690     1.0  0.61428  0.28744  0.96598  1.0000
  C   C1058     1.0  0.60850  0.26180  0.84211  1.0000
  H   H1691     1.0  0.57035  0.49748  0.65639  1.0000
  H   H1692     1.0  0.74108  0.30623  0.27370  1.0000
  H   H1693     1.0  0.71564  0.38883  0.97023  1.0000
  C   C1059     1.0  0.65285  0.34006  0.88762  1.0000
  C   C1060     1.0  0.64577  0.34021  0.92245  1.0000
  C   C1061     1.0  0.64859  0.34527  0.94806  1.0000
  C   C1062     1.0  0.65851  0.35010  0.93939  1.0000
  C   C1063     1.0  0.66554  0.35022  0.90389  1.0000
  C   C1064     1.0  0.66270  0.34522  0.87807  1.0000
  H   H1694     1.0  0.63814  0.33634  0.92993  1.0000
  H   H1695     1.0  0.64309  0.34535  0.97505  1.0000
  H   H1696     1.0  0.67320  0.35390  0.89695  1.0000
  H   H1697     1.0  0.66821  0.34518  0.85102  1.0000
  H   H1698     1.0  0.53875  0.36609  0.82816  1.0000
  C   C1065     1.0  0.60634  0.27109  0.83054  1.0000
  C   C1066     1.0  0.61119  0.27929  0.83880  1.0000
  C   C1067     1.0  0.61839  0.27832  0.85813  1.0000
  H   H1699     1.0  0.74545  0.31897  0.30514  1.0000
  H   H1700     1.0  0.53515  0.33874  0.85473  1.0000
  H   H1701     1.0  0.60094  0.27196  0.81475  1.0000
  H   H1702     1.0  0.60949  0.28639  0.82947  1.0000
  C   C1068     1.0  0.51193  0.45646  0.24106  1.0000
  H   H1703     1.0  0.57633  0.34720  0.62078  1.0000
  C   C1069     1.0  0.61822  0.32875  0.06551  1.0000
  C   C1070     1.0  0.61542  0.31853  0.08562  1.0000
  C   C1071     1.0  0.61187  0.31200  0.06658  1.0000
  C   C1072     1.0  0.61142  0.31564  0.02683  1.0000
  C   C1073     1.0  0.61436  0.32585  0.00656  1.0000
  C   C1074     1.0  0.61764  0.33240  0.02604  1.0000
  H   H1704     1.0  0.61599  0.31564  0.11575  1.0000
  H   H1705     1.0  0.60964  0.30410  0.08231  1.0000
  H   H1706     1.0  0.61386  0.32873  0.97625  1.0000
  H   H1707     1.0  0.61983  0.34029  0.01027  1.0000
  C   C1075     1.0  0.62330  0.28696  0.21338  1.0000
  H   H1708     1.0  0.62059  0.29186  0.22952  1.0000
  C   C1076     1.0  0.69516  0.39717  0.12914  1.0000
  C   C1077     1.0  0.68556  0.39131  0.15037  1.0000
  C   C1078     1.0  0.67946  0.38823  0.12894  1.0000
  C   C1079     1.0  0.68298  0.39075  0.08623  1.0000
  C   C1080     1.0  0.69260  0.39656  0.06484  1.0000
  C   C1081     1.0  0.69864  0.39987  0.08627  1.0000
  H   H1709     1.0  0.68273  0.38927  0.18326  1.0000
  H   H1710     1.0  0.67201  0.38378  0.14556  1.0000
  H   H1711     1.0  0.69532  0.39862  0.03178  1.0000
  H   H1712     1.0  0.70604  0.40446  0.06964  1.0000
  C   C1082     1.0  0.67895  0.35221  0.22085  1.0000
  C   C1083     1.0  0.67385  0.34306  0.22073  1.0000
  C   C1084     1.0  0.66507  0.34223  0.21042  1.0000
  C   C1085     1.0  0.66143  0.35059  0.19973  1.0000
  C   C1086     1.0  0.66665  0.35976  0.19895  1.0000
  C   C1087     1.0  0.67536  0.36057  0.20953  1.0000
  H   H1713     1.0  0.67663  0.33657  0.22918  1.0000
  H   H1714     1.0  0.66112  0.33513  0.21094  1.0000
  H   H1715     1.0  0.66392  0.36627  0.19036  1.0000
  H   H1716     1.0  0.67929  0.36768  0.20864  1.0000
  H   H1717     1.0  0.69380  0.26698  0.07692  1.0000
  H   H1718     1.0  0.53907  0.46411  0.46118  1.0000
  C   C1088     1.0  0.73533  0.39349  0.28876  1.0000
  C   C1089     1.0  0.73629  0.38410  0.28707  1.0000
  C   C1090     1.0  0.51430  0.41293  0.05475  1.0000
  C   C1091     1.0  0.63563  0.46513  0.43154  1.0000
  H   H1719     1.0  0.61974  0.34943  0.84484  1.0000
  H   H1720     1.0  0.72950  0.39637  0.28001  1.0000
  H   H1721     1.0  0.62922  0.46655  0.42119  1.0000
  C   C1092     1.0  0.58160  0.40933  0.80837  1.0000
  H   H1722     1.0  0.73047  0.27853  0.82784  1.0000
  Fe  Fe265     1.0  0.68786  0.25897  0.20572  1.0000
  C   C1093     1.0  0.50765  0.46988  0.26487  1.0000
  N   N105      1.0  0.60728  0.49868  0.80445  1.0000
  H   H1723     1.0  0.65516  0.28909  0.18931  1.0000
  H   H1724     1.0  0.66213  0.27985  0.19485  1.0000
  C   C1094     1.0  0.74386  0.28706  0.26273  1.0000
  H   H1725     1.0  0.62496  0.34504  0.32650  1.0000
  S   S521      1.0  0.53206  0.43250  0.08553  1.0000
  H   H1726     1.0  0.58789  0.40728  0.81810  1.0000
  H   H1727     1.0  0.55767  0.49600  0.28997  1.0000
  H   H1728     1.0  0.72958  0.29712  0.29696  1.0000
  C   C1095     1.0  0.64168  0.32569  0.03457  1.0000
  H   H1729     1.0  0.69052  0.43361  0.66218  1.0000
  C   C1096     1.0  0.67599  0.41064  0.71924  1.0000
  H   H1730     1.0  0.65838  0.26724  0.26238  1.0000
  H   H1731     1.0  0.70206  0.28435  0.03105  1.0000
  C   C1097     1.0  0.65121  0.26918  0.27270  1.0000
  H   H1732     1.0  0.55347  0.34258  0.83717  1.0000
  H   H1733     1.0  0.53443  0.34546  0.89092  1.0000
  C   C1098     1.0  0.61932  0.44188  0.78431  1.0000
  C   C1099     1.0  0.61059  0.44392  0.80431  1.0000
  C   C1100     1.0  0.61091  0.45212  0.81840  1.0000
  C   C1101     1.0  0.61996  0.45851  0.81186  1.0000
  C   C1102     1.0  0.62872  0.45668  0.79056  1.0000
  C   C1103     1.0  0.62841  0.44830  0.77718  1.0000
  H   H1734     1.0  0.60355  0.43904  0.80968  1.0000
  H   H1735     1.0  0.60409  0.45349  0.83434  1.0000
  H   H1736     1.0  0.63573  0.46166  0.78502  1.0000
  H   H1737     1.0  0.63517  0.44685  0.76112  1.0000
  C   C1104     1.0  0.66450  0.41545  0.84550  1.0000
  C   C1105     1.0  0.66403  0.40636  0.83793  1.0000
  C   C1106     1.0  0.67139  0.40129  0.84227  1.0000
  C   C1107     1.0  0.67921  0.40529  0.85422  1.0000
  C   C1108     1.0  0.67956  0.41429  0.86243  1.0000
  C   C1109     1.0  0.67219  0.41930  0.85842  1.0000
  H   H1738     1.0  0.65802  0.40323  0.82881  1.0000
  H   H1739     1.0  0.67113  0.39437  0.83561  1.0000
  H   H1740     1.0  0.68566  0.41747  0.87113  1.0000
  H   H1741     1.0  0.67260  0.42632  0.86432  1.0000
  C   C1110     1.0  0.58636  0.34451  0.77423  1.0000
  C   C1111     1.0  0.59572  0.35101  0.75482  1.0000
  C   C1112     1.0  0.60403  0.34816  0.76264  1.0000
  C   C1113     1.0  0.60307  0.33888  0.79047  1.0000
  C   C1114     1.0  0.59369  0.33243  0.81044  1.0000
  C   C1115     1.0  0.58538  0.33522  0.80206  1.0000
  H   H1742     1.0  0.59658  0.35819  0.73353  1.0000
  H   H1743     1.0  0.61126  0.35318  0.74697  1.0000
  H   H1744     1.0  0.59287  0.32524  0.83172  1.0000
  H   H1745     1.0  0.57817  0.33013  0.81713  1.0000
  C   C1116     1.0  0.60047  0.39378  0.74869  1.0000
  C   C1117     1.0  0.60510  0.40022  0.76515  1.0000
  C   C1118     1.0  0.61222  0.39768  0.78283  1.0000
  C   C1119     1.0  0.61505  0.38889  0.78274  1.0000
  C   C1120     1.0  0.61010  0.38217  0.76810  1.0000
  C   C1121     1.0  0.60271  0.38460  0.75127  1.0000
  H   H1746     1.0  0.60341  0.40731  0.76318  1.0000
  H   H1747     1.0  0.61582  0.40278  0.79509  1.0000
  H   H1748     1.0  0.61223  0.37533  0.76816  1.0000
  H   H1749     1.0  0.59903  0.37952  0.73918  1.0000
  S   S522      1.0  0.64057  0.30176  0.17459  1.0000
  C   C1122     1.0  0.54631  0.40166  0.80673  1.0000
  C   C1123     1.0  0.53799  0.39751  0.79815  1.0000
  C   C1124     1.0  0.53849  0.39053  0.77686  1.0000
  C   C1125     1.0  0.54735  0.38782  0.76344  1.0000
  C   C1126     1.0  0.55568  0.39209  0.77164  1.0000
  C   C1127     1.0  0.55512  0.39887  0.79361  1.0000
  H   H1750     1.0  0.53115  0.39961  0.80821  1.0000
  H   H1751     1.0  0.53202  0.38728  0.77056  1.0000
  H   H1752     1.0  0.56258  0.39017  0.76113  1.0000
  H   H1753     1.0  0.56155  0.40198  0.80031  1.0000
  C   C1128     1.0  0.55199  0.45014  0.85264  1.0000
  C   C1129     1.0  0.55760  0.45602  0.86836  1.0000
  C   C1130     1.0  0.56570  0.45325  0.87837  1.0000
  C   C1131     1.0  0.56819  0.44464  0.87249  1.0000
  C   C1132     1.0  0.56288  0.43907  0.85480  1.0000
  C   C1133     1.0  0.55480  0.44183  0.84479  1.0000
  H   H1754     1.0  0.55543  0.46244  0.87452  1.0000
  H   H1755     1.0  0.56974  0.45758  0.89218  1.0000
  H   H1756     1.0  0.56481  0.43247  0.84980  1.0000
  H   H1757     1.0  0.55064  0.43742  0.83160  1.0000
  H   H1758     1.0  0.62947  0.35566  0.23461  1.0000
  H   H1759     1.0  0.74300  0.26565  0.13724  1.0000
  C   C1134     1.0  0.60114  0.47058  0.11375  1.0000
  C   C1135     1.0  0.59933  0.46026  0.12770  1.0000
  C   C1136     1.0  0.59767  0.45475  0.10188  1.0000
  C   C1137     1.0  0.59749  0.45946  0.06245  1.0000
  C   C1138     1.0  0.59923  0.46978  0.04854  1.0000
  C   C1139     1.0  0.60117  0.47534  0.07400  1.0000
  H   H1760     1.0  0.59942  0.45655  0.15809  1.0000
  H   H1761     1.0  0.59650  0.44679  0.11258  1.0000
  H   H1762     1.0  0.56914  0.39632  0.39423  1.0000
  C   C1140     1.0  0.53544  0.34622  0.85814  1.0000
  C   C1141     1.0  0.64369  0.42789  0.54820  1.0000
  C   C1142     1.0  0.64005  0.42987  0.58496  1.0000
  C   C1143     1.0  0.64485  0.42829  0.61466  1.0000
  C   C1144     1.0  0.65342  0.42485  0.60755  1.0000
  C   C1145     1.0  0.65713  0.42296  0.57056  1.0000
  C   C1146     1.0  0.65222  0.42437  0.54108  1.0000
  H   H1763     1.0  0.63348  0.43262  0.59065  1.0000
  H   H1764     1.0  0.64202  0.42992  0.64277  1.0000
  H   H1765     1.0  0.66376  0.42031  0.56483  1.0000
  H   H1766     1.0  0.65511  0.42286  0.51271  1.0000
  C   C1147     1.0  0.62635  0.44156  0.33063  1.0000
  C   C1148     1.0  0.62119  0.44152  0.36974  1.0000
  C   C1149     1.0  0.61478  0.44777  0.37422  1.0000
  C   C1150     1.0  0.61337  0.45392  0.33972  1.0000
  C   C1151     1.0  0.61832  0.45373  0.30077  1.0000
  C   C1152     1.0  0.62482  0.44759  0.29625  1.0000
  H   H1767     1.0  0.62211  0.43664  0.39638  1.0000
  H   H1768     1.0  0.61077  0.44778  0.40439  1.0000
  H   H1769     1.0  0.61734  0.45851  0.27399  1.0000
  H   H1770     1.0  0.62874  0.44759  0.26593  1.0000
  C   C1153     1.0  0.67533  0.40870  0.36565  1.0000
  C   C1154     1.0  0.68496  0.40882  0.34401  1.0000
  C   C1155     1.0  0.68756  0.39993  0.34277  1.0000
  C   C1156     1.0  0.68059  0.39087  0.36408  1.0000
  C   C1157     1.0  0.67103  0.39074  0.38643  1.0000
  C   C1158     1.0  0.66836  0.39965  0.38676  1.0000
  H   H1771     1.0  0.69039  0.41582  0.32816  1.0000
  H   H1772     1.0  0.69499  0.40008  0.32598  1.0000
  H   H1773     1.0  0.66564  0.38374  0.40312  1.0000
  H   H1774     1.0  0.66091  0.39950  0.40354  1.0000
  C   C1159     1.0  0.57265  0.37143  0.48729  1.0000
  C   C1160     1.0  0.56744  0.36879  0.52923  1.0000
  C   C1161     1.0  0.57194  0.37185  0.55604  1.0000
  C   C1162     1.0  0.58167  0.37760  0.54091  1.0000
  C   C1163     1.0  0.58680  0.38039  0.49892  1.0000
  C   C1164     1.0  0.58234  0.37728  0.47220  1.0000
  H   H1775     1.0  0.55992  0.36431  0.54105  1.0000
  H   H1776     1.0  0.56788  0.36974  0.58832  1.0000
  H   H1777     1.0  0.59427  0.38498  0.48704  1.0000
  H   H1778     1.0  0.58641  0.37939  0.44000  1.0000
  C   C1165     1.0  0.58971  0.34575  0.28133  1.0000
  C   C1166     1.0  0.59523  0.34403  0.24632  1.0000
  C   C1167     1.0  0.60101  0.33713  0.24972  1.0000
  C   C1168     1.0  0.60094  0.33157  0.28828  1.0000
  C   C1169     1.0  0.59545  0.33332  0.32331  1.0000
  C   C1170     1.0  0.58999  0.34052  0.31981  1.0000
  H   H1779     1.0  0.59501  0.34805  0.21653  1.0000
  H   H1780     1.0  0.60521  0.33585  0.22263  1.0000
  H   H1781     1.0  0.59535  0.32903  0.35327  1.0000
  H   H1782     1.0  0.58563  0.34171  0.34701  1.0000
  C   C1171     1.0  0.61639  0.38453  0.35394  1.0000
  C   C1172     1.0  0.62619  0.38897  0.34831  1.0000
  C   C1173     1.0  0.62903  0.39009  0.38179  1.0000
  C   C1174     1.0  0.62210  0.38682  0.42095  1.0000
  C   C1175     1.0  0.61249  0.38166  0.42707  1.0000
  C   C1176     1.0  0.60960  0.38056  0.39349  1.0000
  H   H1783     1.0  0.63152  0.39185  0.31788  1.0000
  H   H1784     1.0  0.63660  0.39348  0.37732  1.0000
  H   H1785     1.0  0.60720  0.37883  0.45754  1.0000
  H   H1786     1.0  0.60205  0.37694  0.39808  1.0000
  C   C1177     1.0  0.52521  0.42700  0.05938  1.0000
  H   H1787     1.0  0.59881  0.42304  0.76668  1.0000
  H   H1788     1.0  0.57723  0.42124  0.85387  1.0000
  C   C1178     1.0  0.51545  0.41812  0.01399  1.0000
  C   C1179     1.0  0.52139  0.42780  0.99620  1.0000
  C   C1180     1.0  0.52621  0.43223  0.01891  1.0000
  N   N106      1.0  0.68105  0.42098  0.71249  1.0000
  H   H1789     1.0  0.58029  0.35980  0.61905  1.0000
  H   H1790     1.0  0.52226  0.43189  0.96490  1.0000
  H   H1791     1.0  0.53082  0.43971  0.00483  1.0000
  C   C1181     1.0  0.54275  0.39864  0.26446  1.0000
  C   C1182     1.0  0.54961  0.40760  0.25536  1.0000
  C   C1183     1.0  0.55908  0.40762  0.25875  1.0000
  C   C1184     1.0  0.56178  0.39869  0.27138  1.0000
  C   C1185     1.0  0.55492  0.38972  0.28064  1.0000
  C   C1186     1.0  0.54544  0.38971  0.27731  1.0000
  H   H1792     1.0  0.54754  0.41448  0.24613  1.0000
  H   H1793     1.0  0.56431  0.41457  0.25204  1.0000
  H   H1794     1.0  0.55692  0.38280  0.29013  1.0000
  H   H1795     1.0  0.54019  0.38274  0.28436  1.0000
  C   C1187     1.0  0.54384  0.44333  0.26932  1.0000
  C   C1188     1.0  0.54991  0.45051  0.27801  1.0000
  C   C1189     1.0  0.55789  0.44833  0.29063  1.0000
  C   C1190     1.0  0.55988  0.43904  0.29394  1.0000
  C   C1191     1.0  0.55334  0.43162  0.28855  1.0000
  C   C1192     1.0  0.54532  0.43378  0.27605  1.0000
  H   H1796     1.0  0.54873  0.45788  0.27318  1.0000
  H   H1797     1.0  0.56268  0.45395  0.29654  1.0000
  H   H1798     1.0  0.55477  0.42438  0.29185  1.0000
  H   H1799     1.0  0.54052  0.42815  0.27013  1.0000
  N   N107      1.0  0.54571  0.47020  0.39569  1.0000
  C   C1193     1.0  0.54393  0.47697  0.36088  1.0000
  S   S523      1.0  0.75014  0.30194  0.97828  1.0000
  H   H1800     1.0  0.53644  0.47433  0.35918  1.0000
  H   H1801     1.0  0.54942  0.47770  0.33122  1.0000
  H   H1802     1.0  0.64938  0.27639  0.19854  1.0000
  H   H1803     1.0  0.69229  0.42184  0.65783  1.0000
  H   H1804     1.0  0.59377  0.31278  0.13739  1.0000
  N   N108      1.0  0.55501  0.49731  0.66723  1.0000
  N   N109      1.0  0.68117  0.41200  0.22857  1.0000
  C   C1194     1.0  0.68033  0.41394  0.18694  1.0000
  C   C1195     1.0  0.69114  0.41716  0.22583  1.0000
  C   C1196     1.0  0.67366  0.41563  0.25377  1.0000
  H   H1805     1.0  0.67231  0.39702  0.24889  1.0000
  H   H1806     1.0  0.68595  0.41131  0.16719  1.0000
  H   H1807     1.0  0.67295  0.41006  0.18767  1.0000
  H   H1808     1.0  0.68147  0.42199  0.17153  1.0000
  H   H1809     1.0  0.69257  0.42531  0.21199  1.0000
  H   H1810     1.0  0.69697  0.41463  0.20667  1.0000
  H   H1811     1.0  0.69209  0.41572  0.25659  1.0000
  H   H1812     1.0  0.66604  0.41181  0.25689  1.0000
  H   H1813     1.0  0.74380  0.37382  0.97966  1.0000
  H   H1814     1.0  0.69537  0.28274  0.99625  1.0000
  N   N110      1.0  0.71104  0.37680  0.39626  1.0000
  C   C1197     1.0  0.71156  0.38422  0.35800  1.0000
  C   C1198     1.0  0.70733  0.38038  0.43118  1.0000
  C   C1199     1.0  0.72099  0.37526  0.39381  1.0000
  C   C1200     1.0  0.70424  0.36735  0.40178  1.0000
  H   H1815     1.0  0.71665  0.39145  0.35262  1.0000
  H   H1816     1.0  0.70418  0.38559  0.35873  1.0000
  H   H1817     1.0  0.71426  0.38170  0.33115  1.0000
  H   H1818     1.0  0.70681  0.37496  0.46070  1.0000
  H   H1819     1.0  0.71228  0.38753  0.42785  1.0000
  H   H1820     1.0  0.69984  0.38163  0.43353  1.0000
  H   H1821     1.0  0.72096  0.36985  0.42248  1.0000
  H   H1822     1.0  0.72641  0.38231  0.38824  1.0000
  H   H1823     1.0  0.72387  0.37235  0.36816  1.0000
  H   H1824     1.0  0.70342  0.36162  0.43094  1.0000
  H   H1825     1.0  0.70695  0.36433  0.37639  1.0000
  H   H1826     1.0  0.69673  0.36833  0.40221  1.0000
  C   C1201     1.0  0.72725  0.26525  0.94122  1.0000
  C   C1202     1.0  0.61652  0.26893  0.97771  1.0000
  H   H1827     1.0  0.59605  0.41105  0.30846  1.0000
  H   H1828     1.0  0.53036  0.46573  0.23225  1.0000
  H   H1829     1.0  0.63079  0.44739  0.90110  1.0000
  C   C1203     1.0  0.54525  0.46037  0.38993  1.0000
  C   C1204     1.0  0.50457  0.48634  0.34391  1.0000
  H   H1830     1.0  0.63079  0.44043  0.44529  1.0000
  C   C1205     1.0  0.62937  0.44747  0.44991  1.0000
  H   H1831     1.0  0.59950  0.42254  0.34721  1.0000
  C   C1206     1.0  0.51620  0.50010  0.36597  1.0000
  S   S524      1.0  0.50954  0.41241  0.98558  1.0000
  H   H1832     1.0  0.60582  0.39406  0.57395  1.0000
  N   N111      1.0  0.55008  0.42019  0.97904  1.0000
  C   C1207     1.0  0.55455  0.41796  0.94119  1.0000
  C   C1208     1.0  0.54955  0.43065  0.96876  1.0000
  C   C1209     1.0  0.55619  0.41851  0.00629  1.0000
  C   C1210     1.0  0.54004  0.41365  0.00011  1.0000
  H   H1833     1.0  0.55034  0.41952  0.91922  1.0000
  H   H1834     1.0  0.55474  0.41004  0.94771  1.0000
  H   H1835     1.0  0.56224  0.42251  0.92529  1.0000
  H   H1836     1.0  0.54511  0.43232  0.94780  1.0000
  H   H1837     1.0  0.54618  0.43255  0.99672  1.0000
  H   H1838     1.0  0.55702  0.43578  0.95345  1.0000
  H   H1839     1.0  0.56382  0.42338  0.99116  1.0000
  H   H1840     1.0  0.55675  0.41069  0.01491  1.0000
  H   H1841     1.0  0.55301  0.42017  0.03509  1.0000
  H   H1842     1.0  0.53658  0.41492  0.02942  1.0000
  H   H1843     1.0  0.54010  0.40569  0.00742  1.0000
  H   H1844     1.0  0.53513  0.41496  0.98093  1.0000
  N   N112      1.0  0.59169  0.35195  0.61474  1.0000
  C   C1211     1.0  0.58990  0.34852  0.65947  1.0000
  C   C1212     1.0  0.59972  0.36114  0.59549  1.0000
  C   C1213     1.0  0.59454  0.34421  0.59727  1.0000
  H   H1845     1.0  0.58761  0.35412  0.67375  1.0000
  H   H1846     1.0  0.58390  0.34159  0.67513  1.0000
  H   H1847     1.0  0.59662  0.34704  0.66695  1.0000
  H   H1848     1.0  0.60679  0.35989  0.59989  1.0000
  H   H1849     1.0  0.59790  0.36705  0.60867  1.0000
  H   H1850     1.0  0.60100  0.36416  0.56193  1.0000
  H   H1851     1.0  0.60136  0.34249  0.60301  1.0000
  H   H1852     1.0  0.59598  0.34660  0.56351  1.0000
  H   H1853     1.0  0.58861  0.33719  0.61091  1.0000
  N   N113      1.0  0.56763  0.44264  0.15593  1.0000
  C   C1214     1.0  0.57404  0.44721  0.17585  1.0000
  C   C1215     1.0  0.57328  0.44426  0.11287  1.0000
  C   C1216     1.0  0.55919  0.44720  0.15715  1.0000
  C   C1217     1.0  0.56402  0.43189  0.17778  1.0000
  H   H1854     1.0  0.56991  0.44627  0.20819  1.0000
  H   H1855     1.0  0.57714  0.45529  0.15959  1.0000
  H   H1856     1.0  0.58036  0.44378  0.17643  1.0000
  H   H1857     1.0  0.57959  0.44073  0.11068  1.0000
  H   H1858     1.0  0.56863  0.44109  0.09666  1.0000
  H   H1859     1.0  0.57634  0.45229  0.09551  1.0000
  H   H1860     1.0  0.55428  0.44408  0.14175  1.0000
  H   H1861     1.0  0.56171  0.45535  0.14160  1.0000
  H   H1862     1.0  0.55462  0.44596  0.18917  1.0000
  H   H1863     1.0  0.55954  0.43039  0.21012  1.0000
  H   H1864     1.0  0.57023  0.42828  0.17827  1.0000
  H   H1865     1.0  0.55934  0.42812  0.16316  1.0000
  N   N114      1.0  0.60725  0.27186  0.99194  1.0000
  C   C1218     1.0  0.64543  0.26951  0.72642  1.0000
  C   C1219     1.0  0.56171  0.50362  0.32994  1.0000
  H   H1866     1.0  0.63312  0.26894  0.15788  1.0000
  N   N115      1.0  0.64526  0.31704  0.02809  1.0000
  C   C1220     1.0  0.63937  0.26270  0.80010  1.0000
  H   H1867     1.0  0.60195  0.49350  0.87023  1.0000
  H   H1868     1.0  0.64406  0.27682  0.72759  1.0000
  C   C1221     1.0  0.64212  0.28176  0.26494  1.0000
  H   H1869     1.0  0.50438  0.45171  0.25852  1.0000
  H   H1870     1.0  0.61359  0.28208  0.01836  1.0000
  C   C1222     1.0  0.73809  0.38664  0.98063  1.0000
  N   N116      1.0  0.74016  0.27490  0.08583  1.0000
  H   H1871     1.0  0.63246  0.30650  0.07399  1.0000
  H   H1872     1.0  0.54441  0.48451  0.36386  1.0000
  H   H1873     1.0  0.72905  0.36443  0.97013  1.0000
  H   H1874     1.0  0.70069  0.36781  0.15609  1.0000
  C   C1223     1.0  0.59281  0.31113  0.17069  1.0000
  C   C1224     1.0  0.67959  0.40124  0.24764  1.0000
  H   H1875     1.0  0.61044  0.27478  0.24677  1.0000
  C   C1225     1.0  0.62780  0.40347  0.58430  1.0000
  H   H1876     1.0  0.58100  0.40598  0.78397  1.0000
  H   H1877     1.0  0.67414  0.41433  0.28531  1.0000
  C   C1226     1.0  0.62399  0.35679  0.82223  1.0000
  H   H1878     1.0  0.64282  0.37350  0.02845  1.0000
  H   H1879     1.0  0.52007  0.48288  0.85958  1.0000
  H   H1880     1.0  0.59191  0.42140  0.73285  1.0000
  H   H1881     1.0  0.59356  0.43273  0.74561  1.0000
  H   H1882     1.0  0.67985  0.39944  0.27957  1.0000
  H   H1883     1.0  0.67460  0.42373  0.24038  1.0000
  C   C1227     1.0  0.72931  0.37180  0.97235  1.0000
  H   H1884     1.0  0.74606  0.40021  0.16643  1.0000
  C   C1228     1.0  0.59222  0.42455  0.75805  1.0000
  H   H1885     1.0  0.57473  0.40577  0.83489  1.0000
  H   H1886     1.0  0.69589  0.26854  0.96888  1.0000
  H   H1887     1.0  0.68539  0.39842  0.23010  1.0000
  H   H1888     1.0  0.74506  0.30196  0.33987  1.0000
  H   H1889     1.0  0.64484  0.45348  0.47312  1.0000
  C   C1229     1.0  0.64650  0.45430  0.43993  1.0000
  C   C1230     1.0  0.63608  0.28364  0.16348  1.0000
  N   N117      1.0  0.58308  0.42020  0.79349  1.0000
  H   H1890     1.0  0.57362  0.41949  0.75616  1.0000
  H   H1891     1.0  0.60960  0.48425  0.82790  1.0000
  C   C1231     1.0  0.51142  0.48349  0.36302  1.0000
  H   H1892     1.0  0.63210  0.40690  0.55116  1.0000
  H   H1893     1.0  0.61194  0.35635  0.25572  1.0000
  C   C1232     1.0  0.74397  0.38053  0.29801  1.0000
  C   C1233     1.0  0.51512  0.45850  0.30198  1.0000
  C   C1234     1.0  0.57456  0.42255  0.78096  1.0000
  C   C1235     1.0  0.58397  0.42436  0.82654  1.0000
  H   H1894     1.0  0.65246  0.37758  0.07351  1.0000
  H   H1895     1.0  0.66147  0.37158  0.05270  1.0000
  C   C1236     1.0  0.70213  0.28170  0.00431  1.0000
  C   C1237     1.0  0.50695  0.50375  0.74752  1.0000
  N   N118      1.0  0.52191  0.47067  0.83681  1.0000
  S   S525      1.0  0.67469  0.26497  0.19993  1.0000
  C   C1238     1.0  0.56279  0.49719  0.30658  1.0000
  C   C1239     1.0  0.53810  0.46927  0.43418  1.0000
  H   H1896     1.0  0.56753  0.41937  0.80701  1.0000
  H   H1897     1.0  0.58504  0.43256  0.81644  1.0000
  C   C1240     1.0  0.65432  0.37030  0.07681  1.0000
  H   H1898     1.0  0.65224  0.36797  0.00735  1.0000
  H   H1899     1.0  0.73561  0.28449  0.12038  1.0000
  C   C1241     1.0  0.71174  0.27027  0.02371  1.0000
  C   C1242     1.0  0.64523  0.36648  0.03255  1.0000
  H   H1900     1.0  0.65561  0.36780  0.10689  1.0000
  H   H1901     1.0  0.64845  0.44738  0.43622  1.0000
  N   N119      1.0  0.64656  0.36290  0.07307  1.0000
  H   H1902     1.0  0.63965  0.36090  0.02821  1.0000
  H   H1903     1.0  0.65699  0.35459  0.05559  1.0000
  H   H1904     1.0  0.63465  0.36824  0.10292  1.0000
  C   C1243     1.0  0.59799  0.32854  0.16186  1.0000
  H   H1905     1.0  0.52487  0.47422  0.20441  1.0000
  H   H1906     1.0  0.51049  0.47243  0.80922  1.0000
  H   H1907     1.0  0.62064  0.26847  0.00018  1.0000
  H   H1908     1.0  0.59412  0.26675  0.04441  1.0000
  H   H1909     1.0  0.68690  0.26567  0.04251  1.0000
  H   H1910     1.0  0.63806  0.35878  0.13650  1.0000
  H   H1911     1.0  0.57539  0.43069  0.76964  1.0000
  H   H1912     1.0  0.59037  0.42280  0.83656  1.0000
  C   C1244     1.0  0.64956  0.35349  0.07740  1.0000
  C   C1245     1.0  0.63719  0.36131  0.10562  1.0000
  H   H1913     1.0  0.60524  0.32784  0.16579  1.0000
  H   H1914     1.0  0.58743  0.48999  0.14426  1.0000
  C   C1246     1.0  0.51749  0.47465  0.86954  1.0000
  H   H1915     1.0  0.64718  0.46279  0.36288  1.0000
  H   H1916     1.0  0.65007  0.35032  0.10843  1.0000
  H   H1917     1.0  0.64429  0.34791  0.07167  1.0000
  H   H1918     1.0  0.63126  0.35557  0.10413  1.0000
  H   H1919     1.0  0.72526  0.27551  0.08952  1.0000
  H   H1920     1.0  0.55698  0.46958  0.42478  1.0000
  H   H1921     1.0  0.73037  0.26615  0.14594  1.0000
  H   H1922     1.0  0.62755  0.44636  0.48334  1.0000
  H   H1923     1.0  0.72985  0.30980  0.27270  1.0000
  H   H1924     1.0  0.54588  0.34689  0.78254  1.0000
  C   C1247     1.0  0.54485  0.36318  0.83655  1.0000
  H   H1925     1.0  0.72443  0.26744  0.28151  1.0000
  H   H1926     1.0  0.55181  0.36878  0.81657  1.0000
  C   C1248     1.0  0.65185  0.31478  0.05275  1.0000
  H   H1927     1.0  0.64815  0.36845  0.77144  1.0000
  N   N120      1.0  0.54483  0.35336  0.83108  1.0000
  C   C1249     1.0  0.55318  0.34991  0.84151  1.0000
  C   C1250     1.0  0.63263  0.29014  0.18385  1.0000
  H   H1928     1.0  0.50543  0.44529  0.72472  1.0000
  C   C1251     1.0  0.73768  0.37711  0.97777  1.0000
  H   H1929     1.0  0.55270  0.34922  0.87379  1.0000
  H   H1930     1.0  0.62250  0.42795  0.85853  1.0000
  H   H1931     1.0  0.63945  0.44638  0.83399  1.0000
  C   C1252     1.0  0.63674  0.30842  0.04095  1.0000
  H   H1932     1.0  0.53789  0.45710  0.38848  1.0000
  H   H1933     1.0  0.71844  0.27516  0.99844  1.0000
  H   H1934     1.0  0.60364  0.39728  0.36562  1.0000
  C   C1253     1.0  0.62257  0.43222  0.88043  1.0000
  H   H1935     1.0  0.63396  0.41934  0.88828  1.0000
  H   H1936     1.0  0.62091  0.43938  0.86709  1.0000
  H   H1937     1.0  0.64756  0.43977  0.85345  1.0000
  H   H1938     1.0  0.68377  0.41762  0.77040  1.0000
  H   H1939     1.0  0.50929  0.47281  0.87814  1.0000
  C   C1254     1.0  0.51919  0.41735  0.07739  1.0000
  N   N121      1.0  0.59020  0.31932  0.18551  1.0000
  C   C1255     1.0  0.54582  0.35412  0.78802  1.0000
  H   H1940     1.0  0.55400  0.40856  0.38097  1.0000
  H   H1941     1.0  0.60665  0.40520  0.39418  1.0000
  N   N122      1.0  0.63215  0.43383  0.88819  1.0000
  C   C1256     1.0  0.64018  0.43888  0.84898  1.0000
  H   H1942     1.0  0.61638  0.42810  0.90914  1.0000
  H   H1943     1.0  0.64020  0.43459  0.82714  1.0000
  H   H1944     1.0  0.63402  0.34881  0.87052  1.0000
  H   H1945     1.0  0.51744  0.46377  0.31763  1.0000
  C   C1257     1.0  0.72997  0.28000  0.22658  1.0000
  H   H1946     1.0  0.73600  0.30126  0.38612  1.0000
  H   H1947     1.0  0.56196  0.40464  0.34392  1.0000
  H   H1948     1.0  0.55279  0.35949  0.76688  1.0000
  H   H1949     1.0  0.53971  0.35682  0.77881  1.0000
  C   C1258     1.0  0.63382  0.42419  0.90804  1.0000
  H   H1950     1.0  0.62794  0.42014  0.93782  1.0000
  H   H1951     1.0  0.61053  0.42355  0.36166  1.0000
  C   C1259     1.0  0.60327  0.40457  0.36993  1.0000
  C   C1260     1.0  0.61758  0.27726  0.22328  1.0000
  H   H1952     1.0  0.54892  0.40146  0.35309  1.0000
  H   H1953     1.0  0.56140  0.38741  0.44209  1.0000
  C   C1261     1.0  0.55467  0.40232  0.36835  1.0000
  H   H1954     1.0  0.59534  0.40445  0.38173  1.0000
  H   H1955     1.0  0.64106  0.42512  0.91379  1.0000
  H   H1956     1.0  0.62616  0.37188  0.30019  1.0000
  H   H1957     1.0  0.61718  0.36258  0.34376  1.0000
  H   H1958     1.0  0.56161  0.40034  0.43246  1.0000
  C   C1262     1.0  0.63206  0.44006  0.91526  1.0000
  N   N123      1.0  0.55371  0.39303  0.40050  1.0000
  C   C1263     1.0  0.56181  0.39435  0.41817  1.0000
  H   H1959     1.0  0.63371  0.46473  0.46435  1.0000
  H   H1960     1.0  0.54344  0.39637  0.44758  1.0000
  C   C1264     1.0  0.62386  0.36379  0.31726  1.0000
  H   H1961     1.0  0.62985  0.36189  0.32956  1.0000
  H   H1962     1.0  0.56133  0.38676  0.35726  1.0000
  H   H1963     1.0  0.53837  0.47658  0.43943  1.0000
  C   C1265     1.0  0.73711  0.28908  0.20608  1.0000
  C   C1266     1.0  0.61495  0.41166  0.57492  1.0000
  H   H1964     1.0  0.53786  0.38942  0.42055  1.0000
  C   C1267     1.0  0.61360  0.36051  0.27638  1.0000
  C   C1268     1.0  0.55427  0.38494  0.38241  1.0000
  H   H1965     1.0  0.60669  0.35879  0.30244  1.0000
  H   H1966     1.0  0.61530  0.36858  0.25952  1.0000
  C   C1269     1.0  0.54411  0.39046  0.43303  1.0000
  H   H1967     1.0  0.62244  0.41348  0.34181  1.0000
  H   H1968     1.0  0.57783  0.49170  0.18400  1.0000
  H   H1969     1.0  0.62608  0.43648  0.94515  1.0000
  H   H1970     1.0  0.63919  0.44146  0.92165  1.0000
  C   C1270     1.0  0.60737  0.42227  0.33762  1.0000
  N   N124      1.0  0.60842  0.41273  0.33116  1.0000
  H   H1971     1.0  0.71660  0.37385  0.07130  1.0000
  H   H1972     1.0  0.69417  0.35359  0.13647  1.0000
  N   N125      1.0  0.62181  0.35790  0.29075  1.0000
  H   H1973     1.0  0.61777  0.34257  0.29473  1.0000
  H   H1974     1.0  0.63708  0.35814  0.26485  1.0000
  H   H1975     1.0  0.54820  0.38360  0.36921  1.0000
  H   H1976     1.0  0.55383  0.37785  0.40552  1.0000
  H   H1977     1.0  0.54317  0.38344  0.45757  1.0000
  C   C1271     1.0  0.61905  0.34723  0.31424  1.0000
  C   C1272     1.0  0.63074  0.36005  0.25513  1.0000
  H   H1978     1.0  0.61215  0.34524  0.34057  1.0000
  C   C1273     1.0  0.56111  0.49348  0.82246  1.0000
  H   H1979     1.0  0.62009  0.40593  0.31083  1.0000
  C   C1274     1.0  0.60406  0.41125  0.29935  1.0000
  C   C1275     1.0  0.61900  0.41283  0.31778  1.0000
  H   H1980     1.0  0.61131  0.42862  0.30912  1.0000
  H   H1981     1.0  0.59283  0.49999  0.80202  1.0000
  C   C1276     1.0  0.71079  0.36676  0.08296  1.0000
  H   H1982     1.0  0.71177  0.36337  0.05789  1.0000
  H   H1983     1.0  0.70052  0.37239  0.03350  1.0000
  H   H1984     1.0  0.60480  0.40413  0.29356  1.0000
  H   H1985     1.0  0.71221  0.36174  0.10913  1.0000
  H   H1986     1.0  0.68569  0.35994  0.11911  1.0000
  C   C1277     1.0  0.69331  0.35891  0.10949  1.0000
  H   H1987     1.0  0.63304  0.36802  0.23657  1.0000
  H   H1988     1.0  0.62324  0.41921  0.28975  1.0000
  H   H1989     1.0  0.60775  0.41730  0.26973  1.0000
  C   C1278     1.0  0.60184  0.27197  0.96201  1.0000
  N   N126      1.0  0.70080  0.36844  0.09527  1.0000
  C   C1279     1.0  0.69934  0.37527  0.05985  1.0000
  C   C1280     1.0  0.64046  0.45676  0.38187  1.0000
  H   H1990     1.0  0.70458  0.38268  0.04936  1.0000
  H   H1991     1.0  0.63849  0.37351  0.79484  1.0000
  C   C1281     1.0  0.72172  0.38550  0.97247  1.0000
  H   H1992     1.0  0.69385  0.35541  0.08486  1.0000
  H   H1993     1.0  0.51856  0.41319  0.10827  1.0000
  H   H1994     1.0  0.59911  0.47347  0.01820  1.0000
  S   S526      1.0  0.70305  0.26516  0.16088  1.0000
  H   H1995     1.0  0.52113  0.48266  0.78826  1.0000
  H   H1996     1.0  0.74467  0.29074  0.07082  1.0000
  H   H1997     1.0  0.75090  0.38450  0.16756  1.0000
  H   H1998     1.0  0.63045  0.40845  0.60057  1.0000
  H   H1999     1.0  0.63435  0.45840  0.36978  1.0000
  H   H2000     1.0  0.62271  0.44857  0.44121  1.0000
  H   H2001     1.0  0.64183  0.44977  0.37647  1.0000
  H   H2002     1.0  0.69172  0.37630  0.06737  1.0000
  H   H2003     1.0  0.64690  0.26257  0.80198  1.0000
  H   H2004     1.0  0.60358  0.39662  0.64195  1.0000
  H   H2005     1.0  0.61522  0.38778  0.58172  1.0000
  N   N127      1.0  0.63800  0.45592  0.42577  1.0000
  H   H2006     1.0  0.61316  0.39058  0.64929  1.0000
  H   H2007     1.0  0.61766  0.41714  0.58908  1.0000
  C   C1282     1.0  0.61170  0.39782  0.63564  1.0000
  H   H2008     1.0  0.61863  0.41489  0.54123  1.0000
  H   H2009     1.0  0.61786  0.39807  0.53637  1.0000
  H   H2010     1.0  0.66002  0.29414  0.24408  1.0000
  C   C1283     1.0  0.61386  0.39519  0.56995  1.0000
  H   H2011     1.0  0.65318  0.46051  0.42260  1.0000
  C   C1284     1.0  0.70270  0.26802  0.97731  1.0000
  C   C1285     1.0  0.68665  0.42577  0.66853  1.0000
  N   N128      1.0  0.61708  0.40202  0.59122  1.0000
  H   H2012     1.0  0.64198  0.47167  0.41373  1.0000
  H   H2013     1.0  0.61386  0.40285  0.65262  1.0000
  H   H2014     1.0  0.60689  0.41090  0.58089  1.0000
  H   H2015     1.0  0.62973  0.39633  0.59539  1.0000
  N   N129      1.0  0.63474  0.35764  0.81072  1.0000
  H   H2016     1.0  0.59619  0.33493  0.17166  1.0000
  C   C1286     1.0  0.63786  0.35623  0.84766  1.0000
  C   C1287     1.0  0.68784  0.42105  0.73704  1.0000
  C   C1288     1.0  0.58927  0.31690  0.22948  1.0000
  C   C1289     1.0  0.73698  0.30037  0.35538  1.0000
  H   H2017     1.0  0.59640  0.31620  0.23486  1.0000
  H   H2018     1.0  0.64512  0.35030  0.78310  1.0000
  H   H2019     1.0  0.63768  0.36896  0.75336  1.0000
  H   H2020     1.0  0.50976  0.40541  0.06851  1.0000
  H   H2021     1.0  0.57854  0.32687  0.19069  1.0000
  H   H2022     1.0  0.53053  0.46653  0.43336  1.0000
  C   C1290     1.0  0.63709  0.34998  0.79173  1.0000
  H   H2023     1.0  0.62135  0.35758  0.79518  1.0000
  H   H2024     1.0  0.62198  0.36262  0.83573  1.0000
  C   C1291     1.0  0.64002  0.36757  0.78124  1.0000
  H   H2025     1.0  0.64329  0.28605  0.14051  1.0000
  C   C1292     1.0  0.55557  0.47422  0.39767  1.0000
  C   C1293     1.0  0.73712  0.26604  0.12251  1.0000
  H   H2026     1.0  0.57459  0.47697  0.84884  1.0000
  H   H2027     1.0  0.63477  0.35074  0.76391  1.0000
  H   H2028     1.0  0.53546  0.48205  0.81314  1.0000
  H   H2029     1.0  0.63625  0.36189  0.86278  1.0000
  C   C1294     1.0  0.72130  0.37597  0.96953  1.0000
  S   S527      1.0  0.58115  0.48710  0.90194  1.0000
  H   H2030     1.0  0.64593  0.35673  0.84011  1.0000
  C   C1295     1.0  0.73673  0.27797  0.28326  1.0000
  H   H2031     1.0  0.63320  0.34240  0.81310  1.0000
  C   C1296     1.0  0.58071  0.32071  0.17992  1.0000
  H   H2032     1.0  0.55087  0.46087  0.36088  1.0000
  C   C1297     1.0  0.56882  0.49721  0.87153  1.0000
  H   H2033     1.0  0.68135  0.40629  0.71002  1.0000
  H   H2034     1.0  0.67720  0.43424  0.72111  1.0000
  H   H2035     1.0  0.59984  0.30976  0.17515  1.0000
  H   H2036     1.0  0.58271  0.48992  0.32583  1.0000
  H   H2037     1.0  0.60262  0.48332  0.06299  1.0000
  H   H2038     1.0  0.58114  0.32253  0.14708  1.0000
  H   H2039     1.0  0.66916  0.42295  0.75792  1.0000
  C   C1298     1.0  0.60559  0.50049  0.84435  1.0000
  H   H2040     1.0  0.65693  0.32609  0.97291  1.0000
  C   C1299     1.0  0.61330  0.49136  0.80272  1.0000
  H   H2041     1.0  0.74177  0.40681  0.29935  1.0000
  H   H2042     1.0  0.59906  0.33049  0.12840  1.0000
  H   H2043     1.0  0.54665  0.45508  0.41542  1.0000
  H   H2044     1.0  0.69188  0.42871  0.73246  1.0000
  H   H2045     1.0  0.58371  0.30979  0.24809  1.0000
  C   C1300     1.0  0.66812  0.25869  0.17507  1.0000
  H   H2046     1.0  0.58691  0.32274  0.24213  1.0000
  H   H2047     1.0  0.57464  0.31391  0.19745  1.0000
  H   H2048     1.0  0.58701  0.30407  0.18732  1.0000
  H   H2049     1.0  0.71783  0.29736  0.36117  1.0000
  N   N130      1.0  0.70262  0.27124  0.01351  1.0000
  H   H2050     1.0  0.55640  0.48189  0.39953  1.0000
  C   C1301     1.0  0.63034  0.27395  0.17325  1.0000
  H   H2051     1.0  0.69339  0.41679  0.72913  1.0000
  H   H2052     1.0  0.72092  0.30669  0.38399  1.0000
  H   H2053     1.0  0.67078  0.41032  0.70120  1.0000
  H   H2054     1.0  0.73711  0.31923  0.35148  1.0000
  H   H2055     1.0  0.68166  0.42579  0.64939  1.0000
  H   H2056     1.0  0.56152  0.47452  0.37005  1.0000
  H   H2057     1.0  0.67169  0.40678  0.75213  1.0000
  Fe  Fe266     1.0  0.53126  0.49873  0.42331  1.0000
  C   C1302     1.0  0.73006  0.39079  0.97807  1.0000
  H   H2058     1.0  0.70318  0.26018  0.98307  1.0000
  H   H2059     1.0  0.66849  0.42666  0.70681  1.0000
  H   H2060     1.0  0.73030  0.39816  0.98028  1.0000
  C   C1303     1.0  0.67366  0.42645  0.72512  1.0000
  C   C1304     1.0  0.73749  0.31741  0.32273  1.0000
  C   C1305     1.0  0.51869  0.45973  0.85195  1.0000
  H   H2061     1.0  0.56272  0.49192  0.70896  1.0000
  H   H2062     1.0  0.74787  0.26779  0.04588  1.0000
  C   C1306     1.0  0.59770  0.49480  0.79974  1.0000
  H   H2063     1.0  0.73733  0.29345  0.17606  1.0000
  H   H2064     1.0  0.64795  0.31312  0.08602  1.0000
  H   H2065     1.0  0.64551  0.26401  0.26703  1.0000
  C   C1307     1.0  0.60108  0.26467  0.03213  1.0000
  H   H2066     1.0  0.64585  0.32070  0.96487  1.0000
  H   H2067     1.0  0.75143  0.40460  0.89839  1.0000
  C   C1308     1.0  0.62109  0.27068  0.20351  1.0000
  H   H2068     1.0  0.73422  0.28167  0.03941  1.0000
  C   C1309     1.0  0.65072  0.31932  0.98417  1.0000
  C   C1310     1.0  0.58582  0.49193  0.17318  1.0000
  H   H2069     1.0  0.65316  0.26971  0.72612  1.0000
  H   H2070     1.0  0.74469  0.37321  0.29741  1.0000
  H   H2071     1.0  0.52105  0.45661  0.87890  1.0000
  H   H2072     1.0  0.52370  0.49765  0.64842  1.0000
  C   C1311     1.0  0.73323  0.30497  0.29193  1.0000
  C   C1312     1.0  0.72984  0.27445  0.26534  1.0000
  C   C1313     1.0  0.74233  0.39943  0.29938  1.0000
  H   H2073     1.0  0.71173  0.27218  0.05199  1.0000
  C   C1314     1.0  0.51705  0.49031  0.37505  1.0000
  H   H2074     1.0  0.52900  0.34863  0.85091  1.0000
  H   H2075     1.0  0.54409  0.48339  0.69098  1.0000
  H   H2076     1.0  0.70862  0.28661  0.97799  1.0000
  C   C1315     1.0  0.74401  0.29259  0.22392  1.0000
  H   H2077     1.0  0.66672  0.28470  0.25017  1.0000
  H   H2078     1.0  0.65386  0.31311  0.97820  1.0000
  C   C1316     1.0  0.65478  0.28132  0.20648  1.0000
  C   C1317     1.0  0.57137  0.48324  0.84831  1.0000
  C   C1318     1.0  0.73394  0.27461  0.92117  1.0000
  H   H2079     1.0  0.60049  0.26472  0.95626  1.0000
  H   H2080     1.0  0.65836  0.32115  0.04372  1.0000
  C   C1319     1.0  0.56544  0.48543  0.82327  1.0000
  H   H2081     1.0  0.63794  0.26988  0.80308  1.0000
  H   H2082     1.0  0.71258  0.26257  0.02920  1.0000
  N   N131      1.0  0.73238  0.30699  0.33111  1.0000
  C   C1320     1.0  0.73504  0.27936  0.88015  1.0000
  H   H2083     1.0  0.50722  0.47394  0.23452  1.0000
  C   C1321     1.0  0.72185  0.30519  0.35431  1.0000
  C   C1322     1.0  0.57315  0.48917  0.87234  1.0000
  N   N132      1.0  0.65185  0.27961  0.25111  1.0000
  C   C1323     1.0  0.62045  0.26901  0.87012  1.0000
  H   H2084     1.0  0.64791  0.33232  0.02584  1.0000
  H   H2085     1.0  0.56413  0.48081  0.80471  1.0000
  H   H2086     1.0  0.74017  0.28655  0.86423  1.0000
  H   H2087     1.0  0.60505  0.26415  0.05518  1.0000
  N   N133      1.0  0.63834  0.26134  0.76159  1.0000
  H   H2088     1.0  0.60277  0.28442  0.00603  1.0000
  H   H2089     1.0  0.56039  0.35511  0.82160  1.0000
  S   S528      1.0  0.74848  0.39371  0.98692  1.0000
  H   H2090     1.0  0.72648  0.26139  0.97265  1.0000
  C   C1324     1.0  0.50944  0.50298  0.34633  1.0000
  H   H2091     1.0  0.63679  0.32767  0.01598  1.0000
  C   C1325     1.0  0.75092  0.38644  0.30863  1.0000
  H   H2092     1.0  0.63914  0.30175  0.03636  1.0000
  C   C1326     1.0  0.57023  0.49210  0.30557  1.0000
  H   H2093     1.0  0.58712  0.48595  0.19636  1.0000
  H   H2094     1.0  0.51203  0.47590  0.37013  1.0000
  H   H2095     1.0  0.65463  0.30823  0.04903  1.0000
  C   C1327     1.0  0.69973  0.37284  0.12870  1.0000
  H   H2096     1.0  0.65431  0.26141  0.20413  1.0000
  C   C1328     1.0  0.53278  0.47384  0.82485  1.0000
  H   H2097     1.0  0.52198  0.45648  0.82808  1.0000
  H   H2098     1.0  0.62597  0.26814  0.88528  1.0000
  H   H2099     1.0  0.61392  0.50694  0.74052  1.0000
  H   H2100     1.0  0.53917  0.49407  0.68905  1.0000
  H   H2101     1.0  0.75156  0.28105  0.02740  1.0000
  C   C1329     1.0  0.72950  0.27480  0.85962  1.0000
  H   H2102     1.0  0.59864  0.49339  0.76992  1.0000
  C   C1330     1.0  0.74913  0.27450  0.05555  1.0000
  H   H2103     1.0  0.64238  0.28963  0.24981  1.0000
  S   S529      1.0  0.72143  0.27610  0.20221  1.0000
  H   H2104     1.0  0.60606  0.27771  0.93204  1.0000
  H   H2105     1.0  0.51053  0.45706  0.86115  1.0000
  H   H2106     1.0  0.70525  0.38005  0.11925  1.0000
  S   S530      1.0  0.52438  0.48629  0.40475  1.0000
  H   H2107     1.0  0.70913  0.27263  0.95011  1.0000
  C   C1331     1.0  0.72268  0.26553  0.87994  1.0000
  H   H2108     1.0  0.51950  0.47168  0.89757  1.0000
  C   C1332     1.0  0.61546  0.26079  0.86265  1.0000
  C   C1333     1.0  0.74223  0.28390  0.09777  1.0000
  H   H2109     1.0  0.63737  0.32419  0.06718  1.0000
  H   H2110     1.0  0.52169  0.47137  0.77606  1.0000
  H   H2111     1.0  0.71815  0.31003  0.33673  1.0000
  H   H2112     1.0  0.63157  0.30992  0.02313  1.0000
  C   C1334     1.0  0.65931  0.28620  0.26020  1.0000
  C   C1335     1.0  0.57603  0.50054  0.34891  1.0000
  H   H2113     1.0  0.53547  0.47118  0.85131  1.0000
  N   N134      1.0  0.51486  0.46375  0.26090  1.0000
  H   H2114     1.0  0.52722  0.47576  0.24979  1.0000
  H   H2115     1.0  0.73655  0.27361  0.31323  1.0000
  C   C1336     1.0  0.57693  0.49382  0.32650  1.0000
  H   H2116     1.0  0.69229  0.37422  0.13842  1.0000
  H   H2117     1.0  0.75278  0.33383  0.16227  1.0000
  H   H2118     1.0  0.54405  0.36292  0.86870  1.0000
  H   H2119     1.0  0.73430  0.32268  0.30430  1.0000
  C   C1337     1.0  0.52477  0.47016  0.23571  1.0000
  S   S531      1.0  0.54277  0.49678  0.45377  1.0000
  H   H2120     1.0  0.73386  0.29244  0.35964  1.0000
  C   C1338     1.0  0.51869  0.47444  0.80093  1.0000
  H   H2121     1.0  0.56218  0.48534  0.67286  1.0000
  H   H2122     1.0  0.50960  0.47543  0.27993  1.0000
  S   S532      1.0  0.53148  0.49892  0.56442  1.0000
  C   C1339     1.0  0.55549  0.49842  0.62431  1.0000
  H   H2123     1.0  0.74823  0.39992  0.21379  1.0000
  C   C1340     1.0  0.54533  0.49085  0.69497  1.0000
  C   C1341     1.0  0.69393  0.26498  0.04867  1.0000
  Fe  Fe267     1.0  0.70868  0.26267  0.21511  1.0000
  H   H2124     1.0  0.65735  0.28518  0.29358  1.0000
  H   H2125     1.0  0.55446  0.49114  0.61872  1.0000
  S   S533      1.0  0.55411  0.49623  0.78896  1.0000
  H   H2126     1.0  0.54478  0.48976  0.72764  1.0000
  C   C1342     1.0  0.60957  0.28187  0.99584  1.0000
  S   S534      1.0  0.50792  0.49364  0.82239  1.0000
  H   H2127     1.0  0.52030  0.45359  0.30024  1.0000
  H   H2128     1.0  0.62062  0.49401  0.80594  1.0000
  H   H2129     1.0  0.59459  0.27368  0.97271  1.0000
  H   H2130     1.0  0.59359  0.48769  0.82421  1.0000
  C   C1343     1.0  0.56292  0.49281  0.67667  1.0000
  H   H2131     1.0  0.64487  0.26870  0.69683  1.0000
  C   C1344     1.0  0.56276  0.49933  0.84693  1.0000
  C   C1345     1.0  0.75030  0.39601  0.30835  1.0000
  C   C1346     1.0  0.73212  0.27514  0.06750  1.0000
  H   H2132     1.0  0.51697  0.45143  0.23907  1.0000
  H   H2133     1.0  0.50908  0.43047  0.11406  1.0000
  H   H2134     1.0  0.51196  0.46013  0.20949  1.0000
  H   H2135     1.0  0.73034  0.26839  0.05842  1.0000
  H   H2136     1.0  0.61459  0.48959  0.77348  1.0000
  H   H2137     1.0  0.60426  0.49559  0.17687  1.0000
  S   S535      1.0  0.50836  0.42925  0.78351  1.0000
  C   C1347     1.0  0.72161  0.26075  0.92090  1.0000
  S   S536      1.0  0.71599  0.25999  0.85256  1.0000
  C   C1348     1.0  0.65801  0.25803  0.18309  1.0000
  H   H2138     1.0  0.62614  0.26820  0.76503  1.0000
  H   H2139     1.0  0.74948  0.29954  0.20746  1.0000
  H   H2140     1.0  0.63957  0.28038  0.29859  1.0000
  C   C1349     1.0  0.62818  0.26132  0.76105  1.0000
  H   H2141     1.0  0.59098  0.49793  0.23156  1.0000
  H   H2142     1.0  0.60456  0.49970  0.12481  1.0000
  N   N135      1.0  0.59210  0.50164  0.16780  1.0000
  H   H2143     1.0  0.58117  0.50186  0.36530  1.0000
  H   H2144     1.0  0.61262  0.50372  0.84853  1.0000
  H   H2145     1.0  0.73543  0.25909  0.11476  1.0000
  H   H2146     1.0  0.62716  0.26060  0.73199  1.0000
  C   C1350     1.0  0.75184  0.40228  0.18020  1.0000
  S   S537      1.0  0.75208  0.29142  0.28755  1.0000
  H   H2147     1.0  0.75206  0.35325  0.10338  1.0000
  H   H2148     1.0  0.74823  0.28393  0.11193  1.0000
  S   S538      1.0  0.69320  0.25769  0.26001  1.0000
  H   H2149     1.0  0.58188  0.50391  0.21848  1.0000
  C   C1351     1.0  0.60259  0.50144  0.15414  1.0000
  H   H2150     1.0  0.54962  0.50184  0.61636  1.0000
  H   H2151     1.0  0.64921  0.26767  0.30639  1.0000
  S   S539      1.0  0.75188  0.33001  0.92295  1.0000
  H   H2152     1.0  0.75111  0.35088  0.15659  1.0000
  H   H2153     1.0  0.57014  0.50183  0.89006  1.0000
  C   C1352     1.0  0.58976  0.50374  0.20721  1.0000
  H   H2154     1.0  0.75278  0.35058  0.91468  1.0000
  S   S540      1.0  0.53430  0.50406  0.75485  1.0000
  H   H2155     1.0  0.60064  0.50558  0.84777  1.0000
  Fe  Fe268     1.0  0.52203  0.50509  0.80490  1.0000
  H   H2156     1.0  0.75221  0.38372  0.21671  1.0000
  C   C1353     1.0  0.56831  0.50533  0.35122  1.0000
  H   H2157     1.0  0.55948  0.50555  0.84653  1.0000
  S   S541      1.0  0.61384  0.25840  0.21872  1.0000
  Fe  Fe269     1.0  0.53529  0.50444  0.49554  1.0000
  C   C1354     1.0  0.52903  0.50473  0.63264  1.0000
  S   S542      1.0  0.53126  0.50632  0.84580  1.0000
  Fe  Fe270     1.0  0.75280  0.29423  0.93053  1.0000
  H   H2158     1.0  0.52048  0.50540  0.37531  1.0000
  S   S543      1.0  0.52278  0.50463  0.46962  1.0000
  H   H2159     1.0  0.56269  0.50324  0.60238  1.0000
  H   H2160     1.0  0.51316  0.50365  0.55419  1.0000
  H   H2161     1.0  0.55609  0.50664  0.70498  1.0000
  H   H2162     1.0  0.51186  0.50553  0.60269  1.0000
  H   H2163     1.0  0.75367  0.33605  0.10920  1.0000
  H   H2164     1.0  0.59907  0.25709  0.02995  1.0000
  Fe  Fe271     1.0  0.54397  0.50665  0.79286  1.0000
  H   H2165     1.0  0.50443  0.50167  0.44315  1.0000
  C   C1355     1.0  0.50891  0.50678  0.57640  1.0000
  H   H2166     1.0  0.69396  0.25702  0.05569  1.0000
  H   H2167     1.0  0.52033  0.55630  0.20358  1.0000
  C   C1356     1.0  0.53388  0.50740  0.59046  1.0000
  H   H2168     1.0  0.51222  0.50987  0.74795  1.0000
  C   C1357     1.0  0.51215  0.54195  0.39105  1.0000
  H   H2169     1.0  0.52817  0.55677  0.76596  1.0000
  C   C1358     1.0  0.51771  0.57844  0.15048  1.0000
  C   C1359     1.0  0.50979  0.56202  0.15405  1.0000
  H   H2170     1.0  0.52638  0.56853  0.20061  1.0000
  H   H2171     1.0  0.54613  0.56283  0.66222  1.0000
  C   C1360     1.0  0.50519  0.51866  0.52447  1.0000
  H   H2172     1.0  0.54704  0.55192  0.72734  1.0000
  H   H2173     1.0  0.51943  0.55005  0.70396  1.0000
  Fe  Fe272     1.0  0.53189  0.51955  0.42693  1.0000
  Fe  Fe273     1.0  0.55068  0.51205  0.41093  1.0000
  S   S544      1.0  0.52336  0.53135  0.42715  1.0000
  S   S545      1.0  0.56679  0.51329  0.38111  1.0000
  H   H2174     1.0  0.50458  0.54356  0.81956  1.0000
  H   H2175     1.0  0.52835  0.56039  0.12818  1.0000
  H   H2176     1.0  0.52107  0.53087  0.52426  1.0000
  C   C1361     1.0  0.52746  0.56806  0.12452  1.0000
  C   C1362     1.0  0.53094  0.51121  0.65455  1.0000
  H   H2177     1.0  0.58233  0.50972  0.14611  1.0000
  S   S546      1.0  0.53948  0.51364  0.37783  1.0000
  S   S547      1.0  0.54408  0.51966  0.45537  1.0000
  C   C1363     1.0  0.59020  0.50942  0.13669  1.0000
  H   H2178     1.0  0.53447  0.56216  0.65295  1.0000
  H   H2179     1.0  0.54045  0.55222  0.65143  1.0000
  Fe  Fe274     1.0  0.53423  0.52276  0.81397  1.0000
  S   S548      1.0  0.52406  0.52138  0.77697  1.0000
  S   S549      1.0  0.53416  0.53440  0.84616  1.0000
  H   H2180     1.0  0.56342  0.51229  0.65214  1.0000
  H   H2181     1.0  0.51008  0.55414  0.15977  1.0000
  Fe  Fe275     1.0  0.53719  0.52045  0.72984  1.0000
  S   S550      1.0  0.54081  0.52827  0.66230  1.0000
  H   H2182     1.0  0.50857  0.51047  0.34060  1.0000
  S   S551      1.0  0.54780  0.52322  0.76398  1.0000
  H   H2183     1.0  0.52362  0.52256  0.56529  1.0000
  C   C1364     1.0  0.54065  0.51662  0.57028  1.0000
  C   C1365     1.0  0.54257  0.52311  0.59228  1.0000
  C   C1366     1.0  0.53779  0.52038  0.63457  1.0000
  H   H2184     1.0  0.50754  0.52034  0.61496  1.0000
  C   C1367     1.0  0.50892  0.54121  0.32824  1.0000
  H   H2185     1.0  0.54453  0.51871  0.53788  1.0000
  H   H2186     1.0  0.54791  0.53018  0.57661  1.0000
  H   H2187     1.0  0.50484  0.52929  0.57636  1.0000
  H   H2188     1.0  0.52553  0.54015  0.70283  1.0000
  H   H2189     1.0  0.52015  0.54220  0.75047  1.0000
  H   H2190     1.0  0.59187  0.50802  0.10664  1.0000
  H   H2191     1.0  0.51324  0.56410  0.22227  1.0000
  H   H2192     1.0  0.53617  0.54303  0.76306  1.0000
  H   H2193     1.0  0.51529  0.53097  0.30166  1.0000
  H   H2194     1.0  0.52678  0.56450  0.72074  1.0000
  C   C1368     1.0  0.53893  0.55773  0.66762  1.0000
  H   H2195     1.0  0.51136  0.54513  0.41570  1.0000
  H   H2196     1.0  0.51133  0.57882  0.17498  1.0000
  H   H2197     1.0  0.52687  0.57111  0.09340  1.0000
  C   C1369     1.0  0.52430  0.54600  0.71744  1.0000
  H   H2198     1.0  0.52702  0.50913  0.68688  1.0000
  H   H2199     1.0  0.53432  0.57259  0.12563  1.0000
  N   N136      1.0  0.53374  0.55278  0.71184  1.0000
  N   N137      1.0  0.51868  0.56816  0.15662  1.0000
  C   C1370     1.0  0.50439  0.52128  0.58927  1.0000
  C   C1371     1.0  0.53178  0.56027  0.73235  1.0000
  C   C1372     1.0  0.51229  0.55409  0.84103  1.0000
  C   C1373     1.0  0.51066  0.54532  0.83092  1.0000
  C   C1374     1.0  0.51700  0.53895  0.83447  1.0000
  C   C1375     1.0  0.52519  0.54143  0.84704  1.0000
  C   C1376     1.0  0.52664  0.55004  0.85833  1.0000
  C   C1377     1.0  0.52023  0.55634  0.85534  1.0000
  C   C1378     1.0  0.53996  0.54705  0.72994  1.0000
  H   H2200     1.0  0.51559  0.53219  0.82703  1.0000
  H   H2201     1.0  0.53292  0.55201  0.86829  1.0000
  H   H2202     1.0  0.52167  0.56317  0.86249  1.0000
  C   C1379     1.0  0.51772  0.53488  0.38915  1.0000
  C   C1380     1.0  0.52016  0.52292  0.54073  1.0000
  H   H2203     1.0  0.54173  0.54144  0.71474  1.0000
  C   C1381     1.0  0.51975  0.56411  0.19740  1.0000
  C   C1382     1.0  0.51436  0.53402  0.32671  1.0000
  C   C1383     1.0  0.51871  0.53084  0.35712  1.0000
  H   H2204     1.0  0.61981  0.51119  0.77363  1.0000
  H   H2205     1.0  0.53871  0.56566  0.72801  1.0000
  H   H2206     1.0  0.60760  0.50863  0.14963  1.0000
  H   H2207     1.0  0.52298  0.52539  0.35534  1.0000
  H   H2208     1.0  0.50881  0.56475  0.12348  1.0000
  H   H2209     1.0  0.52440  0.58340  0.15087  1.0000
  H   H2210     1.0  0.55033  0.51070  0.66708  1.0000
  N   N138      1.0  0.50967  0.51741  0.55768  1.0000
  H   H2211     1.0  0.50896  0.51575  0.50029  1.0000
  H   H2212     1.0  0.50577  0.51173  0.68959  1.0000
  H   H2213     1.0  0.55584  0.50738  0.33099  1.0000
  H   H2214     1.0  0.59439  0.51098  0.20459  1.0000
  C   C1384     1.0  0.50774  0.54509  0.36076  1.0000
  H   H2215     1.0  0.59482  0.51686  0.13184  1.0000
  S   S552      1.0  0.50585  0.56313  0.82698  1.0000
  H   H2216     1.0  0.51639  0.58158  0.12089  1.0000
  H   H2217     1.0  0.50586  0.52663  0.50902  1.0000
  C   C1385     1.0  0.61254  0.50805  0.77105  1.0000
  C   C1386     1.0  0.55628  0.50716  0.67309  1.0000
  H   H2218     1.0  0.60817  0.51372  0.77166  1.0000
  H   H2219     1.0  0.52448  0.51986  0.51831  1.0000
  H   H2220     1.0  0.51721  0.98071  0.44700  1.0000
  Fe  Fe276     1.0  0.51191  0.92005  0.29105  1.0000
  H   H2221     1.0  0.51714  0.99386  0.34271  1.0000
  H   H2222     1.0  0.53950  0.96130  0.05940  1.0000
  Fe  Fe277     1.0  0.54802  0.99168  0.40613  1.0000
  S   S553      1.0  0.53776  0.98994  0.46820  1.0000
  S   S554      1.0  0.54796  0.97783  0.38521  1.0000
  H   H2223     1.0  0.52843  0.95393  0.05790  1.0000
  C   C1387     1.0  0.51439  0.99210  0.74154  1.0000
  Fe  Fe278     1.0  0.55043  0.99917  0.47833  1.0000
  S   S555      1.0  0.55013  0.99317  0.54465  1.0000
  C   C1388     1.0  0.52488  0.99384  0.61294  1.0000
  S   S556      1.0  0.56116  0.00001  0.41780  1.0000
  H   H2224     1.0  0.51138  0.00345  0.63780  1.0000
  C   C1389     1.0  0.51319  0.99999  0.43058  1.0000
  H   H2225     1.0  0.50702  0.91483  0.76832  1.0000
  Fe  Fe279     1.0  0.54958  0.99824  0.81416  1.0000
  S   S557      1.0  0.54481  0.99939  0.75844  1.0000
  S   S558      1.0  0.54414  0.98365  0.86654  1.0000
  H   H2226     1.0  0.53808  0.94564  0.99212  1.0000
  H   H2227     1.0  0.51345  0.95562  0.51827  1.0000
  H   H2228     1.0  0.52975  0.93168  0.06223  1.0000
  C   C1390     1.0  0.53578  0.96248  0.81694  1.0000
  H   H2229     1.0  0.53911  0.94911  0.05585  1.0000
  H   H2230     1.0  0.50887  0.90824  0.13302  1.0000
  H   H2231     1.0  0.55368  0.95555  0.99326  1.0000
  H   H2232     1.0  0.52499  0.96485  0.49385  1.0000
  C   C1391     1.0  0.53769  0.97310  0.85889  1.0000
  C   C1392     1.0  0.54034  0.97141  0.82107  1.0000
  H   H2233     1.0  0.53432  0.98440  0.34133  1.0000
  Fe  Fe280     1.0  0.53501  0.00440  0.43865  1.0000
  C   C1393     1.0  0.50917  0.91648  0.79413  1.0000
  C   C1394     1.0  0.53020  0.96592  0.89209  1.0000
  H   H2234     1.0  0.54613  0.97683  0.79530  1.0000
  N   N139      1.0  0.52605  0.00468  0.60027  1.0000
  H   H2235     1.0  0.51246  0.90201  0.17562  1.0000
  H   H2236     1.0  0.52793  0.96724  0.92117  1.0000
  C   C1395     1.0  0.52944  0.96264  0.31938  1.0000
  S   S559      1.0  0.52575  0.93648  0.13742  1.0000
  C   C1396     1.0  0.53593  0.95810  0.33601  1.0000
  N   N140      1.0  0.54008  0.96005  0.99991  1.0000
  H   H2237     1.0  0.52735  0.95941  0.43276  1.0000
  H   H2238     1.0  0.53805  0.96116  0.78779  1.0000
  C   C1397     1.0  0.52895  0.97217  0.32154  1.0000
  N   N141      1.0  0.51515  0.96503  0.45806  1.0000
  H   H2239     1.0  0.51487  0.91112  0.86117  1.0000
  C   C1398     1.0  0.55505  0.99935  0.57489  1.0000
  H   H2240     1.0  0.52026  0.99025  0.64564  1.0000
  C   C1399     1.0  0.53664  0.95595  0.04511  1.0000
  H   H2241     1.0  0.53968  0.97485  0.00050  1.0000
  C   C1400     1.0  0.55575  0.99921  0.64291  1.0000
  C   C1401     1.0  0.55204  0.99470  0.61747  1.0000
  S   S560      1.0  0.52604  0.93199  0.25396  1.0000
  C   C1402     1.0  0.52187  0.93066  0.07429  1.0000
  H   H2242     1.0  0.55347  0.99544  0.67551  1.0000
  H   H2243     1.0  0.54689  0.98748  0.63089  1.0000
  C   C1403     1.0  0.54113  0.97245  0.35757  1.0000
  H   H2244     1.0  0.52137  0.92363  0.83044  1.0000
  H   H2245     1.0  0.51994  0.95152  0.91382  1.0000
  C   C1404     1.0  0.51797  0.00003  0.39103  1.0000
  S   S561      1.0  0.52148  0.95669  0.29715  1.0000
  C   C1405     1.0  0.50764  0.93105  0.12683  1.0000
  H   H2246     1.0  0.54664  0.95933  0.36795  1.0000
  S   S562      1.0  0.52326  0.94387  0.84442  1.0000
  C   C1406     1.0  0.53480  0.97708  0.34014  1.0000
  C   C1407     1.0  0.52559  0.95703  0.88789  1.0000
  H   H2247     1.0  0.53645  0.95080  0.33458  1.0000
  C   C1408     1.0  0.50680  0.90570  0.16706  1.0000
  H   H2248     1.0  0.50841  0.99663  0.85031  1.0000
  H   H2249     1.0  0.51545  0.98472  0.74470  1.0000
  H   H2250     1.0  0.53960  0.97270  0.95334  1.0000
  Fe  Fe281     1.0  0.51871  0.93471  0.20472  1.0000
  H   H2251     1.0  0.52398  0.97580  0.30879  1.0000
  H   H2252     1.0  0.52865  0.96777  0.99731  1.0000
  C   C1409     1.0  0.54173  0.96298  0.35488  1.0000
  H   H2253     1.0  0.51831  0.95953  0.40675  1.0000
  C   C1410     1.0  0.51786  0.93253  0.11118  1.0000
  C   C1411     1.0  0.52845  0.95522  0.85037  1.0000
  Fe  Fe282     1.0  0.51812  0.94257  0.27888  1.0000
  N   N142      1.0  0.51846  0.91377  0.79635  1.0000
  C   C1412     1.0  0.51333  0.99397  0.37302  1.0000
  H   H2254     1.0  0.53368  0.91788  0.75906  1.0000
  S   S563      1.0  0.51198  0.94605  0.22617  1.0000
  H   H2255     1.0  0.52528  0.00470  0.37433  1.0000
  H   H2256     1.0  0.51551  0.90137  0.77452  1.0000
  C   C1413     1.0  0.52000  0.97538  0.43225  1.0000
  C   C1414     1.0  0.51733  0.90314  0.80074  1.0000
  H   H2257     1.0  0.52504  0.91860  0.73090  1.0000
  H   H2258     1.0  0.53846  0.95550  0.94860  1.0000
  H   H2259     1.0  0.55380  0.96549  0.95039  1.0000
  H   H2260     1.0  0.52767  0.95089  0.99329  1.0000
  S   S564      1.0  0.51026  0.90389  0.32541  1.0000
  H   H2261     1.0  0.52521  0.99604  0.76951  1.0000
  C   C1415     1.0  0.52074  0.91572  0.83208  1.0000
  H   H2262     1.0  0.51124  0.89841  0.82903  1.0000
  H   H2263     1.0  0.52890  0.00582  0.53666  1.0000
  C   C1416     1.0  0.53684  0.96923  0.98727  1.0000
  H   H2264     1.0  0.55438  0.96781  0.99695  1.0000
  H   H2265     1.0  0.50979  0.92449  0.79013  1.0000
  H   H2266     1.0  0.51871  0.97690  0.40210  1.0000
  C   C1417     1.0  0.51568  0.92699  0.05405  1.0000
  H   H2267     1.0  0.51880  0.92515  0.02670  1.0000
  Fe  Fe283     1.0  0.51005  0.93282  0.89439  1.0000
  H   H2268     1.0  0.52780  0.91396  0.83438  1.0000
  S   S565      1.0  0.51048  0.91806  0.93436  1.0000
  H   H2269     1.0  0.52811  0.97702  0.42620  1.0000
  C   C1418     1.0  0.55097  0.96232  0.98446  1.0000
  C   C1419     1.0  0.53589  0.95271  0.98271  1.0000
  H   H2270     1.0  0.51570  0.95037  0.45564  1.0000
  H   H2271     1.0  0.52766  0.92784  0.75474  1.0000
  H   H2272     1.0  0.53215  0.99198  0.60933  1.0000
  C   C1420     1.0  0.52007  0.99859  0.75487  1.0000
  H   H2273     1.0  0.52417  0.90079  0.80277  1.0000
  C   C1421     1.0  0.52657  0.91978  0.75854  1.0000
  C   C1422     1.0  0.51929  0.95827  0.43750  1.0000
  H   H2274     1.0  0.50736  0.91244  0.17678  1.0000
  H   H2275     1.0  0.52132  0.99038  0.59409  1.0000
  C   C1423     1.0  0.50572  0.00455  0.72202  1.0000
  H   H2276     1.0  0.52653  0.00569  0.65891  1.0000
  C   C1424     1.0  0.51693  0.96338  0.49795  1.0000
  H   H2277     1.0  0.51393  0.96841  0.51412  1.0000
  C   C1425     1.0  0.50714  0.99506  0.72541  1.0000
  H   H2278     1.0  0.51243  0.00374  0.58631  1.0000
  S   S566      1.0  0.54432  0.00561  0.37586  1.0000
  C   C1426     1.0  0.50543  0.92509  0.07080  1.0000
  S   S567      1.0  0.50533  0.92228  0.24027  1.0000
  S   S568      1.0  0.51960  0.00641  0.45518  1.0000
  H   H2279     1.0  0.50521  0.88273  0.34176  1.0000
  H   H2280     1.0  0.50447  0.93264  0.15477  1.0000
  S   S569      1.0  0.50471  0.93026  0.31983  1.0000
  C   C1427     1.0  0.50444  0.96320  0.46424  1.0000
  C   C1428     1.0  0.51625  0.00680  0.60547  1.0000
  S   S570      1.0  0.78055  0.33320  0.22152  1.0000
  Fe  Fe284     1.0  0.76458  0.32811  0.25854  1.0000
  H   H2281     1.0  0.99011  0.49706  0.45450  1.0000
  Fe  Fe285     1.0  0.78239  0.38152  0.32918  1.0000
  S   S571      1.0  0.79811  0.39045  0.30275  1.0000
  S   S572      1.0  0.77945  0.36491  0.35419  1.0000
  Fe  Fe286     1.0  0.77404  0.39956  0.31476  1.0000
  S   S573      1.0  0.78918  0.41020  0.28752  1.0000
  Fe  Fe287     1.0  0.79299  0.39933  0.25411  1.0000
  S   S574      1.0  0.80089  0.40326  0.18631  1.0000
  Fe  Fe288     1.0  0.79326  0.40053  0.33870  1.0000
  S   S575      1.0  0.80138  0.40334  0.38402  1.0000
  S   S576      1.0  0.77771  0.38957  0.27775  1.0000
  S   S577      1.0  0.77767  0.39079  0.36861  1.0000
  Fe  Fe289     1.0  0.78472  0.39666  0.95516  1.0000
  S   S578      1.0  0.77368  0.38763  0.93594  1.0000
  S   S579      1.0  0.79621  0.40866  0.90087  1.0000
  Fe  Fe290     1.0  0.77528  0.38419  0.04503  1.0000
  S   S580      1.0  0.76333  0.37455  0.03281  1.0000
  S   S581      1.0  0.77503  0.37868  0.11052  1.0000
  Fe  Fe291     1.0  0.77561  0.37447  0.97984  1.0000
  S   S582      1.0  0.77873  0.36031  0.97150  1.0000
  Fe  Fe292     1.0  0.76233  0.38856  0.99050  1.0000
  H   H2282     1.0  0.93073  0.41336  0.39124  1.0000
  S   S583      1.0  0.78764  0.38331  0.99431  1.0000
  S   S584      1.0  0.77326  0.39841  0.00749  1.0000
  Fe  Fe293     1.0  0.77387  0.30818  0.88581  1.0000
  S   S585      1.0  0.77257  0.31634  0.93158  1.0000
  S   S586      1.0  0.78759  0.31434  0.82893  1.0000
  C   C1429     1.0  0.77752  0.31949  0.09734  1.0000
  H   H2283     1.0  0.92763  0.49889  0.08257  1.0000
  C   C1430     1.0  0.00380  0.49330  0.58794  1.0000
  H   H2284     1.0  0.78633  0.36518  0.24358  1.0000
  H   H2285     1.0  0.88658  0.47645  0.48402  1.0000
  H   H2286     1.0  0.77469  0.34325  0.14624  1.0000
  Fe  Fe294     1.0  0.92047  0.42372  0.25467  1.0000
  S   S587      1.0  0.92166  0.41279  0.30951  1.0000
  S   S588      1.0  0.91609  0.43766  0.25894  1.0000
  Fe  Fe295     1.0  0.92558  0.41147  0.19845  1.0000
  S   S589      1.0  0.92758  0.39952  0.24864  1.0000
  S   S590      1.0  0.92473  0.41378  0.13390  1.0000
  Fe  Fe296     1.0  0.91362  0.40132  0.28914  1.0000
  S   S591      1.0  0.90150  0.38795  0.33385  1.0000
  Fe  Fe297     1.0  0.93556  0.41203  0.26541  1.0000
  S   S592      1.0  0.94893  0.41142  0.28829  1.0000
  S   S593      1.0  0.91119  0.41243  0.23839  1.0000
  S   S594      1.0  0.93477  0.42374  0.21140  1.0000
  Fe  Fe298     1.0  0.94420  0.47697  0.31015  1.0000
  S   S595      1.0  0.94174  0.48169  0.36628  1.0000
  S   S596      1.0  0.94839  0.46297  0.30586  1.0000
  Fe  Fe299     1.0  0.94120  0.49559  0.25672  1.0000
  C   C1431     1.0  0.94321  0.38202  0.94899  1.0000
  S   S597      1.0  0.95241  0.50434  0.89483  1.0000
  Fe  Fe300     1.0  0.95148  0.49647  0.32319  1.0000
  H   H2287     1.0  0.78228  0.41889  0.84616  1.0000
  Fe  Fe301     1.0  0.92928  0.48691  0.34720  1.0000
  S   S598      1.0  0.91353  0.48426  0.38780  1.0000
  S   S599      1.0  0.95461  0.49125  0.26784  1.0000
  S   S600      1.0  0.93105  0.48086  0.29476  1.0000
  Fe  Fe302     1.0  0.82482  0.35222  0.40774  1.0000
  S   S601      1.0  0.82197  0.35131  0.47417  1.0000
  S   S602      1.0  0.81077  0.34614  0.39433  1.0000
  Fe  Fe303     1.0  0.84509  0.36740  0.38200  1.0000
  S   S603      1.0  0.84341  0.36765  0.44581  1.0000
  S   S604      1.0  0.85732  0.37944  0.33049  1.0000
  Fe  Fe304     1.0  0.83786  0.35119  0.46418  1.0000
  S   S605      1.0  0.84285  0.34180  0.51301  1.0000
  Fe  Fe305     1.0  0.82773  0.36772  0.45067  1.0000
  S   S606      1.0  0.82020  0.37817  0.47557  1.0000
  S   S607      1.0  0.84054  0.35070  0.39918  1.0000
  S   S608      1.0  0.82972  0.36886  0.38542  1.0000
  Fe  Fe306     1.0  0.84622  0.43287  0.44094  1.0000
  S   S609      1.0  0.85914  0.42621  0.42672  1.0000
  S   S610      1.0  0.83768  0.43377  0.39450  1.0000
  Fe  Fe307     1.0  0.85146  0.43703  0.51535  1.0000
  S   S611      1.0  0.86449  0.43045  0.50571  1.0000
  S   S612      1.0  0.84640  0.44229  0.57055  1.0000
  Fe  Fe308     1.0  0.86792  0.43882  0.43896  1.0000
  S   S613      1.0  0.88376  0.44549  0.39669  1.0000
  Fe  Fe309     1.0  0.85448  0.41867  0.49415  1.0000
  S   S614      1.0  0.85363  0.40248  0.51921  1.0000
  S   S615      1.0  0.85540  0.44621  0.44870  1.0000
  S   S616      1.0  0.84107  0.42461  0.50857  1.0000
  Fe  Fe310     1.0  0.92650  0.48027  0.02675  1.0000
  S   S617      1.0  0.92540  0.49208  0.97353  1.0000
  S   S618      1.0  0.92236  0.47769  0.09573  1.0000
  Fe  Fe311     1.0  0.93406  0.46847  0.97206  1.0000
  S   S619      1.0  0.93392  0.47927  0.91444  1.0000
  S   S620      1.0  0.93799  0.45395  0.97711  1.0000
  Fe  Fe312     1.0  0.94036  0.49077  0.93897  1.0000
  H   H2288     1.0  0.76308  0.33181  0.12747  1.0000
  Fe  Fe313     1.0  0.91900  0.47959  0.95265  1.0000
  S   S621      1.0  0.90609  0.47990  0.92623  1.0000
  S   S622      1.0  0.94180  0.47982  0.99345  1.0000
  S   S623      1.0  0.91883  0.46799  0.00889  1.0000
  Fe  Fe314     1.0  0.92055  0.39625  0.95234  1.0000
  S   S624      1.0  0.92253  0.39067  0.89765  1.0000
  S   S625      1.0  0.92385  0.38888  0.01042  1.0000
  Fe  Fe315     1.0  0.91523  0.41448  0.90911  1.0000
  S   S626      1.0  0.91716  0.41076  0.85101  1.0000
  S   S627      1.0  0.91045  0.42831  0.91162  1.0000
  Fe  Fe316     1.0  0.90859  0.39533  0.89157  1.0000
  S   S628      1.0  0.89383  0.38930  0.88242  1.0000
  Fe  Fe317     1.0  0.93077  0.40658  0.86139  1.0000
  S   S629      1.0  0.94530  0.41203  0.80921  1.0000
  S   S630      1.0  0.90608  0.39948  0.94985  1.0000
  S   S631      1.0  0.92951  0.41172  0.91593  1.0000
  Fe  Fe318     1.0  0.86105  0.36248  0.76718  1.0000
  S   S632      1.0  0.85988  0.37377  0.71302  1.0000
  S   S633      1.0  0.87513  0.36334  0.78594  1.0000
  Fe  Fe319     1.0  0.84014  0.34967  0.78388  1.0000
  S   S634      1.0  0.83735  0.36015  0.73167  1.0000
  S   S635      1.0  0.82914  0.33619  0.83329  1.0000
  Fe  Fe320     1.0  0.85291  0.36103  0.69583  1.0000
  S   S636      1.0  0.85786  0.36316  0.62753  1.0000
  Fe  Fe321     1.0  0.84453  0.37198  0.75253  1.0000
  S   S637      1.0  0.83898  0.38556  0.75283  1.0000
  S   S638      1.0  0.85536  0.34968  0.74668  1.0000
  S   S639      1.0  0.84600  0.36153  0.80806  1.0000
  Fe  Fe322     1.0  0.84808  0.43982  0.85168  1.0000
  S   S640      1.0  0.86108  0.45287  0.81277  1.0000
  S   S641      1.0  0.83378  0.43903  0.89861  1.0000
  Fe  Fe323     1.0  0.85942  0.42488  0.83296  1.0000
  S   S642      1.0  0.87323  0.43646  0.79381  1.0000
  S   S643      1.0  0.85936  0.40879  0.84900  1.0000
  Fe  Fe324     1.0  0.87034  0.44403  0.84203  1.0000
  S   S644      1.0  0.88150  0.44634  0.87642  1.0000
  Fe  Fe325     1.0  0.86297  0.44419  0.76743  1.0000
  S   S645      1.0  0.86790  0.44937  0.69758  1.0000
  S   S646      1.0  0.85719  0.43164  0.88293  1.0000
  S   S647      1.0  0.84929  0.43206  0.80440  1.0000
  N   N143      1.0  0.76006  0.39759  0.16975  1.0000
  C   C1432     1.0  0.77245  0.30982  0.12234  1.0000
  H   H2289     1.0  0.79647  0.36515  0.28933  1.0000
  Fe  Fe326     1.0  0.98698  0.44977  0.36078  1.0000
  C   C1433     1.0  0.84517  0.39227  0.77729  1.0000
  C   C1434     1.0  0.85187  0.38860  0.79530  1.0000
  C   C1435     1.0  0.85633  0.39378  0.81686  1.0000
  C   C1436     1.0  0.85433  0.40279  0.81930  1.0000
  C   C1437     1.0  0.84791  0.40662  0.79994  1.0000
  C   C1438     1.0  0.84325  0.40132  0.77940  1.0000
  H   H2290     1.0  0.85365  0.38178  0.79278  1.0000
  H   H2291     1.0  0.86136  0.39085  0.83146  1.0000
  H   H2292     1.0  0.84625  0.41348  0.80181  1.0000
  H   H2293     1.0  0.83807  0.40420  0.76558  1.0000
  H   H2294     1.0  0.87669  0.47860  0.46395  1.0000
  C   C1439     1.0  0.95680  0.42069  0.84811  1.0000
  H   H2295     1.0  0.95078  0.41693  0.87615  1.0000
  C   C1440     1.0  0.88900  0.38233  0.85384  1.0000
  C   C1441     1.0  0.87921  0.38186  0.85369  1.0000
  C   C1442     1.0  0.87494  0.37631  0.83233  1.0000
  C   C1443     1.0  0.88036  0.37102  0.81116  1.0000
  C   C1444     1.0  0.89012  0.37142  0.81156  1.0000
  C   C1445     1.0  0.89444  0.37709  0.83238  1.0000
  H   H2296     1.0  0.87486  0.38581  0.87026  1.0000
  H   H2297     1.0  0.86743  0.37605  0.83260  1.0000
  H   H2298     1.0  0.89440  0.36734  0.79549  1.0000
  H   H2299     1.0  0.90195  0.37732  0.83221  1.0000
  C   C1446     1.0  0.93238  0.42575  0.43476  1.0000
  C   C1447     1.0  0.97463  0.47419  0.50698  1.0000
  C   C1448     1.0  0.96071  0.38837  0.93407  1.0000
  H   H2300     1.0  0.85918  0.47050  0.50834  1.0000
  H   H2301     1.0  0.76429  0.34500  0.18154  1.0000
  C   C1449     1.0  0.97747  0.50495  0.92712  1.0000
  H   H2302     1.0  0.76547  0.29523  0.12436  1.0000
  H   H2303     1.0  0.95910  0.40119  0.86822  1.0000
  C   C1450     1.0  0.89949  0.47053  0.91170  1.0000
  C   C1451     1.0  0.90002  0.46066  0.92407  1.0000
  C   C1452     1.0  0.89453  0.45344  0.91265  1.0000
  C   C1453     1.0  0.88846  0.45594  0.88853  1.0000
  C   C1454     1.0  0.88788  0.46581  0.87627  1.0000
  C   C1455     1.0  0.89331  0.47302  0.88800  1.0000
  H   H2304     1.0  0.90457  0.45857  0.94288  1.0000
  H   H2305     1.0  0.89503  0.44584  0.92264  1.0000
  H   H2306     1.0  0.88328  0.46792  0.85767  1.0000
  H   H2307     1.0  0.89281  0.48062  0.87830  1.0000
  C   C1456     1.0  0.92960  0.44659  0.96262  1.0000
  C   C1457     1.0  0.92879  0.43640  0.97207  1.0000
  C   C1458     1.0  0.92260  0.43066  0.95776  1.0000
  C   C1459     1.0  0.91726  0.43510  0.93394  1.0000
  C   C1460     1.0  0.91784  0.44520  0.92569  1.0000
  C   C1461     1.0  0.92394  0.45094  0.94026  1.0000
  H   H2308     1.0  0.93305  0.43297  0.98987  1.0000
  H   H2309     1.0  0.92196  0.42282  0.96515  1.0000
  H   H2310     1.0  0.91381  0.44867  0.90687  1.0000
  H   H2311     1.0  0.92443  0.45877  0.93318  1.0000
  C   C1462     1.0  0.85160  0.44210  0.61063  1.0000
  C   C1463     1.0  0.84709  0.44564  0.64208  1.0000
  C   C1464     1.0  0.85162  0.44698  0.67141  1.0000
  C   C1465     1.0  0.86078  0.44487  0.66947  1.0000
  C   C1466     1.0  0.86509  0.44089  0.63911  1.0000
  C   C1467     1.0  0.86047  0.43937  0.61013  1.0000
  H   H2312     1.0  0.84023  0.44774  0.64287  1.0000
  H   H2313     1.0  0.84829  0.45022  0.69408  1.0000
  H   H2314     1.0  0.87226  0.43939  0.63693  1.0000
  H   H2315     1.0  0.86404  0.43663  0.58616  1.0000
  C   C1468     1.0  0.84596  0.34708  0.54893  1.0000
  C   C1469     1.0  0.85260  0.34363  0.56797  1.0000
  C   C1470     1.0  0.85563  0.34805  0.59497  1.0000
  C   C1471     1.0  0.85188  0.35584  0.60394  1.0000
  C   C1472     1.0  0.84493  0.35905  0.58609  1.0000
  C   C1473     1.0  0.84197  0.35467  0.55871  1.0000
  H   H2316     1.0  0.85573  0.33776  0.56056  1.0000
  H   H2317     1.0  0.86123  0.34572  0.60748  1.0000
  H   H2318     1.0  0.84213  0.36520  0.59217  1.0000
  H   H2319     1.0  0.83669  0.35721  0.54471  1.0000
  C   C1474     1.0  0.82815  0.38458  0.49496  1.0000
  C   C1475     1.0  0.83413  0.37979  0.51397  1.0000
  C   C1476     1.0  0.84162  0.38526  0.52349  1.0000
  C   C1477     1.0  0.84342  0.39557  0.51228  1.0000
  C   C1478     1.0  0.83727  0.40031  0.49409  1.0000
  C   C1479     1.0  0.82943  0.39478  0.48676  1.0000
  H   H2320     1.0  0.83297  0.37188  0.52118  1.0000
  H   H2321     1.0  0.84616  0.38153  0.53856  1.0000
  H   H2322     1.0  0.83865  0.40825  0.48454  1.0000
  H   H2323     1.0  0.82472  0.39847  0.47262  1.0000
  S   S648      1.0  0.99550  0.44260  0.40031  1.0000
  H   H2324     1.0  0.79264  0.35194  0.30462  1.0000
  H   H2325     1.0  0.76307  0.32712  0.97947  1.0000
  N   N144      1.0  0.82269  0.32809  0.66323  1.0000
  H   H2326     1.0  0.85670  0.46261  0.55948  1.0000
  H   H2327     1.0  0.90269  0.40212  0.17132  1.0000
  C   C1480     1.0  0.95273  0.39461  0.88473  1.0000
  H   H2328     1.0  0.80918  0.34973  0.23589  1.0000
  C   C1481     1.0  0.86824  0.37917  0.52154  1.0000
  C   C1482     1.0  0.93586  0.49586  0.16559  1.0000
  C   C1483     1.0  0.77026  0.35062  0.07820  1.0000
  H   H2329     1.0  0.97164  0.48624  0.44233  1.0000
  C   C1484     1.0  0.92841  0.48490  0.11978  1.0000
  C   C1485     1.0  0.93069  0.48011  0.15466  1.0000
  C   C1486     1.0  0.93448  0.48556  0.17723  1.0000
  C   C1487     1.0  0.99717  0.45278  0.59952  1.0000
  H   H2330     1.0  0.97293  0.46704  0.50056  1.0000
  H   H2331     1.0  0.92949  0.47214  0.16436  1.0000
  H   H2332     1.0  0.93633  0.48180  0.20366  1.0000
  C   C1488     1.0  0.90520  0.47340  0.39116  1.0000
  C   C1489     1.0  0.89500  0.47264  0.40312  1.0000
  C   C1490     1.0  0.88828  0.46402  0.40606  1.0000
  C   C1491     1.0  0.89175  0.45610  0.39705  1.0000
  C   C1492     1.0  0.90195  0.45691  0.38478  1.0000
  C   C1493     1.0  0.90863  0.46549  0.38209  1.0000
  H   H2333     1.0  0.89235  0.47887  0.40897  1.0000
  H   H2334     1.0  0.88048  0.46363  0.41375  1.0000
  H   H2335     1.0  0.90469  0.45083  0.37769  1.0000
  H   H2336     1.0  0.91645  0.46594  0.37356  1.0000
  C   C1494     1.0  0.95675  0.42088  0.29783  1.0000
  H   H2337     1.0  0.99405  0.47640  0.48829  1.0000
  H   H2338     1.0  0.93432  0.45267  0.85465  1.0000
  H   H2339     1.0  0.96280  0.44578  0.28175  1.0000
  H   H2340     1.0  0.85364  0.40539  0.68912  1.0000
  C   C1495     1.0  0.92471  0.40657  0.10055  1.0000
  C   C1496     1.0  0.92750  0.39759  0.10701  1.0000
  C   C1497     1.0  0.92721  0.39217  0.07936  1.0000
  C   C1498     1.0  0.92414  0.39569  0.04513  1.0000
  C   C1499     1.0  0.92133  0.40462  0.03895  1.0000
  C   C1500     1.0  0.92166  0.41004  0.06632  1.0000
  H   H2341     1.0  0.92998  0.39488  0.13295  1.0000
  H   H2342     1.0  0.92942  0.38526  0.08436  1.0000
  H   H2343     1.0  0.91882  0.40731  0.01315  1.0000
  H   H2344     1.0  0.91950  0.41697  0.06087  1.0000
  C   C1501     1.0  0.88911  0.38595  0.33410  1.0000
  C   C1502     1.0  0.88581  0.39316  0.31023  1.0000
  C   C1503     1.0  0.87602  0.39110  0.30955  1.0000
  C   C1504     1.0  0.86940  0.38191  0.33354  1.0000
  C   C1505     1.0  0.87262  0.37481  0.35836  1.0000
  C   C1506     1.0  0.88247  0.37680  0.35832  1.0000
  H   H2345     1.0  0.89079  0.40030  0.29218  1.0000
  H   H2346     1.0  0.87357  0.39664  0.29043  1.0000
  H   H2347     1.0  0.86761  0.36768  0.37661  1.0000
  H   H2348     1.0  0.88499  0.37115  0.37665  1.0000
  C   C1507     1.0  0.92511  0.44481  0.27126  1.0000
  C   C1508     1.0  0.93507  0.44508  0.25509  1.0000
  C   C1509     1.0  0.94224  0.45073  0.26553  1.0000
  C   C1510     1.0  0.93944  0.45606  0.29233  1.0000
  C   C1511     1.0  0.92947  0.45567  0.30900  1.0000
  C   C1512     1.0  0.92231  0.45005  0.29846  1.0000
  H   H2349     1.0  0.93732  0.44109  0.23401  1.0000
  H   H2350     1.0  0.94995  0.45104  0.25250  1.0000
  H   H2351     1.0  0.92727  0.45949  0.33086  1.0000
  H   H2352     1.0  0.91459  0.44954  0.31219  1.0000
  C   C1513     1.0  0.79903  0.32054  0.83068  1.0000
  C   C1514     1.0  0.80118  0.31911  0.86744  1.0000
  C   C1515     1.0  0.81043  0.32397  0.86766  1.0000
  C   C1516     1.0  0.81755  0.33044  0.83132  1.0000
  C   C1517     1.0  0.81535  0.33202  0.79457  1.0000
  C   C1518     1.0  0.80615  0.32703  0.79426  1.0000
  H   H2353     1.0  0.79580  0.31409  0.89564  1.0000
  H   H2354     1.0  0.81207  0.32264  0.89622  1.0000
  H   H2355     1.0  0.82077  0.33701  0.76648  1.0000
  H   H2356     1.0  0.80447  0.32825  0.76585  1.0000
  C   C1519     1.0  0.80648  0.41705  0.90187  1.0000
  C   C1520     1.0  0.81384  0.42255  0.86459  1.0000
  C   C1521     1.0  0.82227  0.42915  0.86357  1.0000
  C   C1522     1.0  0.82331  0.43053  0.89977  1.0000
  C   C1523     1.0  0.81588  0.42513  0.93713  1.0000
  C   C1524     1.0  0.80755  0.41829  0.93828  1.0000
  H   H2357     1.0  0.81306  0.42170  0.83623  1.0000
  H   H2358     1.0  0.82785  0.43336  0.83457  1.0000
  H   H2359     1.0  0.81660  0.42619  0.96527  1.0000
  H   H2360     1.0  0.80190  0.41413  0.96719  1.0000
  C   C1525     1.0  0.76927  0.35178  0.96708  1.0000
  S   S649      1.0  0.75656  0.33958  0.27089  1.0000
  C   C1526     1.0  0.96463  0.50562  0.40616  1.0000
  H   H2361     1.0  0.95693  0.50180  0.41542  1.0000
  C   C1527     1.0  0.76311  0.33487  0.96945  1.0000
  C   C1528     1.0  0.76902  0.34171  0.98045  1.0000
  C   C1529     1.0  0.75719  0.34807  0.93361  1.0000
  H   H2362     1.0  0.88995  0.39582  0.18397  1.0000
  H   H2363     1.0  0.77324  0.35552  0.14281  1.0000
  H   H2364     1.0  0.77374  0.33922  0.99792  1.0000
  H   H2365     1.0  0.91032  0.38010  0.22092  1.0000
  H   H2366     1.0  0.93064  0.43194  0.44628  1.0000
  H   H2367     1.0  0.80549  0.35791  0.28802  1.0000
  H   H2368     1.0  0.90646  0.38888  0.24511  1.0000
  H   H2369     1.0  0.99910  0.48839  0.61917  1.0000
  C   C1530     1.0  0.81149  0.41199  0.38588  1.0000
  C   C1531     1.0  0.81711  0.42035  0.35255  1.0000
  C   C1532     1.0  0.82503  0.42693  0.35585  1.0000
  C   C1533     1.0  0.82752  0.42524  0.39230  1.0000
  C   C1534     1.0  0.82198  0.41683  0.42542  1.0000
  C   C1535     1.0  0.81403  0.41027  0.42221  1.0000
  H   H2370     1.0  0.81528  0.42182  0.32442  1.0000
  H   H2371     1.0  0.82923  0.43343  0.33001  1.0000
  H   H2372     1.0  0.82369  0.41548  0.45381  1.0000
  H   H2373     1.0  0.80975  0.40385  0.44830  1.0000
  C   C1536     1.0  0.79477  0.39598  0.16311  1.0000
  C   C1537     1.0  0.79536  0.39986  0.12194  1.0000
  C   C1538     1.0  0.78969  0.39442  0.10455  1.0000
  C   C1539     1.0  0.78341  0.38511  0.12847  1.0000
  C   C1540     1.0  0.78319  0.38106  0.16897  1.0000
  C   C1541     1.0  0.78893  0.38644  0.18606  1.0000
  H   H2374     1.0  0.79995  0.40720  0.10393  1.0000
  H   H2375     1.0  0.78992  0.39757  0.07319  1.0000
  H   H2376     1.0  0.77836  0.37386  0.18757  1.0000
  H   H2377     1.0  0.78873  0.38326  0.21725  1.0000
  C   C1542     1.0  0.80025  0.32888  0.31408  1.0000
  C   C1543     1.0  0.81023  0.33083  0.31230  1.0000
  C   C1544     1.0  0.81363  0.33614  0.33630  1.0000
  C   C1545     1.0  0.80704  0.33950  0.36277  1.0000
  C   C1546     1.0  0.79707  0.33759  0.36439  1.0000
  C   C1547     1.0  0.79370  0.33237  0.34012  1.0000
  C   C1548     1.0  0.95689  0.43089  0.28314  1.0000
  H   H2378     1.0  0.82131  0.33750  0.33474  1.0000
  H   H2379     1.0  0.79188  0.34011  0.38484  1.0000
  H   H2380     1.0  0.78599  0.33089  0.34206  1.0000
  C   C1549     1.0  0.82820  0.32650  0.62519  1.0000
  Fe  Fe327     1.0  0.76543  0.30149  0.97892  1.0000
  H   H2381     1.0  0.94366  0.41837  0.38153  1.0000
  C   C1550     1.0  0.94840  0.50497  0.00789  1.0000
  C   C1551     1.0  0.76226  0.34645  0.29643  1.0000
  C   C1552     1.0  0.76195  0.35636  0.29058  1.0000
  C   C1553     1.0  0.76706  0.36207  0.30878  1.0000
  C   C1554     1.0  0.77234  0.35783  0.33341  1.0000
  C   C1555     1.0  0.77230  0.34781  0.34053  1.0000
  C   C1556     1.0  0.76740  0.34217  0.32160  1.0000
  H   H2382     1.0  0.76380  0.39736  0.22454  1.0000
  H   H2383     1.0  0.76681  0.36970  0.30400  1.0000
  H   H2384     1.0  0.77623  0.34444  0.36008  1.0000
  H   H2385     1.0  0.76762  0.33451  0.32653  1.0000
  H   H2386     1.0  0.87870  0.48375  0.50281  1.0000
  H   H2387     1.0  0.86995  0.38693  0.52208  1.0000
  N   N145      1.0  0.79871  0.36967  0.41963  1.0000
  C   C1557     1.0  0.80541  0.37947  0.40993  1.0000
  C   C1558     1.0  0.80032  0.36246  0.45362  1.0000
  C   C1559     1.0  0.80076  0.36635  0.38312  1.0000
  C   C1560     1.0  0.78838  0.37043  0.43171  1.0000
  H   H2388     1.0  0.81323  0.37908  0.40284  1.0000
  H   H2389     1.0  0.80377  0.38249  0.43603  1.0000
  H   H2390     1.0  0.80475  0.38494  0.38300  1.0000
  H   H2391     1.0  0.79533  0.35499  0.46192  1.0000
  H   H2392     1.0  0.80799  0.36160  0.44500  1.0000
  H   H2393     1.0  0.79913  0.36487  0.48138  1.0000
  H   H2394     1.0  0.79598  0.35886  0.38959  1.0000
  H   H2395     1.0  0.80855  0.36593  0.37259  1.0000
  H   H2396     1.0  0.79937  0.37147  0.35722  1.0000
  H   H2397     1.0  0.78701  0.37595  0.40687  1.0000
  H   H2398     1.0  0.78654  0.37281  0.45946  1.0000
  H   H2399     1.0  0.78311  0.36323  0.43809  1.0000
  H   H2400     1.0  0.94454  0.37589  0.93642  1.0000
  Fe  Fe328     1.0  0.77661  0.32298  0.18725  1.0000
  H   H2401     1.0  0.78540  0.33231  0.84745  1.0000
  C   C1561     1.0  0.80196  0.35026  0.23126  1.0000
  N   N146      1.0  0.85608  0.45261  0.95290  1.0000
  C   C1562     1.0  0.86426  0.45730  0.96472  1.0000
  C   C1563     1.0  0.85818  0.45677  0.90822  1.0000
  H   H2402     1.0  0.84723  0.46261  0.96673  1.0000
  H   H2403     1.0  0.86548  0.46550  0.95540  1.0000
  H   H2404     1.0  0.86283  0.45452  0.99837  1.0000
  H   H2405     1.0  0.85214  0.45336  0.89833  1.0000
  H   H2406     1.0  0.86516  0.45544  0.89100  1.0000
  H   H2407     1.0  0.85898  0.46491  0.89852  1.0000
  C   C1564     1.0  0.90796  0.38716  0.21572  1.0000
  H   H2408     1.0  0.94619  0.46094  0.82582  1.0000
  H   H2409     1.0  0.80254  0.35037  0.19942  1.0000
  H   H2410     1.0  0.84673  0.42034  0.60348  1.0000
  H   H2411     1.0  0.88404  0.38249  0.42725  1.0000
  H   H2412     1.0  0.98201  0.49815  0.76528  1.0000
  S   S650      1.0  0.96598  0.50480  0.32728  1.0000
  H   H2413     1.0  0.95150  0.50257  0.98112  1.0000
  S   S651      1.0  0.76796  0.29304  0.93391  1.0000
  C   C1565     1.0  0.76916  0.34774  0.14911  1.0000
  H   H2414     1.0  0.95398  0.38887  0.86964  1.0000
  C   C1566     1.0  0.99105  0.45100  0.57589  1.0000
  H   H2415     1.0  0.76028  0.36124  0.11828  1.0000
  H   H2416     1.0  0.75679  0.38357  0.31690  1.0000
  Fe  Fe329     1.0  0.75741  0.31616  0.92727  1.0000
  H   H2417     1.0  0.90751  0.47818  0.19803  1.0000
  H   H2418     1.0  0.75840  0.40344  0.85079  1.0000
  H   H2419     1.0  0.89960  0.48019  0.26573  1.0000
  S   S652      1.0  0.98706  0.45043  0.50506  1.0000
  H   H2420     1.0  0.99405  0.45085  0.63242  1.0000
  C   C1567     1.0  0.75755  0.33810  0.94435  1.0000
  H   H2421     1.0  0.89471  0.39810  0.22332  1.0000
  N   N147      1.0  0.92722  0.44419  0.10458  1.0000
  C   C1568     1.0  0.92321  0.44022  0.14976  1.0000
  C   C1569     1.0  0.92847  0.45503  0.09119  1.0000
  C   C1570     1.0  0.92032  0.43957  0.08672  1.0000
  C   C1571     1.0  0.93689  0.44195  0.09054  1.0000
  H   H2422     1.0  0.92830  0.44339  0.16439  1.0000
  H   H2423     1.0  0.92200  0.43202  0.16071  1.0000
  H   H2424     1.0  0.91601  0.44194  0.16157  1.0000
  H   H2425     1.0  0.93172  0.45827  0.05730  1.0000
  H   H2426     1.0  0.92129  0.45700  0.10016  1.0000
  H   H2427     1.0  0.93343  0.45879  0.10485  1.0000
  H   H2428     1.0  0.91930  0.43139  0.09569  1.0000
  H   H2429     1.0  0.92309  0.44244  0.05268  1.0000
  H   H2430     1.0  0.91294  0.44107  0.09673  1.0000
  H   H2431     1.0  0.93623  0.43383  0.10017  1.0000
  H   H2432     1.0  0.94230  0.44537  0.10322  1.0000
  H   H2433     1.0  0.94007  0.44475  0.05652  1.0000
  N   N148      1.0  0.78966  0.34519  0.86465  1.0000
  C   C1572     1.0  0.79009  0.33928  0.90447  1.0000
  C   C1573     1.0  0.78295  0.33906  0.85048  1.0000
  C   C1574     1.0  0.79966  0.34855  0.83444  1.0000
  C   C1575     1.0  0.78591  0.35389  0.86928  1.0000
  H   H2434     1.0  0.79486  0.34372  0.91675  1.0000
  H   H2435     1.0  0.79302  0.33273  0.90196  1.0000
  H   H2436     1.0  0.78266  0.33642  0.92776  1.0000
  H   H2437     1.0  0.90732  0.38993  0.13811  1.0000
  C   C1576     1.0  0.82659  0.33833  0.66200  1.0000
  C   C1577     1.0  0.93686  0.42017  0.37581  1.0000
  H   H2438     1.0  0.79964  0.35289  0.80375  1.0000
  H   H2439     1.0  0.80270  0.34214  0.83082  1.0000
  H   H2440     1.0  0.80487  0.35325  0.84413  1.0000
  H   H2441     1.0  0.78604  0.35884  0.83940  1.0000
  H   H2442     1.0  0.79025  0.35831  0.88312  1.0000
  H   H2443     1.0  0.77813  0.35155  0.88960  1.0000
  N   N149      1.0  0.82339  0.39571  0.90350  1.0000
  C   C1578     1.0  0.82975  0.40487  0.90331  1.0000
  C   C1579     1.0  0.81476  0.39202  0.94115  1.0000
  C   C1580     1.0  0.82909  0.38813  0.90218  1.0000
  C   C1581     1.0  0.81995  0.39783  0.86736  1.0000
  H   H2444     1.0  0.83634  0.40790  0.87536  1.0000
  H   H2445     1.0  0.83249  0.40355  0.93011  1.0000
  H   H2446     1.0  0.82570  0.41075  0.90425  1.0000
  H   H2447     1.0  0.81703  0.39037  0.96917  1.0000
  H   H2448     1.0  0.81028  0.39757  0.94286  1.0000
  H   H2449     1.0  0.80979  0.38512  0.94230  1.0000
  H   H2450     1.0  0.83197  0.38648  0.92858  1.0000
  H   H2451     1.0  0.83556  0.39064  0.87379  1.0000
  H   H2452     1.0  0.82451  0.38107  0.90273  1.0000
  H   H2453     1.0  0.81540  0.39101  0.86583  1.0000
  H   H2454     1.0  0.82624  0.40099  0.83841  1.0000
  H   H2455     1.0  0.81533  0.40325  0.86805  1.0000
  N   N150      1.0  0.85690  0.34086  0.88845  1.0000
  C   C1582     1.0  0.85564  0.33898  0.85103  1.0000
  C   C1583     1.0  0.85446  0.35031  0.89041  1.0000
  C   C1584     1.0  0.86725  0.34147  0.88743  1.0000
  C   C1585     1.0  0.85022  0.33269  0.92480  1.0000
  H   H2456     1.0  0.86073  0.34488  0.82300  1.0000
  H   H2457     1.0  0.84798  0.33873  0.85017  1.0000
  H   H2458     1.0  0.85722  0.33182  0.84885  1.0000
  H   H2459     1.0  0.85548  0.35206  0.91788  1.0000
  H   H2460     1.0  0.85928  0.35660  0.86310  1.0000
  H   H2461     1.0  0.84667  0.35009  0.89151  1.0000
  H   H2462     1.0  0.86849  0.34290  0.91515  1.0000
  H   H2463     1.0  0.87245  0.34762  0.86034  1.0000
  H   H2464     1.0  0.86940  0.33452  0.88547  1.0000
  H   H2465     1.0  0.85086  0.33389  0.95370  1.0000
  H   H2466     1.0  0.85189  0.32545  0.92445  1.0000
  N   N151      1.0  0.90344  0.46697  0.25680  1.0000
  C   C1586     1.0  0.89679  0.47199  0.27852  1.0000
  C   C1587     1.0  0.89941  0.45612  0.27489  1.0000
  H   H2467     1.0  0.91856  0.46616  0.24474  1.0000
  C   C1588     1.0  0.92984  0.49519  0.10802  1.0000
  H   H2468     1.0  0.91295  0.46743  0.29378  1.0000
  H   H2469     1.0  0.89609  0.46984  0.31170  1.0000
  H   H2470     1.0  0.88924  0.47002  0.27637  1.0000
  C   C1589     1.0  0.99501  0.45316  0.53327  1.0000
  H   H2471     1.0  0.89859  0.45355  0.30815  1.0000
  H   H2472     1.0  0.89198  0.45375  0.27213  1.0000
  C   C1590     1.0  0.75798  0.33675  0.13042  1.0000
  C   C1591     1.0  0.90430  0.47005  0.21285  1.0000
  Fe  Fe330     1.0  0.99677  0.47050  0.35914  1.0000
  H   H2473     1.0  0.97779  0.49407  0.48858  1.0000
  C   C1592     1.0  0.77628  0.41239  0.85072  1.0000
  C   C1593     1.0  0.76301  0.35493  0.94522  1.0000
  N   N152      1.0  0.84286  0.40243  0.36206  1.0000
  C   C1594     1.0  0.83205  0.39910  0.37208  1.0000
  C   C1595     1.0  0.84642  0.39486  0.38723  1.0000
  C   C1596     1.0  0.84532  0.41188  0.37052  1.0000
  C   C1597     1.0  0.84767  0.40386  0.31828  1.0000
  H   H2474     1.0  0.82992  0.39206  0.36559  1.0000
  H   H2475     1.0  0.82908  0.40474  0.35426  1.0000
  H   H2476     1.0  0.82817  0.39775  0.40503  1.0000
  H   H2477     1.0  0.85461  0.39687  0.37882  1.0000
  H   H2478     1.0  0.84336  0.39391  0.42030  1.0000
  H   H2479     1.0  0.84421  0.38753  0.38322  1.0000
  H   H2480     1.0  0.84297  0.41784  0.35126  1.0000
  H   H2481     1.0  0.85338  0.41451  0.36450  1.0000
  H   H2482     1.0  0.84154  0.41114  0.40304  1.0000
  H   H2483     1.0  0.85582  0.40652  0.30948  1.0000
  H   H2484     1.0  0.84501  0.40938  0.29830  1.0000
  H   H2485     1.0  0.84614  0.39678  0.31127  1.0000
  C   C1598     1.0  0.99128  0.47824  0.46163  1.0000
  C   C1599     1.0  0.98393  0.50412  0.73551  1.0000
  C   C1600     1.0  0.78919  0.35912  0.23449  1.0000
  H   H2486     1.0  0.86160  0.40866  0.57773  1.0000
  N   N153      1.0  0.79896  0.35901  0.23971  1.0000
  C   C1601     1.0  0.94312  0.43724  0.36991  1.0000
  H   H2487     1.0  0.97863  0.43442  0.74761  1.0000
  H   H2488     1.0  0.93624  0.38365  0.94465  1.0000
  C   C1602     1.0  0.80627  0.36816  0.21105  1.0000
  H   H2489     1.0  0.77706  0.31712  0.00515  1.0000
  H   H2490     1.0  0.94169  0.44376  0.37946  1.0000
  H   H2491     1.0  0.92413  0.43755  0.38781  1.0000
  C   C1603     1.0  0.75639  0.35339  0.12489  1.0000
  H   H2492     1.0  0.76860  0.40725  0.93241  1.0000
  C   C1604     1.0  0.77568  0.31507  0.03778  1.0000
  H   H2493     1.0  0.96005  0.38552  0.96706  1.0000
  H   H2494     1.0  0.93558  0.43786  0.80747  1.0000
  H   H2495     1.0  0.81974  0.32198  0.72826  1.0000
  S   S653      1.0  0.79642  0.32215  0.28302  1.0000
  H   H2496     1.0  0.91433  0.39311  0.19281  1.0000
  N   N154      1.0  0.87211  0.46807  0.52439  1.0000
  C   C1605     1.0  0.87240  0.45955  0.50876  1.0000
  C   C1606     1.0  0.87531  0.46630  0.56119  1.0000
  C   C1607     1.0  0.86192  0.46931  0.53518  1.0000
  C   C1608     1.0  0.87881  0.47712  0.49239  1.0000
  H   H2497     1.0  0.86972  0.46051  0.48180  1.0000
  H   H2498     1.0  0.86756  0.45257  0.53222  1.0000
  H   H2499     1.0  0.88000  0.45847  0.49945  1.0000
  H   H2500     1.0  0.87016  0.45981  0.58663  1.0000
  H   H2501     1.0  0.88279  0.46485  0.55484  1.0000
  H   H2502     1.0  0.87553  0.47274  0.57294  1.0000
  H   H2503     1.0  0.86140  0.47570  0.54694  1.0000
  C   C1609     1.0  0.84675  0.45453  0.97439  1.0000
  H   H2504     1.0  0.93881  0.42384  0.44375  1.0000
  H   H2505     1.0  0.84047  0.45111  0.96568  1.0000
  H   H2506     1.0  0.83621  0.32762  0.62148  1.0000
  H   H2507     1.0  0.87217  0.37488  0.54004  1.0000
  H   H2508     1.0  0.86024  0.37595  0.53793  1.0000
  H   H2509     1.0  0.84236  0.33198  0.92597  1.0000
  N   N155      1.0  0.97893  0.47859  0.26689  1.0000
  H   H2510     1.0  0.77457  0.35842  0.06960  1.0000
  H   H2511     1.0  0.86200  0.44011  0.94792  1.0000
  H   H2512     1.0  0.88914  0.38011  0.26341  1.0000
  H   H2513     1.0  0.87133  0.45570  0.94985  1.0000
  H   H2514     1.0  0.95989  0.45440  0.79171  1.0000
  S   S654      1.0  0.78196  0.32836  0.11838  1.0000
  C   C1610     1.0  0.85510  0.44181  0.96405  1.0000
  H   H2515     1.0  0.88413  0.39046  0.45831  1.0000
  C   C1611     1.0  0.95601  0.41961  0.81114  1.0000
  C   C1612     1.0  0.76920  0.30274  0.10495  1.0000
  N   N156      1.0  0.76656  0.41316  0.87431  1.0000
  C   C1613     1.0  0.96806  0.50155  0.92430  1.0000
  H   H2516     1.0  0.90104  0.42583  0.83940  1.0000
  H   H2517     1.0  0.90430  0.45207  0.25970  1.0000
  H   H2518     1.0  0.84485  0.45140  0.00823  1.0000
  H   H2519     1.0  0.84894  0.43804  0.95572  1.0000
  H   H2520     1.0  0.92732  0.43295  0.34530  1.0000
  H   H2521     1.0  0.86777  0.38467  0.42349  1.0000
  S   S655      1.0  0.99937  0.48645  0.71954  1.0000
  H   H2522     1.0  0.78944  0.36009  0.20223  1.0000
  H   H2523     1.0  0.85359  0.43841  0.99752  1.0000
  H   H2524     1.0  0.76031  0.39739  0.89786  1.0000
  N   N157      1.0  0.87094  0.37870  0.47925  1.0000
  C   C1614     1.0  0.88172  0.38264  0.45938  1.0000
  H   H2525     1.0  0.86748  0.39254  0.45545  1.0000
  H   H2526     1.0  0.88587  0.37822  0.47604  1.0000
  H   H2527     1.0  0.97987  0.50056  0.95057  1.0000
  H   H2528     1.0  0.94182  0.37926  0.98267  1.0000
  H   H2529     1.0  0.89267  0.41027  0.83038  1.0000
  H   H2530     1.0  0.75542  0.27449  0.06805  1.0000
  N   N158      1.0  0.95156  0.39092  0.92887  1.0000
  C   C1615     1.0  0.86574  0.38470  0.45581  1.0000
  H   H2531     1.0  0.86355  0.41833  0.60001  1.0000
  H   H2532     1.0  0.77637  0.41187  0.82005  1.0000
  C   C1616     1.0  0.86062  0.41023  0.60729  1.0000
  H   H2533     1.0  0.91649  0.47788  0.24814  1.0000
  H   H2534     1.0  0.84722  0.39414  0.61358  1.0000
  H   H2535     1.0  0.83626  0.40992  0.63012  1.0000
  H   H2536     1.0  0.96714  0.39496  0.91936  1.0000
  C   C1617     1.0  0.84419  0.41216  0.61129  1.0000
  H   H2537     1.0  0.95238  0.43310  0.26423  1.0000
  H   H2538     1.0  0.84462  0.41049  0.58221  1.0000
  C   C1618     1.0  0.86806  0.36829  0.48034  1.0000
  H   H2539     1.0  0.85760  0.38177  0.46949  1.0000
  H   H2540     1.0  0.87021  0.36759  0.44908  1.0000
  H   H2541     1.0  0.87155  0.36345  0.49908  1.0000
  H   H2542     1.0  0.89482  0.38298  0.15281  1.0000
  H   H2543     1.0  0.82754  0.33175  0.59750  1.0000
  H   H2544     1.0  0.96924  0.46412  0.30075  1.0000
  H   H2545     1.0  0.95412  0.45030  0.86707  1.0000
  C   C1619     1.0  0.84661  0.39613  0.64217  1.0000
  N   N159      1.0  0.85016  0.40693  0.63314  1.0000
  H   H2546     1.0  0.96248  0.38257  0.91996  1.0000
  H   H2547     1.0  0.96763  0.47653  0.51520  1.0000
  H   H2548     1.0  0.86530  0.40637  0.62286  1.0000
  H   H2549     1.0  0.77528  0.33654  0.87236  1.0000
  C   C1620     1.0  0.97466  0.48313  0.29788  1.0000
  S   S656      1.0  0.99550  0.46002  0.70600  1.0000
  H   H2550     1.0  0.78305  0.32956  0.03565  1.0000
  H   H2551     1.0  0.85994  0.36520  0.49402  1.0000
  N   N160      1.0  0.76345  0.34712  0.12067  1.0000
  H   H2552     1.0  0.77263  0.42045  0.91126  1.0000
  H   H2553     1.0  0.75968  0.39954  0.10834  1.0000
  H   H2554     1.0  0.98401  0.48949  0.40858  1.0000
  H   H2555     1.0  0.83875  0.39335  0.66191  1.0000
  H   H2556     1.0  0.75445  0.41050  0.16953  1.0000
  H   H2557     1.0  0.87398  0.42307  0.86971  1.0000
  C   C1621     1.0  0.77909  0.32211  0.05507  1.0000
  H   H2558     1.0  0.94986  0.43565  0.37693  1.0000
  H   H2559     1.0  0.85092  0.39194  0.65887  1.0000
  C   C1622     1.0  0.76724  0.40011  0.19060  1.0000
  C   C1623     1.0  0.97854  0.48366  0.43583  1.0000
  H   H2560     1.0  0.83175  0.32207  0.69745  1.0000
  C   C1624     1.0  0.84921  0.40920  0.67184  1.0000
  H   H2561     1.0  0.85173  0.41730  0.66631  1.0000
  H   H2562     1.0  0.76620  0.35029  0.05588  1.0000
  H   H2563     1.0  0.96332  0.49451  0.94518  1.0000
  C   C1625     1.0  0.96548  0.42653  0.84896  1.0000
  C   C1626     1.0  0.96283  0.43808  0.29306  1.0000
  C   C1627     1.0  0.93817  0.43673  0.83468  1.0000
  H   H2564     1.0  0.84141  0.40668  0.69226  1.0000
  H   H2565     1.0  0.80413  0.37489  0.21654  1.0000
  C   C1628     1.0  0.96395  0.42457  0.77496  1.0000
  H   H2566     1.0  0.96344  0.42375  0.74620  1.0000
  H   H2567     1.0  0.95215  0.44915  0.76639  1.0000
  H   H2568     1.0  0.76221  0.38292  0.17700  1.0000
  H   H2569     1.0  0.87092  0.41153  0.90961  1.0000
  C   C1629     1.0  0.95418  0.44779  0.79499  1.0000
  Fe  Fe331     1.0  0.99685  0.45009  0.76339  1.0000
  H   H2570     1.0  0.94605  0.39684  0.87965  1.0000
  H   H2571     1.0  0.95185  0.43732  0.87280  1.0000
  C   C1630     1.0  0.94095  0.45414  0.82769  1.0000
  H   H2572     1.0  0.93856  0.45577  0.79999  1.0000
  C   C1631     1.0  0.89088  0.37860  0.23363  1.0000
  S   S657      1.0  0.77942  0.30986  0.22830  1.0000
  H   H2573     1.0  0.96661  0.47969  0.31309  1.0000
  C   C1632     1.0  0.96276  0.41820  0.32206  1.0000
  H   H2574     1.0  0.95774  0.44149  0.79702  1.0000
  H   H2575     1.0  0.90394  0.37701  0.16673  1.0000
  H   H2576     1.0  0.88402  0.37800  0.22486  1.0000
  H   H2577     1.0  0.99665  0.49485  0.78501  1.0000
  H   H2578     1.0  0.78256  0.34320  0.82020  1.0000
  N   N161      1.0  0.94547  0.44561  0.83143  1.0000
  C   C1633     1.0  0.94855  0.44379  0.86851  1.0000
  H   H2579     1.0  0.89677  0.40976  0.89341  1.0000
  H   H2580     1.0  0.93813  0.42191  0.34231  1.0000
  Fe  Fe332     1.0  0.99222  0.45318  0.43625  1.0000
  H   H2581     1.0  0.77028  0.40825  0.18157  1.0000
  N   N162      1.0  0.89918  0.38643  0.20186  1.0000
  S   S658      1.0  0.75955  0.40393  0.31753  1.0000
  C   C1634     1.0  0.76688  0.41389  0.91453  1.0000
  H   H2582     1.0  0.87698  0.42282  0.91551  1.0000
  H   H2583     1.0  0.96611  0.47665  0.24754  1.0000
  H   H2584     1.0  0.97823  0.48220  0.32226  1.0000
  H   H2585     1.0  0.94219  0.44224  0.89644  1.0000
  S   S659      1.0  0.97525  0.44477  0.33236  1.0000
  H   H2586     1.0  0.98323  0.44773  0.59090  1.0000
  H   H2587     1.0  0.97702  0.47689  0.42684  1.0000
  H   H2588     1.0  0.97716  0.47261  0.53437  1.0000
  H   H2589     1.0  0.75964  0.41439  0.93344  1.0000
  H   H2590     1.0  0.78365  0.35206  0.25380  1.0000
  H   H2591     1.0  0.94853  0.39612  0.98116  1.0000
  C   C1635     1.0  0.89650  0.39604  0.19479  1.0000
  H   H2592     1.0  0.92597  0.41921  0.45092  1.0000
  H   H2593     1.0  0.81371  0.36835  0.21444  1.0000
  Fe  Fe333     1.0  0.76321  0.30656  0.26343  1.0000
  C   C1636     1.0  0.76493  0.40127  0.12493  1.0000
  H   H2594     1.0  0.97726  0.47684  0.21080  1.0000
  C   C1637     1.0  0.96864  0.43538  0.31818  1.0000
  C   C1638     1.0  0.87660  0.41867  0.89338  1.0000
  H   H2595     1.0  0.96607  0.42722  0.87781  1.0000
  C   C1639     1.0  0.97417  0.48017  0.23463  1.0000
  H   H2596     1.0  0.93156  0.43480  0.86216  1.0000
  H   H2597     1.0  0.94133  0.43017  0.83715  1.0000
  N   N163      1.0  0.98223  0.48182  0.47136  1.0000
  H   H2598     1.0  0.91926  0.42473  0.39396  1.0000
  H   H2599     1.0  0.97514  0.48819  0.21930  1.0000
  H   H2600     1.0  0.88002  0.40444  0.85980  1.0000
  C   C1640     1.0  0.75886  0.40428  0.88042  1.0000
  H   H2601     1.0  0.96278  0.41049  0.33344  1.0000
  N   N164      1.0  0.88630  0.41707  0.87453  1.0000
  H   H2602     1.0  0.88424  0.40370  0.92317  1.0000
  C   C1641     1.0  0.98446  0.49114  0.48103  1.0000
  H   H2603     1.0  0.76316  0.36270  0.93484  1.0000
  C   C1642     1.0  0.91329  0.46972  0.26105  1.0000
  H   H2604     1.0  0.89700  0.46822  0.20826  1.0000
  H   H2605     1.0  0.77359  0.39676  0.18316  1.0000
  Fe  Fe334     1.0  0.78218  0.31988  0.26598  1.0000
  C   C1643     1.0  0.88950  0.41110  0.90678  1.0000
  H   H2606     1.0  0.88306  0.41602  0.81996  1.0000
  H   H2607     1.0  0.99306  0.48004  0.22414  1.0000
  C   C1644     1.0  0.88550  0.41175  0.84476  1.0000
  S   S660      1.0  0.76039  0.31921  0.21995  1.0000
  H   H2608     1.0  0.89139  0.43147  0.82882  1.0000
  C   C1645     1.0  0.89358  0.42675  0.85339  1.0000
  H   H2609     1.0  0.89028  0.41491  0.92964  1.0000
  H   H2610     1.0  0.99123  0.49130  0.23456  1.0000
  H   H2611     1.0  0.90923  0.46632  0.19571  1.0000
  H   H2612     1.0  0.77121  0.30772  0.15499  1.0000
  H   H2613     1.0  0.81537  0.32815  0.29240  1.0000
  H   H2614     1.0  0.89427  0.43098  0.87504  1.0000
  S   S661      1.0  0.98400  0.43894  0.81605  1.0000
  H   H2615     1.0  0.97835  0.50226  0.72060  1.0000
  H   H2616     1.0  0.79649  0.34327  0.25215  1.0000
  S   S662      1.0  0.76701  0.29617  0.04158  1.0000
  S   S663      1.0  0.76619  0.31528  0.30554  1.0000
  H   H2617     1.0  0.94493  0.43955  0.33612  1.0000
  C   C1646     1.0  0.97256  0.43063  0.77565  1.0000
  C   C1647     1.0  0.94957  0.39868  0.94772  1.0000
  C   C1648     1.0  0.97725  0.46787  0.28683  1.0000
  H   H2618     1.0  0.82102  0.31322  0.70083  1.0000
  H   H2619     1.0  0.95037  0.50064  0.03410  1.0000
  C   C1649     1.0  0.92592  0.43105  0.37894  1.0000
  C   C1650     1.0  0.90141  0.38396  0.16326  1.0000
  C   C1651     1.0  0.97337  0.43159  0.81278  1.0000
  H   H2620     1.0  0.97308  0.42316  0.35151  1.0000
  H   H2621     1.0  0.81098  0.33171  0.64012  1.0000
  H   H2622     1.0  0.80893  0.31883  0.66777  1.0000
  C   C1652     1.0  0.98965  0.48313  0.24836  1.0000
  H   H2623     1.0  0.98049  0.46413  0.26481  1.0000
  S   S664      1.0  0.98279  0.45938  0.40011  1.0000
  N   N165      1.0  0.93456  0.42855  0.38990  1.0000
  C   C1653     1.0  0.81212  0.32650  0.66669  1.0000
  H   H2624     1.0  0.80771  0.32763  0.69504  1.0000
  H   H2625     1.0  0.97562  0.49123  0.28405  1.0000
  C   C1654     1.0  0.96864  0.42538  0.33234  1.0000
  H   H2626     1.0  0.98733  0.49011  0.50743  1.0000
  H   H2627     1.0  0.89261  0.37123  0.23920  1.0000
  H   H2628     1.0  0.94268  0.40072  0.94461  1.0000
  H   H2629     1.0  0.80692  0.36877  0.17865  1.0000
  H   H2630     1.0  0.82261  0.33982  0.69019  1.0000
  H   H2631     1.0  0.82586  0.34386  0.63531  1.0000
  H   H2632     1.0  0.98059  0.46638  0.31183  1.0000
  H   H2633     1.0  0.83456  0.33979  0.65932  1.0000
  H   H2634     1.0  0.94024  0.50278  0.01575  1.0000
  C   C1655     1.0  0.82385  0.32103  0.69897  1.0000
  H   H2635     1.0  0.82545  0.31887  0.62480  1.0000
  H   H2636     1.0  0.99352  0.48170  0.27162  1.0000
  H   H2637     1.0  0.95569  0.40554  0.93324  1.0000
  C   C1656     1.0  0.77083  0.30533  0.06262  1.0000
  C   C1657     1.0  0.79840  0.35851  0.28220  1.0000
  H   H2638     1.0  0.76810  0.40942  0.11372  1.0000
  H   H2639     1.0  0.98991  0.47141  0.45287  1.0000
  Fe  Fe335     1.0  0.00378  0.47225  0.72138  1.0000
  H   H2640     1.0  0.99732  0.48386  0.43580  1.0000
  S   S665      1.0  0.99721  0.48664  0.33814  1.0000
  H   H2641     1.0  0.76984  0.42893  0.84654  1.0000
  C   C1658     1.0  0.93352  0.50062  0.13090  1.0000
  H   H2642     1.0  0.00047  0.49134  0.56537  1.0000
  S   S666      1.0  0.75888  0.30874  0.87856  1.0000
  H   H2643     1.0  0.75690  0.42288  0.86876  1.0000
  H   H2644     1.0  0.76387  0.42178  0.82113  1.0000
  H   H2645     1.0  0.99118  0.50382  0.71589  1.0000
  H   H2646     1.0  0.77830  0.40572  0.86693  1.0000
  H   H2647     1.0  0.75792  0.35968  0.27140  1.0000
  S   S667      1.0  0.94039  0.50303  0.19352  1.0000
  H   H2648     1.0  0.99718  0.50365  0.36441  1.0000
  S   S668      1.0  0.00046  0.46163  0.31711  1.0000
  H   H2649     1.0  0.77106  0.39777  0.11585  1.0000
  C   C1659     1.0  0.76419  0.42209  0.85164  1.0000
  H   H2650     1.0  0.00109  0.46843  0.89136  1.0000
  S   S669      1.0  0.93879  0.50222  0.30824  1.0000
  H   H2651     1.0  0.77565  0.34599  0.07389  1.0000
  C   C1660     1.0  0.75618  0.38672  0.18328  1.0000
  H   H2652     1.0  0.00342  0.50101  0.58667  1.0000
  S   S670      1.0  0.00392  0.46265  0.78126  1.0000
  C   C1661     1.0  0.00369  0.50121  0.36734  1.0000
  H   H2653     1.0  0.98521  0.52689  0.85001  1.0000
  H   H2654     1.0  0.95038  0.52669  0.02928  1.0000
  H   H2655     1.0  0.97573  0.53881  0.27989  1.0000
  C   C1662     1.0  0.94780  0.51859  0.03510  1.0000
  H   H2656     1.0  0.97252  0.54035  0.35019  1.0000
  S   S671      1.0  0.98287  0.51860  0.45854  1.0000
  H   H2657     1.0  0.98781  0.52918  0.70363  1.0000
  C   C1663     1.0  0.96605  0.53388  0.36094  1.0000
  N   N166      1.0  0.98434  0.51395  0.74114  1.0000
  C   C1664     1.0  0.95849  0.54239  0.31407  1.0000
  H   H2658     1.0  0.96843  0.52118  0.84642  1.0000
  C   C1665     1.0  0.97850  0.51406  0.42270  1.0000
  H   H2659     1.0  0.98540  0.51410  0.32361  1.0000
  S   S672      1.0  0.99470  0.51896  0.90915  1.0000
  H   H2660     1.0  0.95239  0.51919  0.93589  1.0000
  H   H2661     1.0  0.96619  0.53143  0.26847  1.0000
  C   C1666     1.0  0.96297  0.51835  0.98762  1.0000
  H   H2662     1.0  0.97475  0.52136  0.77236  1.0000
  Fe  Fe336     1.0  0.99884  0.52466  0.45574  1.0000
  C   C1667     1.0  0.98053  0.51976  0.87030  1.0000
  H   H2663     1.0  0.99928  0.51581  0.74215  1.0000
  H   H2664     1.0  0.96648  0.51680  0.95905  1.0000
  N   N167      1.0  0.95209  0.51576  0.99864  1.0000
  C   C1668     1.0  0.98455  0.51579  0.38274  1.0000
  H   H2665     1.0  0.94992  0.51469  0.06170  1.0000
  H   H2666     1.0  0.95527  0.51763  0.35576  1.0000
  H   H2667     1.0  0.99269  0.52362  0.76405  1.0000
  H   H2668     1.0  0.95177  0.52928  0.95626  1.0000
  H   H2669     1.0  0.94993  0.52369  0.31956  1.0000
  H   H2670     1.0  0.93428  0.50853  0.12254  1.0000
  H   H2671     1.0  0.99222  0.51975  0.37324  1.0000
  H   H2672     1.0  0.95520  0.54216  0.28927  1.0000
  C   C1669     1.0  0.98699  0.52160  0.70080  1.0000
  C   C1670     1.0  0.97102  0.51650  0.86833  1.0000
  H   H2673     1.0  0.98132  0.52043  0.68548  1.0000
  C   C1671     1.0  0.95316  0.52460  0.34389  1.0000
  C   C1672     1.0  0.96926  0.53228  0.29328  1.0000
  C   C1673     1.0  0.94918  0.52112  0.96399  1.0000
  H   H2674     1.0  0.96477  0.54909  0.30187  1.0000
  H   H2675     1.0  0.96866  0.52716  0.37190  1.0000
  C   C1674     1.0  0.97065  0.50756  0.36586  1.0000
  H   H2676     1.0  0.96598  0.52637  0.98211  1.0000
  H   H2677     1.0  0.95282  0.54339  0.33955  1.0000
  C   C1675     1.0  0.96853  0.50889  0.43426  1.0000
  H   H2678     1.0  0.94103  0.51921  0.97090  1.0000
  C   C1676     1.0  0.99191  0.51609  0.76066  1.0000
  N   N168      1.0  0.96174  0.53328  0.32806  1.0000
  C   C1677     1.0  0.98064  0.51257  0.35459  1.0000
  H   H2679     1.0  0.93960  0.51670  0.04442  1.0000
  H   H2680     1.0  0.99414  0.52149  0.67997  1.0000
  H   H2681     1.0  0.94723  0.52521  0.36952  1.0000
  H   H2682     1.0  0.96057  0.53451  0.38797  1.0000
  H   H2683     1.0  0.97210  0.52565  0.30295  1.0000
  C   C1678     1.0  0.98370  0.51412  0.90046  1.0000
  C   C1679     1.0  0.97464  0.51403  0.76754  1.0000
  H   H2684     1.0  0.97246  0.50837  0.79837  1.0000
  H   H2685     1.0  0.96549  0.51406  0.01210  1.0000
  H   H2686     1.0  0.99006  0.51066  0.79175  1.0000
  H   H2687     1.0  0.96871  0.51242  0.75394  1.0000
  C   C1680     1.0  0.96469  0.50746  0.89566  1.0000
  H   H2688     1.0  0.96376  0.50754  0.46505  1.0000
