data_image0
_chemical_formula_structural       H4SCFeS2CNH4SHCHC3HCH5C6HC2FeHCHS2CHC2H2CH2CSCFeCHCHCH3CH3CH2CH3FeH5SNHCSCNCHCHSH8NCSC2HCSFeSFeH3SHCHCHCH2SHFeS2FeCHFeH5SCH3C4H2CSC2FeH3CH2CHC2HSHNH2SHCH3S2HC2HCFeH2CFeSCFeHC2HCH3C2H3CS2H3FeHFeCSHCHC4H3SCNC2H3CNHNCH2CH3SH4S2H4CH3C4HNCNC4H2C2HSC2H2CS2FeH4FeHCHCHSC2H3CH8CHSCHCH2CNH2FeS2FeSHCH4CH3C2HSNH2SCH3C2H2SNHC2HSFeH4CHCHCH5CHFeH2CH3C2S2CSHSCSC2H2SH2SH2CFeH2CH2SCHFeNCSCH3C2H2C4SHFeSHCHFe2SFeCSFeHS2HCH3SNH2C6H5C2H8SCH2CH2NCHC2HFe2H2CSFeCFeCHCHCHCNSCH2SH5FeSH2CS2CHFeHCNC3HCHC4HSCH2SH2CH4CH3SH2SCH4NH6CFeHCH2CFeHC2SHCH5CFeHC2H3C2SCH2C2HNCSH3CSCSCH2CH2SCH3SHCHFeHFeH2CH2CH2CNH2CH2SH2C2SFeS3C2HSNCHC5H2FeH3FeH4S2HCHFeHC2FeSNHC2H2CH2CSC3H2SHSH2CFeHFeH2SC2NSFeHSH2SH4C5HCH3C2H2SNH4CHSCSFeC3SHCH2CHC4HSH2CNHFeSCHCH2NCSH6CH4CH2C2HC2SCSCH6Fe2S2FeCSH3C3H4C2HS2CHC2NC3HCHSH4CH5SFeH3CH2NH3CH3CH2CHSCH2SHCH2CHCH2FeHFe2NCFeHCHC2SHSCH2CH2SCH2CFeH3S2CSHCHSFeH3FeCH2SCHNH2C2HCFeSHCH3CHS2CH4NC8H2CH2CSCH5CH5CFeHCHCHCSCHSC3SHSH3SNHSHCH3NC6H2FeHCHNHCFeHCH3C2H3SCHCH2SH3CSCHCSCH3SH2C3HCHCH4CSCHSCHCH2SH2C2FeHCHCH2SH2CSHCNSNHCHC2HSHFeC2HCHSHSCHFeHCHFeS2FeCH2SHSHSFeNH3C4FeH3CHCHC3H2CH4C2H3FeSFeSFeCH6CHSC2SHSH2CHC3HCHCH3CH2C3H2SH3CFeH2FeCHCH2SH6NC3HC2HS3NCHFeHC3H2FeH7CHC5HCSHCSHC2HCS2CHNHC2H6C2H2C2HCH3FeS2CSC4H3FeHC3H5NH3CH3CH8NH2C2H2SFeC2HSC4SHCNHSHC3HCH2SHCHFeH2FeC2FeCHCHS2H2CHCHSFeH2CH2C2SCSCSH3NHCHFe2HSFeHSC2HCSHFeCSFeHC2S2H3CHCH4C7H6SNH5C3H7CHNH6CHCHCH2SFeH2Fe2SH3CH2FeHC2H6SC6H4SCSCNHSNH2C2HSCHSCHFeHCNHCHSHSHNC2H2Fe2H3FeCHC2S2FeSH2FeHCSHC3SHCFeHCH5NCHCH2CH2CHCH3SCHCHCH2CH2CH4CFeC2FeSH2FeHSCHCHCHS3C3HSFeH3FeS2FeH2CHCHC2H2CHSFeH2C2H2CHCHCH6NCHCSFeHC2SC2SCHFeSCHCH4C3SCSH3SC3NSH7C2FeSCHSCNH6CH3SCH6CSH2SH2SHCH4C4H4CH2CHCH3C2SNHCHCFeHNCHFeCH2CHCH2C2H2CNH3CH2CH2CSCH3CH2SFeS3C7H4CH2SCFeH4SHC5H3CHSCN2H3SCH8SHCH4C3HC4S2HSFeCH2SFeC2H3SH2C2H4SCH3NHNHSHSHSH3SC2SHCFeHSC2HSCH3SH2FeHFeHC2HSHCH2CHCFeH2CH2Fe2S2FeSFeCFeS3H2C3HC6H5CH5NHCHCNCH2SCHCHCH4C2SH2FeCH3C2H2CFeH5C3H6CHCH3
_chemical_formula_sum              "H1024 S256 C640 Fe128 N64"
_cell_length_a       41.8623
_cell_length_b       41.2524
_cell_length_c       43.1395
_cell_angle_alpha    90.0737
_cell_angle_beta     89.8434
_cell_angle_gamma    89.9465

_space_group_name_H-M_alt    "P 1"
_space_group_IT_number       1

loop_
  _space_group_symop_operation_xyz
  'x, y, z'

loop_
  _atom_site_type_symbol
  _atom_site_label
  _atom_site_symmetry_multiplicity
  _atom_site_fract_x
  _atom_site_fract_y
  _atom_site_fract_z
  _atom_site_occupancy
  H   H1        1.0  0.04595  0.08357  0.20423  1.0000
  H   H2        1.0  0.41006  0.03645  0.07887  1.0000
  H   H3        1.0  0.37986  0.06023  0.05996  1.0000
  H   H4        1.0  0.47293  0.42858  0.01577  1.0000
  S   S1        1.0  0.06852  0.47172  0.11362  1.0000
  C   C1        1.0  0.25145  0.44752  0.03388  1.0000
  Fe  Fe1       1.0  0.11785  0.46207  0.09527  1.0000
  S   S2        1.0  0.04370  0.06462  0.13364  1.0000
  S   S3        1.0  0.15481  0.42649  0.11189  1.0000
  C   C2        1.0  0.41660  0.08021  0.01246  1.0000
  N   N1        1.0  0.22274  0.42774  0.04018  1.0000
  H   H5        1.0  0.19810  0.38727  0.01997  1.0000
  H   H6        1.0  0.19100  0.46102  0.01729  1.0000
  H   H7        1.0  0.06681  0.05058  0.22221  1.0000
  H   H8        1.0  0.45341  0.02847  0.02163  1.0000
  S   S4        1.0  0.10173  0.45741  0.04597  1.0000
  H   H9        1.0  0.27371  0.43279  0.03469  1.0000
  C   C3        1.0  0.20943  0.04230  0.00877  1.0000
  H   H10       1.0  0.13650  0.04401  0.04423  1.0000
  C   C4        1.0  0.15486  0.03723  0.02776  1.0000
  C   C5        1.0  0.04264  0.06056  0.21734  1.0000
  C   C6        1.0  0.45722  0.04879  0.03819  1.0000
  H   H11       1.0  0.24763  0.39680  0.07225  1.0000
  C   C7        1.0  0.18560  0.05047  0.03029  1.0000
  H   H12       1.0  0.48434  0.49428  0.05867  1.0000
  H   H13       1.0  0.12075  0.45770  0.16240  1.0000
  H   H14       1.0  0.24082  0.38637  0.01536  1.0000
  H   H15       1.0  0.39416  0.09454  0.01475  1.0000
  H   H16       1.0  0.20486  0.39630  0.07596  1.0000
  C   C8        1.0  0.15819  0.42340  0.15234  1.0000
  C   C9        1.0  0.18116  0.40258  0.16500  1.0000
  C   C10       1.0  0.18448  0.39991  0.19725  1.0000
  C   C11       1.0  0.21785  0.49362  0.19647  1.0000
  C   C12       1.0  0.14173  0.43877  0.20432  1.0000
  C   C13       1.0  0.13851  0.44157  0.17203  1.0000
  H   H17       1.0  0.19626  0.38829  0.14985  1.0000
  C   C14       1.0  0.50762  0.46541  0.00470  1.0000
  C   C15       1.0  0.21958  0.40262  0.01593  1.0000
  Fe  Fe2       1.0  0.05356  0.47231  0.06357  1.0000
  H   H18       1.0  0.12648  0.45288  0.21948  1.0000
  C   C16       1.0  0.22579  0.41210  0.07085  1.0000
  H   H19       1.0  0.43477  0.09614  0.00140  1.0000
  S   S5        1.0  0.24774  0.05894  0.01298  1.0000
  S   S6        1.0  0.37286  0.13210  0.21252  1.0000
  C   C17       1.0  0.40257  0.04670  0.05619  1.0000
  H   H20       1.0  0.33538  0.03415  0.18690  1.0000
  C   C18       1.0  0.30064  0.23446  0.23629  1.0000
  C   C19       1.0  0.47787  0.45009  0.00224  1.0000
  H   H21       1.0  0.17202  0.43458  0.04490  1.0000
  H   H22       1.0  0.37351  0.05363  0.19063  1.0000
  C   C20       1.0  0.19410  0.44873  0.04003  1.0000
  H   H23       1.0  0.28003  0.22065  0.22917  1.0000
  H   H24       1.0  0.44188  0.08668  0.08717  1.0000
  C   C21       1.0  0.51859  0.05058  0.17934  1.0000
  S   S7        1.0  0.03426  0.01623  0.05598  1.0000
  C   C22       1.0  0.48838  0.06511  0.18231  1.0000
  Fe  Fe3       1.0  0.05291  0.02019  0.10457  1.0000
  C   C23       1.0  0.35844  0.03353  0.19963  1.0000
  H   H25       1.0  0.41648  0.48131  0.08265  1.0000
  C   C24       1.0  0.16488  0.41812  0.21697  1.0000
  H   H26       1.0  0.21721  0.41371  0.99250  1.0000
  C   C25       1.0  0.46568  0.06118  0.15892  1.0000
  H   H27       1.0  0.19554  0.46795  0.05813  1.0000
  H   H28       1.0  0.46585  0.03804  0.06027  1.0000
  H   H29       1.0  0.48289  0.07967  0.20252  1.0000
  C   C26       1.0  0.43380  0.09518  0.06398  1.0000
  H   H30       1.0  0.23259  0.43873  0.22657  1.0000
  H   H31       1.0  0.47685  0.06403  0.02868  1.0000
  H   H32       1.0  0.41191  0.11002  0.06780  1.0000
  C   C27       1.0  0.50329  0.02797  0.12973  1.0000
  H   H33       1.0  0.39702  0.02597  0.04060  1.0000
  H   H34       1.0  0.45509  0.03809  0.11541  1.0000
  C   C28       1.0  0.47293  0.04205  0.13297  1.0000
  H   H35       1.0  0.22689  0.43045  0.08979  1.0000
  H   H36       1.0  0.45268  0.11150  0.05468  1.0000
  H   H37       1.0  0.20197  0.38348  0.20678  1.0000
  Fe  Fe4       1.0  0.41990  0.10646  0.20677  1.0000
  H   H38       1.0  0.25401  0.46759  0.05099  1.0000
  H   H39       1.0  0.03045  0.04331  0.20138  1.0000
  H   H40       1.0  0.50894  0.01352  0.10949  1.0000
  H   H41       1.0  0.25042  0.45879  0.01047  1.0000
  H   H42       1.0  0.19091  0.06723  0.04890  1.0000
  S   S8        1.0  0.42817  0.08009  0.16148  1.0000
  N   N2        1.0  0.42758  0.06774  0.04274  1.0000
  H   H43       1.0  0.52559  0.45536  0.01975  1.0000
  C   C29       1.0  0.33147  0.22147  0.23284  1.0000
  S   S9        1.0  0.44847  0.14646  0.22889  1.0000
  C   C30       1.0  0.14772  0.01607  0.00344  1.0000
  N   N3        1.0  0.37460  0.00182  0.19639  1.0000
  C   C31       1.0  0.42023  0.49626  0.06149  1.0000
  H   H44       1.0  0.42939  0.47981  0.04301  1.0000
  C   C32       1.0  0.25260  0.45601  0.22283  1.0000
  H   H45       1.0  0.26475  0.44918  0.20082  1.0000
  S   S10       1.0  0.33649  0.04694  0.99803  1.0000
  H   H46       1.0  0.33469  0.19732  0.22357  1.0000
  H   H47       1.0  0.35318  0.03915  0.22428  1.0000
  H   H48       1.0  0.39831  0.01506  0.15404  1.0000
  H   H49       1.0  0.47199  0.49556  0.09849  1.0000
  H   H50       1.0  0.42117  0.02123  0.20625  1.0000
  H   H51       1.0  0.41162  0.06008  0.99589  1.0000
  H   H52       1.0  0.22886  0.48746  0.17370  1.0000
  H   H53       1.0  0.19687  0.47739  0.19954  1.0000
  N   N4        1.0  0.24088  0.48979  0.22214  1.0000
  C   C33       1.0  0.40453  0.00196  0.21450  1.0000
  S   S11       1.0  0.10243  0.00297  0.09232  1.0000
  C   C34       1.0  0.51393  0.49347  0.98765  1.0000
  C   C35       1.0  0.52623  0.03240  0.15286  1.0000
  H   H54       1.0  0.27219  0.36534  0.44276  1.0000
  C   C36       1.0  0.30372  0.48306  0.29586  1.0000
  S   S12       1.0  0.25612  0.37510  0.24746  1.0000
  Fe  Fe5       1.0  0.21330  0.39059  0.27513  1.0000
  S   S13       1.0  0.16971  0.41662  0.25740  1.0000
  Fe  Fe6       1.0  0.25465  0.32984  0.27615  1.0000
  H   H55       1.0  0.37497  0.04315  0.29493  1.0000
  H   H56       1.0  0.09442  0.26419  0.30321  1.0000
  H   H57       1.0  0.08337  0.29509  0.27601  1.0000
  S   S14       1.0  0.20920  0.34347  0.30043  1.0000
  H   H58       1.0  0.12394  0.28085  0.27740  1.0000
  C   C37       1.0  0.44135  0.21203  0.31531  1.0000
  H   H59       1.0  0.23685  0.13226  0.31813  1.0000
  C   C38       1.0  0.10270  0.28697  0.29186  1.0000
  H   H60       1.0  0.04360  0.02399  0.26892  1.0000
  C   C39       1.0  0.44466  0.32233  0.47671  1.0000
  H   H61       1.0  0.27004  0.45220  0.24195  1.0000
  H   H62       1.0  0.44378  0.23594  0.37305  1.0000
  S   S15       1.0  0.25736  0.27924  0.25664  1.0000
  H   H63       1.0  0.10155  0.35255  0.28467  1.0000
  Fe  Fe7       1.0  0.06161  0.31356  0.42309  1.0000
  S   S16       1.0  0.09234  0.27030  0.41408  1.0000
  S   S17       1.0  0.08206  0.36250  0.41170  1.0000
  Fe  Fe8       1.0  0.07230  0.25268  0.45929  1.0000
  C   C40       1.0  0.31134  0.33244  0.40537  1.0000
  H   H64       1.0  0.39975  0.00640  0.23958  1.0000
  Fe  Fe9       1.0  0.24103  0.36637  0.33563  1.0000
  H   H65       1.0  0.33517  0.32485  0.39647  1.0000
  H   H66       1.0  0.33801  0.28609  0.44046  1.0000
  H   H67       1.0  0.37427  0.28672  0.25709  1.0000
  H   H68       1.0  0.12825  0.36108  0.31611  1.0000
  H   H69       1.0  0.12279  0.39959  0.37156  1.0000
  S   S18       1.0  0.23070  0.35579  0.38571  1.0000
  C   C41       1.0  0.19082  0.25998  0.46874  1.0000
  H   H70       1.0  0.20422  0.48084  0.25612  1.0000
  H   H71       1.0  0.20226  0.26595  0.44698  1.0000
  H   H72       1.0  0.14535  0.25006  0.44773  1.0000
  C   C42       1.0  0.13748  0.38212  0.38365  1.0000
  C   C43       1.0  0.12353  0.36110  0.40527  1.0000
  C   C44       1.0  0.14267  0.33862  0.42088  1.0000
  C   C45       1.0  0.17565  0.33733  0.41502  1.0000
  H   H73       1.0  0.13214  0.32239  0.43768  1.0000
  H   H74       1.0  0.19035  0.31995  0.42712  1.0000
  C   C46       1.0  0.17032  0.38021  0.37715  1.0000
  S   S19       1.0  0.04978  0.22800  0.34404  1.0000
  C   C47       1.0  0.18949  0.35801  0.39307  1.0000
  C   C48       1.0  0.22487  0.49733  0.25189  1.0000
  Fe  Fe10      1.0  0.04887  0.24831  0.39257  1.0000
  H   H75       1.0  0.25821  0.32433  0.44005  1.0000
  H   H76       1.0  0.18091  0.39630  0.36020  1.0000
  H   H77       1.0  0.15822  0.29468  0.32220  1.0000
  C   C49       1.0  0.35808  0.24002  0.24100  1.0000
  H   H78       1.0  0.14246  0.31858  0.35340  1.0000
  H   H79       1.0  0.08628  0.33862  0.35111  1.0000
  C   C50       1.0  0.13610  0.30025  0.33554  1.0000
  H   H80       1.0  0.33320  0.34799  0.47991  1.0000
  C   C51       1.0  0.12087  0.34207  0.29921  1.0000
  C   C52       1.0  0.08159  0.31916  0.33389  1.0000
  H   H81       1.0  0.14163  0.33745  0.28365  1.0000
  S   S20       1.0  0.28654  0.34922  0.31347  1.0000
  H   H82       1.0  0.12879  0.27783  0.34805  1.0000
  N   N5        1.0  0.11034  0.31214  0.31510  1.0000
  H   H83       1.0  0.07352  0.29735  0.34692  1.0000
  H   H84       1.0  0.06130  0.32734  0.31927  1.0000
  S   S21       1.0  0.24141  0.41510  0.31267  1.0000
  H   H85       1.0  0.27575  0.11407  0.31541  1.0000
  C   C53       1.0  0.29839  0.02228  0.27804  1.0000
  H   H86       1.0  0.31319  0.29211  0.47404  1.0000
  H   H87       1.0  0.45103  0.20753  0.29159  1.0000
  H   H88       1.0  0.50337  0.15994  0.27061  1.0000
  S   S22       1.0  0.32334  0.08291  0.27105  1.0000
  S   S23       1.0  0.39365  0.14517  0.28457  1.0000
  H   H89       1.0  0.45455  0.19600  0.33160  1.0000
  C   C54       1.0  0.35232  0.48582  0.26558  1.0000
  C   C55       1.0  0.32810  0.46736  0.27948  1.0000
  H   H90       1.0  0.48100  0.28243  0.32851  1.0000
  C   C56       1.0  0.31433  0.29516  0.44841  1.0000
  Fe  Fe11      1.0  0.43954  0.11981  0.27334  1.0000
  H   H91       1.0  0.26290  0.21310  0.28880  1.0000
  H   H92       1.0  0.30711  0.35790  0.39780  1.0000
  C   C57       1.0  0.32548  0.04183  0.28144  1.0000
  Fe  Fe12      1.0  0.37031  0.10542  0.25770  1.0000
  S   S24       1.0  0.04361  0.29756  0.46965  1.0000
  C   C58       1.0  0.51048  0.16603  0.29396  1.0000
  Fe  Fe13      1.0  0.40081  0.16945  0.23875  1.0000
  H   H93       1.0  0.40525  0.24449  0.35681  1.0000
  C   C59       1.0  0.29628  0.26545  0.24889  1.0000
  C   C60       1.0  0.49982  0.14721  0.31887  1.0000
  H   H94       1.0  0.48965  0.25062  0.30121  1.0000
  C   C61       1.0  0.47815  0.25608  0.32394  1.0000
  H   H95       1.0  0.43325  0.27680  0.36349  1.0000
  H   H96       1.0  0.49181  0.24290  0.34208  1.0000
  H   H97       1.0  0.22955  0.19034  0.30314  1.0000
  C   C62       1.0  0.15845  0.25121  0.46914  1.0000
  C   C63       1.0  0.35377  0.27182  0.25179  1.0000
  H   H98       1.0  0.27623  0.03271  0.26988  1.0000
  H   H99       1.0  0.29288  0.31732  0.39369  1.0000
  H   H100      1.0  0.26110  0.20215  0.32898  1.0000
  C   C64       1.0  0.04095  0.08901  0.26635  1.0000
  S   S25       1.0  0.32839  0.42490  0.27494  1.0000
  S   S26       1.0  0.47361  0.11453  0.31314  1.0000
  H   H101      1.0  0.28534  0.46906  0.30719  1.0000
  H   H102      1.0  0.43612  0.26414  0.27807  1.0000
  H   H103      1.0  0.06525  0.08017  0.27241  1.0000
  Fe  Fe14      1.0  0.28423  0.39616  0.28696  1.0000
  H   H104      1.0  0.41599  0.20410  0.31521  1.0000
  Fe  Fe15      1.0  0.50364  0.28401  0.42507  1.0000
  C   C65       1.0  0.42629  0.26669  0.30199  1.0000
  S   S27       1.0  0.45056  0.27645  0.43062  1.0000
  H   H105      1.0  0.26793  0.14427  0.34448  1.0000
  C   C66       1.0  0.43096  0.25115  0.35572  1.0000
  H   H106      1.0  0.29556  0.27913  0.43845  1.0000
  C   C67       1.0  0.25587  0.19339  0.30512  1.0000
  C   C68       1.0  0.43129  0.29539  0.46199  1.0000
  C   C69       1.0  0.40192  0.28317  0.47232  1.0000
  C   C70       1.0  0.32290  0.28436  0.25616  1.0000
  H   H107      1.0  0.39168  0.26212  0.46116  1.0000
  H   H108      1.0  0.46708  0.33220  0.46854  1.0000
  H   H109      1.0  0.42718  0.29283  0.30830  1.0000
  S   S28       1.0  0.41548  0.07746  0.25050  1.0000
  C   C71       1.0  0.50962  0.15495  0.34902  1.0000
  N   N6        1.0  0.30930  0.32936  0.43946  1.0000
  C   C72       1.0  0.27733  0.33997  0.44997  1.0000
  C   C73       1.0  0.26288  0.13730  0.32005  1.0000
  H   H110      1.0  0.27505  0.33852  0.47555  1.0000
  H   H111      1.0  0.31633  0.18759  0.28540  1.0000
  H   H112      1.0  0.40073  0.25938  0.30098  1.0000
  C   C74       1.0  0.35412  0.02811  0.29171  1.0000
  N   N7        1.0  0.44419  0.24649  0.32423  1.0000
  H   H113      1.0  0.32149  0.14588  0.29557  1.0000
  N   N8        1.0  0.27302  0.16287  0.29813  1.0000
  C   C75       1.0  0.33406  0.34980  0.45413  1.0000
  H   H114      1.0  0.31976  0.30866  0.26507  1.0000
  H   H115      1.0  0.31430  0.17544  0.32524  1.0000
  C   C76       1.0  0.30778  0.16821  0.30124  1.0000
  H   H116      1.0  0.50154  0.14035  0.36833  1.0000
  H   H117      1.0  0.35853  0.34235  0.44680  1.0000
  H   H118      1.0  0.33098  0.37580  0.44795  1.0000
  S   S29       1.0  0.03146  0.22599  0.43687  1.0000
  H   H119      1.0  0.37129  0.47378  0.25294  1.0000
  H   H120      1.0  0.27471  0.16998  0.24878  1.0000
  H   H121      1.0  0.04361  0.11307  0.25497  1.0000
  H   H122      1.0  0.23941  0.14982  0.26254  1.0000
  S   S30       1.0  0.39686  0.22389  0.23858  1.0000
  S   S31       1.0  0.52365  0.30161  0.38006  1.0000
  H   H123      1.0  0.20576  0.33503  0.48367  1.0000
  H   H124      1.0  0.48477  0.25510  0.48513  1.0000
  H   H125      1.0  0.18551  0.37127  0.47160  1.0000
  H   H126      1.0  0.27674  0.12870  0.26056  1.0000
  C   C77       1.0  0.26558  0.15246  0.26614  1.0000
  H   H127      1.0  0.24149  0.49443  0.27177  1.0000
  H   H128      1.0  0.02771  0.09302  0.28848  1.0000
  H   H129      1.0  0.02820  0.17692  0.38558  1.0000
  C   C78       1.0  0.19743  0.35933  0.49164  1.0000
  C   C79       1.0  0.14768  0.33652  0.50969  1.0000
  C   C80       1.0  0.07668  0.27286  0.69930  1.0000
  C   C81       1.0  0.20832  0.26116  0.49632  1.0000
  H   H130      1.0  0.03535  0.32369  0.69276  1.0000
  N   N9        1.0  0.52091  0.31069  0.72110  1.0000
  C   C82       1.0  0.21019  0.34118  0.65174  1.0000
  N   N10       1.0  0.17554  0.35652  0.51845  1.0000
  C   C83       1.0  0.42857  0.33705  0.50166  1.0000
  C   C84       1.0  0.16123  0.24347  0.52461  1.0000
  C   C85       1.0  0.19359  0.25256  0.52427  1.0000
  C   C86       1.0  0.49786  0.24044  0.50260  1.0000
  H   H131      1.0  0.14987  0.23684  0.54625  1.0000
  H   H132      1.0  0.20709  0.25269  0.54557  1.0000
  C   C87       1.0  0.16458  0.38913  0.52793  1.0000
  C   C88       1.0  0.26604  0.28905  0.69230  1.0000
  H   H133      1.0  0.49651  0.30407  0.51560  1.0000
  S   S32       1.0  0.25103  0.28865  0.58797  1.0000
  C   C89       1.0  0.38598  0.29773  0.49740  1.0000
  C   C90       1.0  0.21694  0.37305  0.64298  1.0000
  H   H134      1.0  0.47134  0.31053  0.70771  1.0000
  H   H135      1.0  0.21899  0.37381  0.49755  1.0000
  C   C91       1.0  0.51500  0.23578  0.55570  1.0000
  S   S33       1.0  0.23974  0.38114  0.60955  1.0000
  S   S34       1.0  0.10255  0.23335  0.49835  1.0000
  Fe  Fe16      1.0  0.27172  0.28865  0.53997  1.0000
  H   H136      1.0  0.10066  0.26150  0.69656  1.0000
  H   H137      1.0  0.17675  0.33789  0.56508  1.0000
  H   H138      1.0  0.12320  0.31645  0.68893  1.0000
  H   H139      1.0  0.21813  0.32122  0.63749  1.0000
  Fe  Fe17      1.0  0.26903  0.33966  0.59063  1.0000
  H   H140      1.0  0.21086  0.42353  0.65465  1.0000
  C   C92       1.0  0.18324  0.36068  0.69822  1.0000
  H   H141      1.0  0.04751  0.34391  0.72782  1.0000
  C   C93       1.0  0.20586  0.39879  0.66142  1.0000
  H   H142      1.0  0.06504  0.27319  0.67613  1.0000
  S   S35       1.0  0.45857  0.14135  0.73063  1.0000
  C   C94       1.0  0.09865  0.32642  0.69180  1.0000
  C   C95       1.0  0.46264  0.25733  0.54400  1.0000
  H   H143      1.0  0.15518  0.31206  0.50164  1.0000
  H   H144      1.0  0.15175  0.40158  0.50873  1.0000
  H   H145      1.0  0.18131  0.41254  0.70365  1.0000
  C   C96       1.0  0.19321  0.33505  0.67917  1.0000
  H   H146      1.0  0.06225  0.25665  0.71456  1.0000
  H   H147      1.0  0.10131  0.35136  0.70136  1.0000
  H   H148      1.0  0.43878  0.35814  0.51281  1.0000
  H   H149      1.0  0.49676  0.28529  0.68429  1.0000
  H   H150      1.0  0.28192  0.34684  0.66897  1.0000
  H   H151      1.0  0.45162  0.23282  0.54550  1.0000
  H   H152      1.0  0.08787  0.32852  0.66836  1.0000
  H   H153      1.0  0.14798  0.38779  0.54810  1.0000
  C   C97       1.0  0.32138  0.30421  0.69779  1.0000
  H   H154      1.0  0.25605  0.35323  0.70160  1.0000
  S   S36       1.0  0.16507  0.35144  0.73387  1.0000
  C   C98       1.0  0.18910  0.39263  0.68911  1.0000
  H   H155      1.0  0.48582  0.27264  0.72249  1.0000
  C   C99       1.0  0.14344  0.24320  0.49710  1.0000
  H   H156      1.0  0.18811  0.31033  0.68586  1.0000
  H   H157      1.0  0.27250  0.26370  0.69863  1.0000
  C   C100      1.0  0.50991  0.28855  0.53216  1.0000
  N   N11       1.0  0.28818  0.31277  0.70629  1.0000
  H   H158      1.0  0.13384  0.34782  0.49050  1.0000
  H   H159      1.0  0.20200  0.31689  0.53797  1.0000
  Fe  Fe18      1.0  0.33276  0.32242  0.55928  1.0000
  S   S37       1.0  0.31990  0.26995  0.55444  1.0000
  S   S38       1.0  0.37948  0.34384  0.54317  1.0000
  Fe  Fe19      1.0  0.30083  0.27529  0.60290  1.0000
  S   S39       1.0  0.31732  0.32653  0.60901  1.0000
  H   H160      1.0  0.50563  0.21057  0.55716  1.0000
  C   C101      1.0  0.39919  0.32480  0.51205  1.0000
  H   H161      1.0  0.46045  0.26887  0.56726  1.0000
  H   H162      1.0  0.36352  0.28800  0.50537  1.0000
  H   H163      1.0  0.26651  0.29037  0.66652  1.0000
  H   H164      1.0  0.36698  0.26806  0.61746  1.0000
  C   C102      1.0  0.37300  0.25278  0.63695  1.0000
  H   H165      1.0  0.33888  0.32163  0.70765  1.0000
  H   H166      1.0  0.42355  0.26215  0.63353  1.0000
  H   H167      1.0  0.13104  0.33292  0.52955  1.0000
  C   C103      1.0  0.40502  0.24940  0.64605  1.0000
  C   C104      1.0  0.38902  0.21305  0.68727  1.0000
  H   H168      1.0  0.51429  0.24629  0.57946  1.0000
  S   S40       1.0  0.30868  0.24034  0.64211  1.0000
  N   N12       1.0  0.49631  0.25553  0.53365  1.0000
  H   H169      1.0  0.44791  0.27186  0.52765  1.0000
  H   H170      1.0  0.32783  0.27947  0.70603  1.0000
  S   S41       1.0  0.28608  0.34094  0.54141  1.0000
  C   C105      1.0  0.19258  0.34113  0.54455  1.0000
  H   H171      1.0  0.18504  0.40476  0.53493  1.0000
  H   H172      1.0  0.33847  0.20332  0.69040  1.0000
  H   H173      1.0  0.29744  0.36408  0.70405  1.0000
  C   C106      1.0  0.28062  0.34564  0.69475  1.0000
  C   C107      1.0  0.35700  0.21634  0.67809  1.0000
  H   H174      1.0  0.21330  0.35601  0.55213  1.0000
  H   H175      1.0  0.39510  0.19750  0.70656  1.0000
  S   S42       1.0  0.45340  0.22552  0.68190  1.0000
  N   N13       1.0  0.07914  0.30585  0.71252  1.0000
  H   H176      1.0  0.32472  0.30401  0.67221  1.0000
  C   C108      1.0  0.34896  0.23607  0.65284  1.0000
  C   C109      1.0  0.41309  0.22945  0.67113  1.0000
  H   H177      1.0  0.48723  0.21574  0.50255  1.0000
  S   S43       1.0  0.24807  0.27482  0.49506  1.0000
  Fe  Fe20      1.0  0.46216  0.19542  0.72468  1.0000
  H   H178      1.0  0.50877  0.35704  0.70153  1.0000
  H   H179      1.0  0.24105  0.29325  0.69998  1.0000
  H   H180      1.0  0.51288  0.49682  0.72366  1.0000
  H   H181      1.0  0.50916  0.30073  0.55516  1.0000
  C   C110      1.0  0.04684  0.32001  0.71571  1.0000
  H   H182      1.0  0.52302  0.23811  0.49444  1.0000
  C   C111      1.0  0.49249  0.29421  0.70833  1.0000
  H   H183      1.0  0.03090  0.30389  0.72936  1.0000
  C   C112      1.0  0.17657  0.01816  0.84098  1.0000
  H   H184      1.0  0.04694  0.49153  0.95031  1.0000
  H   H185      1.0  0.07760  0.26621  0.83209  1.0000
  H   H186      1.0  0.26236  0.42573  0.82535  1.0000
  H   H187      1.0  0.50770  0.30023  0.76819  1.0000
  H   H188      1.0  0.09570  0.32833  0.75457  1.0000
  C   C113      1.0  0.26392  0.44711  0.87091  1.0000
  H   H189      1.0  0.28983  0.28754  0.74980  1.0000
  Fe  Fe21      1.0  0.13497  0.42532  0.82301  1.0000
  H   H190      1.0  0.39814  0.02569  0.77448  1.0000
  H   H191      1.0  0.50697  0.49573  0.81894  1.0000
  C   C114      1.0  0.05684  0.31173  0.81782  1.0000
  H   H192      1.0  0.11931  0.29469  0.74172  1.0000
  H   H193      1.0  0.07473  0.32631  0.82927  1.0000
  H   H194      1.0  0.04101  0.48074  0.78160  1.0000
  C   C115      1.0  0.46076  0.49053  0.96520  1.0000
  C   C116      1.0  0.05506  0.05520  0.80033  1.0000
  S   S44       1.0  0.03703  0.21634  0.80755  1.0000
  S   S45       1.0  0.12350  0.37449  0.80829  1.0000
  C   C117      1.0  0.24593  0.45767  0.89638  1.0000
  S   S46       1.0  0.37905  0.48871  0.90872  1.0000
  H   H195      1.0  0.20631  0.04633  0.88864  1.0000
  S   S47       1.0  0.15529  0.43835  0.86975  1.0000
  C   C118      1.0  0.24849  0.43390  0.84506  1.0000
  S   S48       1.0  0.08564  0.44387  0.81368  1.0000
  C   C119      1.0  0.21250  0.45482  0.89597  1.0000
  C   C120      1.0  0.21512  0.43119  0.84460  1.0000
  H   H196      1.0  0.33984  0.03630  0.78294  1.0000
  H   H197      1.0  0.07072  0.06804  0.81601  1.0000
  S   S49       1.0  0.09091  0.40707  0.74609  1.0000
  H   H198      1.0  0.32412  0.03656  0.82181  1.0000
  H   H199      1.0  0.19860  0.46299  0.91567  1.0000
  S   S50       1.0  0.15513  0.44018  0.77678  1.0000
  H   H200      1.0  0.42320  0.01612  0.80704  1.0000
  H   H201      1.0  0.20338  0.42068  0.82470  1.0000
  C   C121      1.0  0.19708  0.44162  0.87004  1.0000
  Fe  Fe22      1.0  0.10450  0.45526  0.76626  1.0000
  H   H202      1.0  0.22096  0.01392  0.96836  1.0000
  H   H203      1.0  0.40796  0.05653  0.80215  1.0000
  C   C122      1.0  0.05999  0.02210  0.79458  1.0000
  H   H204      1.0  0.18820  0.02271  0.91874  1.0000
  H   H205      1.0  0.25777  0.46799  0.91635  1.0000
  S   S51       1.0  0.51174  0.19848  0.74375  1.0000
  C   C123      1.0  0.19489  0.02258  0.89381  1.0000
  H   H206      1.0  0.07880  0.49412  0.97791  1.0000
  Fe  Fe23      1.0  0.07600  0.39443  0.79444  1.0000
  N   N14       1.0  0.09037  0.46746  0.93647  1.0000
  C   C124      1.0  0.05842  0.27775  0.81943  1.0000
  S   S52       1.0  0.02888  0.36899  0.79966  1.0000
  C   C125      1.0  0.06730  0.47792  0.96053  1.0000
  H   H207      1.0  0.44258  0.50051  0.95019  1.0000
  H   H208      1.0  0.15601  0.01375  0.82524  1.0000
  H   H209      1.0  0.25980  0.31863  0.74755  1.0000
  C   C126      1.0  0.09440  0.30405  0.74333  1.0000
  C   C127      1.0  0.14230  0.04184  0.88004  1.0000
  H   H210      1.0  0.39883  0.01260  0.86044  1.0000
  H   H211      1.0  0.05723  0.45689  0.97345  1.0000
  C   C128      1.0  0.17159  0.00766  0.98201  1.0000
  C   C129      1.0  0.51414  0.32121  0.75320  1.0000
  C   C130      1.0  0.28461  0.31210  0.74039  1.0000
  C   C131      1.0  0.34585  0.04144  0.80756  1.0000
  S   S53       1.0  0.35968  0.01067  0.93419  1.0000
  H   H212      1.0  0.37142  0.21773  0.86366  1.0000
  Fe  Fe24      1.0  0.34854  0.06126  0.94948  1.0000
  S   S54       1.0  0.38596  0.09925  0.94023  1.0000
  H   H213      1.0  0.45491  0.19361  0.84775  1.0000
  C   C132      1.0  0.42572  0.25099  0.85637  1.0000
  H   H214      1.0  0.09091  0.43802  0.89527  1.0000
  Fe  Fe25      1.0  0.43909  0.15344  0.77804  1.0000
  Fe  Fe26      1.0  0.28637  0.04071  0.98107  1.0000
  S   S55       1.0  0.39427  0.13033  0.79709  1.0000
  Fe  Fe27      1.0  0.48813  0.20608  0.78966  1.0000
  C   C133      1.0  0.03533  0.25872  0.80459  1.0000
  S   S56       1.0  0.50185  0.24592  0.82275  1.0000
  Fe  Fe28      1.0  0.50637  0.14541  0.75394  1.0000
  H   H215      1.0  0.40443  0.26708  0.85788  1.0000
  S   S57       1.0  0.43870  0.20719  0.77002  1.0000
  S   S58       1.0  0.48670  0.15332  0.80179  1.0000
  H   H216      1.0  0.44686  0.26509  0.86437  1.0000
  C   C134      1.0  0.11674  0.44927  0.95115  1.0000
  H   H217      1.0  0.42990  0.24526  0.83145  1.0000
  H   H218      1.0  0.29517  0.49374  0.80936  1.0000
  H   H219      1.0  0.12973  0.46457  0.96822  1.0000
  S   S59       1.0  0.32774  0.45961  0.95983  1.0000
  N   N15       1.0  0.37329  0.02176  0.81806  1.0000
  H   H220      1.0  0.35112  0.06780  0.80919  1.0000
  H   H221      1.0  0.39738  0.19494  0.83851  1.0000
  C   C135      1.0  0.38824  0.10867  0.90069  1.0000
  C   C136      1.0  0.41800  0.11466  0.88694  1.0000
  C   C137      1.0  0.42015  0.12135  0.85509  1.0000
  C   C138      1.0  0.39246  0.12278  0.83708  1.0000
  C   C139      1.0  0.36265  0.11752  0.85104  1.0000
  C   C140      1.0  0.36056  0.11008  0.88269  1.0000
  H   H222      1.0  0.43949  0.11330  0.90078  1.0000
  H   H223      1.0  0.44324  0.12483  0.84448  1.0000
  H   H224      1.0  0.34109  0.11903  0.83732  1.0000
  H   H225      1.0  0.33749  0.10580  0.89326  1.0000
  H   H226      1.0  0.47211  0.21415  0.88011  1.0000
  C   C141      1.0  0.07408  0.44640  0.91370  1.0000
  C   C142      1.0  0.37945  0.02829  0.85121  1.0000
  H   H227      1.0  0.39429  0.24503  0.91056  1.0000
  H   H228      1.0  0.12083  0.03819  0.86518  1.0000
  H   H229      1.0  0.05423  0.45941  0.90193  1.0000
  H   H230      1.0  0.08092  0.28777  0.75915  1.0000
  H   H231      1.0  0.49391  0.33870  0.75415  1.0000
  H   H232      1.0  0.12108  0.48914  0.90223  1.0000
  H   H233      1.0  0.44838  0.17833  0.88619  1.0000
  H   H234      1.0  0.38909  0.18072  0.87700  1.0000
  S   S60       1.0  0.30556  0.45150  0.87012  1.0000
  C   C143      1.0  0.45043  0.20086  0.87220  1.0000
  H   H235      1.0  0.38682  0.05382  0.85504  1.0000
  H   H236      1.0  0.41270  0.20763  0.92221  1.0000
  C   C144      1.0  0.39361  0.20288  0.86297  1.0000
  H   H237      1.0  0.43663  0.24345  0.91732  1.0000
  H   H238      1.0  0.10775  0.42752  0.96364  1.0000
  N   N16       1.0  0.42142  0.22113  0.87481  1.0000
  C   C145      1.0  0.41601  0.22972  0.90769  1.0000
  H   H239      1.0  0.13453  0.44096  0.93361  1.0000
  C   C146      1.0  0.40192  0.03031  0.79963  1.0000
  C   C147      1.0  0.51262  0.02291  0.74665  1.0000
  H   H240      1.0  0.18674  0.04224  0.83492  1.0000
  Fe  Fe29      1.0  0.32658  0.47778  0.91088  1.0000
  Fe  Fe30      1.0  0.37902  0.47540  0.95901  1.0000
  H   H241      1.0  0.35771  0.02393  0.86555  1.0000
  H   H242      1.0  0.06391  0.42444  0.92494  1.0000
  C   C148      1.0  0.03167  0.32669  0.80206  1.0000
  S   S61       1.0  0.29757  0.06031  0.93373  1.0000
  Fe  Fe31      1.0  0.13954  0.39061  0.76098  1.0000
  C   C149      1.0  0.03978  0.00571  0.77413  1.0000
  Fe  Fe32      1.0  0.30761  0.00822  0.92173  1.0000
  C   C150      1.0  0.03003  0.07187  0.78570  1.0000
  H   H243      1.0  0.13416  0.04126  0.90465  1.0000
  C   C151      1.0  0.45423  0.46292  0.98292  1.0000
  H   H244      1.0  0.15162  0.06658  0.87523  1.0000
  C   C152      1.0  0.20250  0.02063  0.98475  1.0000
  H   H245      1.0  0.30107  0.32961  0.75176  1.0000
  C   C153      1.0  0.10346  0.49621  0.92043  1.0000
  N   N17       1.0  0.16677  0.01676  0.87390  1.0000
  S   S62       1.0  0.41625  0.44511  0.98269  1.0000
  C   C154      1.0  0.51514  0.05690  0.74577  1.0000
  H   H246      1.0  0.49481  0.07150  0.73912  1.0000
  H   H247      1.0  0.49025  0.01139  0.74073  1.0000
  S   S63       1.0  0.09116  0.00185  0.81381  1.0000
  H   H248      1.0  0.21340  0.00349  0.89050  1.0000
  H   H249      1.0  0.15608  0.87899  0.16437  1.0000
  H   H250      1.0  0.22040  0.92245  0.10464  1.0000
  H   H251      1.0  0.04492  0.55343  0.20902  1.0000
  H   H252      1.0  0.28015  0.50761  0.19476  1.0000
  Fe  Fe33      1.0  0.08045  0.52406  0.10531  1.0000
  S   S64       1.0  0.11295  0.91451  0.12585  1.0000
  H   H253      1.0  0.41736  0.97841  0.21264  1.0000
  H   H254      1.0  0.36478  0.95166  0.20644  1.0000
  C   C155      1.0  0.46583  0.96028  0.03434  1.0000
  S   S65       1.0  0.06215  0.52539  0.05647  1.0000
  S   S66       1.0  0.03565  0.97135  0.12004  1.0000
  C   C156      1.0  0.18216  0.97406  0.09683  1.0000
  H   H255      1.0  0.23661  0.53840  0.05611  1.0000
  Fe  Fe34      1.0  0.08336  0.95360  0.10354  1.0000
  H   H256      1.0  0.52661  0.54036  0.20951  1.0000
  C   C157      1.0  0.21588  0.95970  0.05350  1.0000
  N   N18       1.0  0.18950  0.94862  0.07372  1.0000
  C   C158      1.0  0.12805  0.95586  0.17352  1.0000
  C   C159      1.0  0.44649  0.54257  0.03874  1.0000
  C   C160      1.0  0.47937  0.96551  0.00509  1.0000
  H   H257      1.0  0.17947  0.90969  0.10535  1.0000
  C   C161      1.0  0.19898  0.91856  0.08989  1.0000
  H   H258      1.0  0.49144  0.52991  0.08144  1.0000
  C   C162      1.0  0.13230  0.92517  0.16037  1.0000
  C   C163      1.0  0.15277  0.90277  0.17454  1.0000
  C   C164      1.0  0.16902  0.91099  0.20184  1.0000
  C   C165      1.0  0.16473  0.94166  0.21502  1.0000
  H   H259      1.0  0.17508  0.99718  0.08541  1.0000
  S   S67       1.0  0.06654  0.94352  0.05528  1.0000
  C   C166      1.0  0.22592  0.53328  0.03382  1.0000
  H   H260      1.0  0.39647  0.50519  0.05363  1.0000
  H   H261      1.0  0.16569  0.92390  0.03632  1.0000
  S   S68       1.0  0.06754  0.56382  0.13897  1.0000
  H   H262      1.0  0.07823  0.56547  0.23233  1.0000
  H   H263      1.0  0.22204  0.94124  0.03562  1.0000
  C   C167      1.0  0.14421  0.96405  0.20089  1.0000
  H   H264      1.0  0.20309  0.97930  0.11185  1.0000
  H   H265      1.0  0.20933  0.98235  0.04104  1.0000
  H   H266      1.0  0.42186  0.95534  0.06025  1.0000
  H   H267      1.0  0.23787  0.96497  0.06704  1.0000
  C   C168      1.0  0.16088  0.94224  0.05467  1.0000
  H   H268      1.0  0.14091  0.98780  0.21108  1.0000
  H   H269      1.0  0.05280  0.59562  0.21539  1.0000
  H   H270      1.0  0.28655  0.50881  0.23566  1.0000
  S   S69       1.0  0.13133  0.51436  0.09122  1.0000
  H   H271      1.0  0.11230  0.97324  0.16263  1.0000
  H   H272      1.0  0.18482  0.89362  0.21268  1.0000
  S   S70       1.0  0.28679  0.52298  0.01402  1.0000
  C   C169      1.0  0.05299  0.57136  0.22667  1.0000
  H   H273      1.0  0.26050  0.53788  0.21816  1.0000
  H   H274      1.0  0.33045  0.97509  0.19507  1.0000
  H   H275      1.0  0.52117  0.57877  0.12147  1.0000
  H   H276      1.0  0.37551  0.78062  0.16517  1.0000
  N   N19       1.0  0.44257  0.52332  0.06737  1.0000
  H   H277      1.0  0.14071  0.93306  0.06899  1.0000
  H   H278      1.0  0.20450  0.89875  0.07317  1.0000
  H   H279      1.0  0.40566  0.69676  0.15082  1.0000
  H   H280      1.0  0.39433  0.97219  0.16002  1.0000
  H   H281      1.0  0.42001  0.73096  0.19570  1.0000
  H   H282      1.0  0.38972  0.71152  0.21830  1.0000
  C   C170      1.0  0.48120  0.60239  0.14388  1.0000
  Fe  Fe35      1.0  0.08217  0.99427  0.04492  1.0000
  H   H283      1.0  0.33393  0.75333  0.19669  1.0000
  C   C171      1.0  0.45046  0.56911  0.17918  1.0000
  H   H284      1.0  0.33377  0.70995  0.19979  1.0000
  H   H285      1.0  0.36520  0.69603  0.13686  1.0000
  C   C172      1.0  0.35333  0.97596  0.20810  1.0000
  Fe  Fe36      1.0  0.41486  0.63096  0.22433  1.0000
  H   H286      1.0  0.46591  0.51952  0.18341  1.0000
  C   C173      1.0  0.43238  0.96006  0.03777  1.0000
  C   C174      1.0  0.49595  0.54612  0.15178  1.0000
  S   S71       1.0  0.10942  0.99914  0.99991  1.0000
  H   H287      1.0  0.46335  0.56310  0.04219  1.0000
  C   C175      1.0  0.38027  0.75702  0.15344  1.0000
  H   H288      1.0  0.15232  0.96460  0.04304  1.0000
  H   H289      1.0  0.34714  0.97993  0.23292  1.0000
  H   H290      1.0  0.43065  0.56618  0.19502  1.0000
  H   H291      1.0  0.38980  0.75470  0.21512  1.0000
  H   H292      1.0  0.48563  0.62561  0.13304  1.0000
  C   C176      1.0  0.47030  0.54268  0.17241  1.0000
  Fe  Fe37      1.0  0.11193  0.51054  0.04298  1.0000
  H   H293      1.0  0.48106  0.95565  0.05407  1.0000
  C   C177      1.0  0.24539  0.52615  0.00830  1.0000
  C   C178      1.0  0.33967  0.73046  0.18402  1.0000
  H   H294      1.0  0.49762  0.59156  0.22108  1.0000
  H   H295      1.0  0.37516  0.67735  0.17310  1.0000
  H   H296      1.0  0.32329  0.72890  0.16381  1.0000
  C   C179      1.0  0.39422  0.73184  0.20199  1.0000
  C   C180      1.0  0.50129  0.57592  0.13728  1.0000
  S   S72       1.0  0.43245  0.63276  0.17500  1.0000
  C   C181      1.0  0.45611  0.59912  0.16526  1.0000
  H   H297      1.0  0.40568  0.75703  0.14572  1.0000
  H   H298      1.0  0.36505  0.75605  0.13233  1.0000
  C   C182      1.0  0.38014  0.69865  0.15800  1.0000
  C   C183      1.0  0.41255  0.96584  0.01216  1.0000
  H   H299      1.0  0.44570  0.56523  0.09688  1.0000
  N   N20       1.0  0.37357  0.72948  0.17435  1.0000
  C   C184      1.0  0.42970  0.54423  0.09231  1.0000
  S   S73       1.0  0.37077  0.96584  0.01677  1.0000
  H   H300      1.0  0.20868  0.51891  0.19508  1.0000
  H   H301      1.0  0.42329  0.55272  0.03069  1.0000
  H   H302      1.0  0.45617  0.52746  0.01955  1.0000
  C   C185      1.0  0.47392  0.51020  0.07689  1.0000
  S   S74       1.0  0.13677  0.52531  0.99876  1.0000
  C   C186      1.0  0.26813  0.51203  0.21741  1.0000
  S   S75       1.0  0.52086  0.96460  0.99908  1.0000
  C   C187      1.0  0.17856  0.52706  0.00215  1.0000
  H   H303      1.0  0.17790  0.53977  0.05049  1.0000
  H   H304      1.0  0.42727  0.53068  0.11452  1.0000
  C   C188      1.0  0.19263  0.53374  0.03076  1.0000
  H   H305      1.0  0.36014  0.99593  0.14893  1.0000
  H   H306      1.0  0.40576  0.55406  0.08620  1.0000
  S   S76       1.0  0.52130  0.51285  0.14581  1.0000
  C   C189      1.0  0.38213  0.99593  0.16336  1.0000
  H   H307      1.0  0.16215  0.96659  0.11230  1.0000
  H   H308      1.0  0.02808  0.61459  0.16384  1.0000
  H   H309      1.0  0.29735  0.89722  0.41857  1.0000
  S   S77       1.0  0.20303  0.86481  0.28399  1.0000
  H   H310      1.0  0.02930  0.59444  0.29890  1.0000
  C   C190      1.0  0.10364  0.85641  0.29682  1.0000
  H   H311      1.0  0.12766  0.84551  0.29272  1.0000
  Fe  Fe38      1.0  0.21755  0.91476  0.26911  1.0000
  H   H312      1.0  0.04270  0.61986  0.26798  1.0000
  Fe  Fe39      1.0  0.25199  0.84990  0.26773  1.0000
  H   H313      1.0  0.13032  0.78094  0.47556  1.0000
  H   H314      1.0  0.49521  0.73185  0.37531  1.0000
  C   C191      1.0  0.35566  0.99486  0.29845  1.0000
  H   H315      1.0  0.11845  0.88369  0.35139  1.0000
  H   H316      1.0  0.15189  0.88759  0.32569  1.0000
  C   C192      1.0  0.27838  0.86829  0.47144  1.0000
  H   H317      1.0  0.48265  0.78702  0.35844  1.0000
  H   H318      1.0  0.27917  0.97399  0.28115  1.0000
  C   C193      1.0  0.04403  0.59473  0.27733  1.0000
  N   N21       1.0  0.10602  0.89146  0.30357  1.0000
  H   H319      1.0  0.08900  0.85169  0.27582  1.0000
  H   H320      1.0  0.14297  0.89861  0.26961  1.0000
  C   C194      1.0  0.12732  0.89663  0.33042  1.0000
  H   H321      1.0  0.46606  0.70003  0.37208  1.0000
  H   H322      1.0  0.30662  0.82402  0.41075  1.0000
  S   S78       1.0  0.23849  0.92800  0.31513  1.0000
  H   H323      1.0  0.09236  0.84305  0.31644  1.0000
  H   H324      1.0  0.30822  0.81448  0.45140  1.0000
  C   C195      1.0  0.11913  0.90840  0.27619  1.0000
  C   C196      1.0  0.29365  0.78240  0.25470  1.0000
  S   S79       1.0  0.41559  0.58859  0.25704  1.0000
  Fe  Fe40      1.0  0.05126  0.78480  0.41966  1.0000
  S   S80       1.0  0.06020  0.73620  0.44161  1.0000
  S   S81       1.0  0.07490  0.79637  0.37404  1.0000
  S   S82       1.0  0.25883  0.80249  0.24264  1.0000
  C   C197      1.0  0.17277  0.84432  0.37747  1.0000
  C   C198      1.0  0.29581  0.74855  0.25244  1.0000
  H   H325      1.0  0.39392  0.77403  0.46936  1.0000
  S   S83       1.0  0.20729  0.86835  0.37624  1.0000
  N   N22       1.0  0.27754  0.85443  0.43983  1.0000
  C   C199      1.0  0.30001  0.98901  0.28450  1.0000
  H   H326      1.0  0.37781  0.98431  0.30651  1.0000
  C   C200      1.0  0.13492  0.80864  0.35219  1.0000
  C   C201      1.0  0.11371  0.81211  0.37715  1.0000
  C   C202      1.0  0.12284  0.83029  0.40303  1.0000
  C   C203      1.0  0.15240  0.84634  0.40321  1.0000
  C   C204      1.0  0.27624  0.88097  0.41685  1.0000
  H   H327      1.0  0.10667  0.83306  0.42238  1.0000
  H   H328      1.0  0.15889  0.86129  0.42282  1.0000
  Fe  Fe41      1.0  0.22769  0.87682  0.32858  1.0000
  H   H329      1.0  0.12236  0.93479  0.28064  1.0000
  H   H330      1.0  0.50688  0.63047  0.38057  1.0000
  H   H331      1.0  0.06355  0.89207  0.33162  1.0000
  Fe  Fe42      1.0  0.06021  0.76469  0.48617  1.0000
  H   H332      1.0  0.07486  0.93080  0.31600  1.0000
  H   H333      1.0  0.22656  0.84761  0.44072  1.0000
  H   H334      1.0  0.18051  0.82216  0.33286  1.0000
  H   H335      1.0  0.12827  0.79392  0.33246  1.0000
  S   S84       1.0  0.05490  0.81347  0.46380  1.0000
  S   S85       1.0  0.43956  0.66449  0.25720  1.0000
  H   H336      1.0  0.05715  0.90063  0.29125  1.0000
  C   C205      1.0  0.16442  0.82472  0.35233  1.0000
  H   H337      1.0  0.24925  0.81319  0.45331  1.0000
  Fe  Fe43      1.0  0.51317  0.77687  0.44700  1.0000
  H   H338      1.0  0.10348  0.90573  0.25553  1.0000
  C   C206      1.0  0.41619  0.73976  0.35935  1.0000
  C   C207      1.0  0.07393  0.90436  0.31090  1.0000
  Fe  Fe44      1.0  0.39047  0.67795  0.27321  1.0000
  S   S86       1.0  0.38561  0.73116  0.28339  1.0000
  N   N23       1.0  0.52318  0.56281  0.25441  1.0000
  H   H339      1.0  0.41039  0.71406  0.35375  1.0000
  C   C208      1.0  0.51373  0.64747  0.36267  1.0000
  C   C209      1.0  0.32861  0.97525  0.29482  1.0000
  H   H340      1.0  0.24721  0.82321  0.41279  1.0000
  H   H341      1.0  0.44314  0.79698  0.34526  1.0000
  C   C210      1.0  0.35184  0.51984  0.26747  1.0000
  H   H342      1.0  0.25441  0.89610  0.42003  1.0000
  H   H343      1.0  0.32508  0.70626  0.26054  1.0000
  C   C211      1.0  0.32711  0.53557  0.28334  1.0000
  S   S87       1.0  0.18399  0.95224  0.24961  1.0000
  C   C212      1.0  0.34968  0.75019  0.27303  1.0000
  C   C213      1.0  0.34754  0.78398  0.27520  1.0000
  C   C214      1.0  0.31958  0.80006  0.26611  1.0000
  H   H344      1.0  0.06923  0.58992  0.28402  1.0000
  H   H345      1.0  0.36758  0.79787  0.28377  1.0000
  S   S88       1.0  0.32405  0.57813  0.28375  1.0000
  H   H346      1.0  0.18660  0.79960  0.47240  1.0000
  S   S89       1.0  0.38855  0.63989  0.31004  1.0000
  H   H347      1.0  0.32860  0.84966  0.43682  1.0000
  H   H348      1.0  0.31827  0.82621  0.26748  1.0000
  C   C215      1.0  0.51088  0.66569  0.30946  1.0000
  Fe  Fe45      1.0  0.43592  0.62403  0.29124  1.0000
  H   H349      1.0  0.40136  0.75520  0.34386  1.0000
  Fe  Fe46      1.0  0.36798  0.60784  0.27288  1.0000
  H   H350      1.0  0.05766  0.53104  0.27535  1.0000
  H   H351      1.0  0.50215  0.66282  0.28610  1.0000
  S   S90       1.0  0.33129  0.93344  0.30174  1.0000
  C   C216      1.0  0.46021  0.73858  0.32302  1.0000
  C   C217      1.0  0.44024  0.79004  0.48477  1.0000
  N   N24       1.0  0.45061  0.74646  0.35515  1.0000
  S   S91       1.0  0.47544  0.61179  0.32439  1.0000
  Fe  Fe47      1.0  0.28408  0.90839  0.29553  1.0000
  H   H352      1.0  0.28409  0.52915  0.31015  1.0000
  S   S92       1.0  0.27559  0.85817  0.31370  1.0000
  H   H353      1.0  0.46188  0.73076  0.40136  1.0000
  H   H354      1.0  0.45525  0.71271  0.31737  1.0000
  S   S93       1.0  0.45925  0.77778  0.45019  1.0000
  H   H355      1.0  0.29903  0.88494  0.47450  1.0000
  H   H356      1.0  0.12956  0.92279  0.33635  1.0000
  H   H357      1.0  0.40840  0.74460  0.38362  1.0000
  H   H358      1.0  0.44690  0.75359  0.30595  1.0000
  C   C218      1.0  0.24897  0.83365  0.43655  1.0000
  C   C219      1.0  0.30657  0.83477  0.43446  1.0000
  C   C220      1.0  0.30316  0.51708  0.29767  1.0000
  C   C221      1.0  0.46924  0.72635  0.37693  1.0000
  C   C222      1.0  0.50152  0.64398  0.33265  1.0000
  H   H359      1.0  0.44994  0.78794  0.38538  1.0000
  C   C223      1.0  0.45687  0.78113  0.36131  1.0000
  H   H360      1.0  0.48619  0.74285  0.31929  1.0000
  H   H361      1.0  0.49823  0.60806  0.25952  1.0000
  H   H362      1.0  0.37021  0.53384  0.25609  1.0000
  C   C224      1.0  0.32373  0.73240  0.26184  1.0000
  C   C225      1.0  0.03302  0.53802  0.26837  1.0000
  H   H363      1.0  0.27550  0.87137  0.39270  1.0000
  H   H364      1.0  0.21582  0.52269  0.25240  1.0000
  S   S94       1.0  0.26421  0.89887  0.24816  1.0000
  N   N25       1.0  0.03234  0.57077  0.25451  1.0000
  H   H365      1.0  0.50176  0.51933  0.27248  1.0000
  H   H366      1.0  0.48077  0.55598  0.28193  1.0000
  H   H367      1.0  0.25617  0.88215  0.47671  1.0000
  H   H368      1.0  0.27568  0.73482  0.24381  1.0000
  C   C226      1.0  0.49485  0.54357  0.26342  1.0000
  H   H369      1.0  0.47858  0.53969  0.24338  1.0000
  S   S95       1.0  0.36564  0.64778  0.23736  1.0000
  C   C227      1.0  0.51268  0.59451  0.24210  1.0000
  S   S96       1.0  0.09202  0.75929  0.52812  1.0000
  Fe  Fe48      1.0  0.26739  0.80206  0.56069  1.0000
  C   C228      1.0  0.24288  0.71476  0.54633  1.0000
  C   C229      1.0  0.07883  0.82187  0.58704  1.0000
  C   C230      1.0  0.45740  0.80393  0.50915  1.0000
  S   S97       1.0  0.23562  0.80713  0.51856  1.0000
  H   H370      1.0  0.42323  0.78086  0.72917  1.0000
  C   C231      1.0  0.45671  0.67854  0.54334  1.0000
  H   H371      1.0  0.21150  0.82727  0.64521  1.0000
  H   H372      1.0  0.46884  0.72711  0.58276  1.0000
  C   C232      1.0  0.46795  0.73393  0.55779  1.0000
  H   H373      1.0  0.08508  0.88187  0.56367  1.0000
  C   C233      1.0  0.13123  0.77436  0.52509  1.0000
  C   C234      1.0  0.14973  0.77720  0.55200  1.0000
  C   C235      1.0  0.18141  0.78821  0.55028  1.0000
  C   C236      1.0  0.19507  0.79582  0.52159  1.0000
  H   H374      1.0  0.48275  0.80822  0.50670  1.0000
  S   S98       1.0  0.42412  0.66962  0.72024  1.0000
  H   H375      1.0  0.13954  0.77086  0.57425  1.0000
  H   H376      1.0  0.19517  0.79096  0.57119  1.0000
  C   C237      1.0  0.04886  0.83389  0.54076  1.0000
  N   N26       1.0  0.05328  0.84234  0.57376  1.0000
  H   H377      1.0  0.46306  0.65770  0.52811  1.0000
  Fe  Fe49      1.0  0.50730  0.62856  0.72512  1.0000
  S   S99       1.0  0.50060  0.67717  0.70280  1.0000
  C   C238      1.0  0.17637  0.79352  0.49471  1.0000
  H   H378      1.0  0.10187  0.82535  0.57449  1.0000
  C   C239      1.0  0.23016  0.66089  0.56405  1.0000
  H   H379      1.0  0.48370  0.75539  0.55445  1.0000
  H   H380      1.0  0.21176  0.64453  0.57414  1.0000
  N   N27       1.0  0.21763  0.69412  0.55985  1.0000
  C   C240      1.0  0.18979  0.69348  0.53882  1.0000
  S   S100      1.0  0.25084  0.78250  0.60661  1.0000
  H   H381      1.0  0.49069  0.73801  0.50001  1.0000
  H   H382      1.0  0.22851  0.70855  0.60658  1.0000
  H   H383      1.0  0.45053  0.72301  0.49858  1.0000
  H   H384      1.0  0.04185  0.80803  0.53797  1.0000
  H   H385      1.0  0.16986  0.67884  0.54860  1.0000
  H   H386      1.0  0.51384  0.68980  0.56932  1.0000
  C   C241      1.0  0.47549  0.71647  0.50490  1.0000
  H   H387      1.0  0.43070  0.80720  0.64646  1.0000
  H   H388      1.0  0.19812  0.73234  0.58806  1.0000
  H   H389      1.0  0.25113  0.66072  0.58000  1.0000
  H   H390      1.0  0.02989  0.84891  0.52970  1.0000
  C   C242      1.0  0.20789  0.70738  0.59030  1.0000
  H   H391      1.0  0.18036  0.71833  0.53457  1.0000
  H   H392      1.0  0.15552  0.83736  0.66172  1.0000
  C   C243      1.0  0.22496  0.88226  0.70243  1.0000
  C   C244      1.0  0.16822  0.87134  0.69758  1.0000
  H   H393      1.0  0.18911  0.69221  0.60139  1.0000
  C   C245      1.0  0.17488  0.84994  0.67311  1.0000
  C   C246      1.0  0.23171  0.86010  0.67861  1.0000
  S   S101      1.0  0.27182  0.85145  0.66941  1.0000
  C   C247      1.0  0.20657  0.84420  0.66372  1.0000
  S   S102      1.0  0.12845  0.87657  0.70991  1.0000
  C   C248      1.0  0.19330  0.88774  0.71206  1.0000
  H   H394      1.0  0.24434  0.89514  0.71350  1.0000
  H   H395      1.0  0.25031  0.70606  0.52298  1.0000
  H   H396      1.0  0.18828  0.90482  0.73047  1.0000
  H   H397      1.0  0.39837  0.81085  0.71100  1.0000
  H   H398      1.0  0.39112  0.64182  0.66082  1.0000
  H   H399      1.0  0.41215  0.71686  0.59495  1.0000
  Fe  Fe50      1.0  0.28213  0.82132  0.62675  1.0000
  Fe  Fe51      1.0  0.33704  0.80782  0.58128  1.0000
  S   S103      1.0  0.30987  0.76884  0.55662  1.0000
  S   S104      1.0  0.38966  0.81860  0.57503  1.0000
  Fe  Fe52      1.0  0.29556  0.75277  0.60417  1.0000
  C   C249      1.0  0.14446  0.78296  0.49646  1.0000
  S   S105      1.0  0.32532  0.78934  0.62874  1.0000
  H   H400      1.0  0.35474  0.72874  0.58990  1.0000
  H   H401      1.0  0.48332  0.69673  0.48899  1.0000
  H   H402      1.0  0.23471  0.74029  0.54372  1.0000
  C   C250      1.0  0.39151  0.79354  0.51570  1.0000
  C   C251      1.0  0.40859  0.80764  0.54002  1.0000
  C   C252      1.0  0.44155  0.81283  0.53666  1.0000
  H   H403      1.0  0.08300  0.82757  0.61194  1.0000
  H   H404      1.0  0.36611  0.78956  0.51804  1.0000
  H   H405      1.0  0.45483  0.82396  0.55534  1.0000
  H   H406      1.0  0.50990  0.55648  0.71829  1.0000
  C   C253      1.0  0.41940  0.79475  0.70734  1.0000
  C   C254      1.0  0.39510  0.70271  0.60788  1.0000
  H   H407      1.0  0.04367  0.89299  0.56654  1.0000
  S   S106      1.0  0.44671  0.67166  0.63260  1.0000
  S   S107      1.0  0.29604  0.84320  0.58091  1.0000
  C   C255      1.0  0.33998  0.69159  0.62195  1.0000
  H   H408      1.0  0.36422  0.76695  0.68916  1.0000
  C   C256      1.0  0.38630  0.75215  0.68642  1.0000
  C   C257      1.0  0.40556  0.67844  0.62807  1.0000
  N   N28       1.0  0.47784  0.70663  0.53772  1.0000
  C   C258      1.0  0.35038  0.66696  0.64182  1.0000
  C   C259      1.0  0.36245  0.70957  0.60515  1.0000
  C   C260      1.0  0.38320  0.66068  0.64521  1.0000
  H   H409      1.0  0.43121  0.68477  0.53903  1.0000
  C   C261      1.0  0.06241  0.87685  0.57637  1.0000
  H   H410      1.0  0.06612  0.88405  0.60101  1.0000
  S   S108      1.0  0.29912  0.70089  0.61887  1.0000
  H   H411      1.0  0.07137  0.83731  0.52733  1.0000
  H   H412      1.0  0.44715  0.73662  0.69744  1.0000
  H   H413      1.0  0.44076  0.81043  0.70397  1.0000
  H   H414      1.0  0.33313  0.65310  0.65501  1.0000
  C   C262      1.0  0.44310  0.75208  0.67670  1.0000
  H   H415      1.0  0.44310  0.74190  0.55251  1.0000
  H   H416      1.0  0.38877  0.80882  0.65462  1.0000
  H   H417      1.0  0.38214  0.73499  0.66692  1.0000
  H   H418      1.0  0.38928  0.73737  0.70781  1.0000
  H   H419      1.0  0.07284  0.79562  0.58524  1.0000
  S   S109      1.0  0.46666  0.60583  0.69941  1.0000
  Fe  Fe53      1.0  0.45691  0.65576  0.68135  1.0000
  H   H420      1.0  0.03678  0.78616  0.73688  1.0000
  H   H421      1.0  0.23816  0.65021  0.54162  1.0000
  H   H422      1.0  0.46507  0.76679  0.67323  1.0000
  C   C263      1.0  0.51124  0.69768  0.54479  1.0000
  H   H423      1.0  0.19616  0.68306  0.51580  1.0000
  H   H424      1.0  0.26453  0.71498  0.56124  1.0000
  N   N29       1.0  0.41456  0.77279  0.68065  1.0000
  H   H425      1.0  0.20965  0.82454  0.73530  1.0000
  H   H426      1.0  0.44054  0.73568  0.65640  1.0000
  H   H427      1.0  0.40465  0.77627  0.63177  1.0000
  C   C264      1.0  0.40951  0.79208  0.65220  1.0000
  H   H428      1.0  0.45837  0.67000  0.56775  1.0000
  H   H429      1.0  0.07082  0.56877  0.73727  1.0000
  H   H430      1.0  0.51980  0.67752  0.52970  1.0000
  C   C265      1.0  0.40730  0.78486  0.48812  1.0000
  H   H431      1.0  0.28045  0.84897  0.48931  1.0000
  H   H432      1.0  0.27232  0.51894  0.86936  1.0000
  C   C266      1.0  0.26394  0.96362  0.86896  1.0000
  H   H433      1.0  0.45300  0.56204  0.84428  1.0000
  S   S110      1.0  0.29246  0.98838  0.96819  1.0000
  C   C267      1.0  0.15326  0.98445  0.88078  1.0000
  H   H434      1.0  0.11601  0.51265  0.93686  1.0000
  H   H435      1.0  0.19399  0.79091  0.75668  1.0000
  S   S111      1.0  0.12200  0.85818  0.79672  1.0000
  H   H436      1.0  0.24249  0.54686  0.85598  1.0000
  C   C268      1.0  0.25509  0.94379  0.89378  1.0000
  H   H437      1.0  0.23545  0.86980  0.80680  1.0000
  H   H438      1.0  0.32355  0.52476  0.79915  1.0000
  C   C269      1.0  0.26621  0.55193  0.79756  1.0000
  H   H439      1.0  0.19770  0.87403  0.78779  1.0000
  C   C270      1.0  0.05435  0.55589  0.75219  1.0000
  H   H440      1.0  0.40791  0.63297  0.86380  1.0000
  H   H441      1.0  0.48397  0.52222  0.77291  1.0000
  Fe  Fe54      1.0  0.11989  0.89501  0.75854  1.0000
  H   H442      1.0  0.18724  0.51524  0.95413  1.0000
  Fe  Fe55      1.0  0.09987  0.94924  0.80212  1.0000
  Fe  Fe56      1.0  0.34385  0.99602  0.98189  1.0000
  N   N30       1.0  0.21852  0.82649  0.78439  1.0000
  C   C271      1.0  0.23145  0.92000  0.88974  1.0000
  Fe  Fe57      1.0  0.14612  0.89755  0.82386  1.0000
  H   H443      1.0  0.47133  0.56375  0.77465  1.0000
  C   C272      1.0  0.05957  0.52293  0.75859  1.0000
  H   H444      1.0  0.31296  0.56278  0.86114  1.0000
  C   C273      1.0  0.49078  0.50557  0.96730  1.0000
  C   C274      1.0  0.03650  0.81484  0.77870  1.0000
  S   S112      1.0  0.10029  0.91651  0.84350  1.0000
  H   H445      1.0  0.04104  0.88593  0.93022  1.0000
  S   S113      1.0  0.03543  0.85106  0.83231  1.0000
  C   C275      1.0  0.22454  0.93667  0.83644  1.0000
  H   H446      1.0  0.20122  0.78759  0.81316  1.0000
  H   H447      1.0  0.26681  0.94637  0.91595  1.0000
  C   C276      1.0  0.29993  0.56970  0.83965  1.0000
  H   H448      1.0  0.38070  0.53586  0.80150  1.0000
  H   H449      1.0  0.05367  0.83221  0.77001  1.0000
  S   S114      1.0  0.14792  0.93282  0.78447  1.0000
  C   C277      1.0  0.21596  0.91656  0.86116  1.0000
  H   H450      1.0  0.41551  0.63360  0.80664  1.0000
  H   H451      1.0  0.21292  0.93404  0.81424  1.0000
  C   C278      1.0  0.24881  0.95982  0.84023  1.0000
  Fe  Fe58      1.0  0.07609  0.88041  0.81270  1.0000
  H   H452      1.0  0.22499  0.90439  0.90890  1.0000
  H   H453      1.0  0.26229  0.82067  0.75879  1.0000
  H   H454      1.0  0.25377  0.53113  0.78637  1.0000
  S   S115      1.0  0.40399  0.58413  0.76005  1.0000
  S   S116      1.0  0.18645  0.88660  0.85676  1.0000
  C   C279      1.0  0.42624  0.97185  0.98318  1.0000
  S   S117      1.0  0.07169  0.91464  0.77262  1.0000
  H   H455      1.0  0.24786  0.57067  0.80294  1.0000
  C   C280      1.0  0.49527  0.51471  0.83350  1.0000
  H   H456      1.0  0.04721  0.89096  0.88921  1.0000
  S   S118      1.0  0.29341  0.99366  0.87311  1.0000
  Fe  Fe59      1.0  0.31754  0.51128  0.97266  1.0000
  H   H457      1.0  0.13197  0.97940  0.86613  1.0000
  H   H458      1.0  0.41119  0.97586  0.96329  1.0000
  H   H459      1.0  0.47403  0.59370  0.82443  1.0000
  Fe  Fe60      1.0  0.46866  0.68809  0.74304  1.0000
  C   C281      1.0  0.47334  0.54097  0.78834  1.0000
  H   H460      1.0  0.32174  0.50952  0.83803  1.0000
  H   H461      1.0  0.17090  0.96481  0.87627  1.0000
  S   S119      1.0  0.46809  0.73896  0.76186  1.0000
  C   C282      1.0  0.20380  0.81442  0.81336  1.0000
  H   H462      1.0  0.47130  0.50544  0.84040  1.0000
  N   N31       1.0  0.49268  0.54576  0.81660  1.0000
  H   H463      1.0  0.25563  0.97507  0.82092  1.0000
  H   H464      1.0  0.17962  0.82499  0.81700  1.0000
  C   C283      1.0  0.26010  0.52826  0.84834  1.0000
  C   C284      1.0  0.50723  0.79219  0.76454  1.0000
  H   H465      1.0  0.38598  0.97136  0.82164  1.0000
  C   C285      1.0  0.45952  0.97129  0.97959  1.0000
  Fe  Fe61      1.0  0.36429  0.53804  0.92511  1.0000
  S   S120      1.0  0.38505  0.58389  0.90537  1.0000
  H   H466      1.0  0.49126  0.57492  0.85805  1.0000
  C   C286      1.0  0.25058  0.81197  0.78051  1.0000
  H   H467      1.0  0.48584  0.80582  0.76995  1.0000
  H   H468      1.0  0.34438  0.97992  0.82774  1.0000
  H   H469      1.0  0.28291  0.58935  0.84603  1.0000
  C   C287      1.0  0.47713  0.57019  0.83671  1.0000
  H   H470      1.0  0.26650  0.81839  0.80022  1.0000
  S   S121      1.0  0.47914  0.64130  0.76771  1.0000
  S   S122      1.0  0.31161  0.52835  0.92364  1.0000
  C   C288      1.0  0.36584  0.98700  0.81394  1.0000
  H   H471      1.0  0.21819  0.82126  0.83405  1.0000
  H   H472      1.0  0.44860  0.53311  0.79405  1.0000
  H   H473      1.0  0.50967  0.51744  0.85501  1.0000
  H   H474      1.0  0.37291  0.53532  0.85852  1.0000
  N   N32       1.0  0.28329  0.54158  0.82581  1.0000
  C   C289      1.0  0.22152  0.86214  0.78609  1.0000
  C   C290      1.0  0.30696  0.51634  0.81763  1.0000
  C   C291      1.0  0.38978  0.58410  0.86494  1.0000
  C   C292      1.0  0.40189  0.61177  0.85020  1.0000
  C   C293      1.0  0.40628  0.61212  0.81791  1.0000
  C   C294      1.0  0.39839  0.58481  0.80033  1.0000
  C   C295      1.0  0.38627  0.55718  0.81505  1.0000
  C   C296      1.0  0.38204  0.55678  0.84730  1.0000
  H   H475      1.0  0.31791  0.58011  0.82338  1.0000
  H   H476      1.0  0.17457  0.82968  0.75859  1.0000
  C   C297      1.0  0.02929  0.88413  0.90717  1.0000
  H   H477      1.0  0.28297  0.56242  0.78015  1.0000
  H   H478      1.0  0.49566  0.52716  0.95389  1.0000
  C   C298      1.0  0.50535  0.75860  0.75975  1.0000
  S   S123      1.0  0.36907  0.52580  0.97554  1.0000
  C   C299      1.0  0.19801  0.52040  0.97636  1.0000
  H   H479      1.0  0.04346  0.98025  0.76947  1.0000
  H   H480      1.0  0.36084  0.98112  0.78924  1.0000
  H   H481      1.0  0.16624  0.99073  0.96360  1.0000
  H   H482      1.0  0.46988  0.97517  0.95690  1.0000
  H   H483      1.0  0.24649  0.50755  0.83835  1.0000
  C   C300      1.0  0.23145  0.51975  0.97947  1.0000
  H   H484      1.0  0.24639  0.51405  0.95970  1.0000
  H   H485      1.0  0.08432  0.51051  0.90896  1.0000
  H   H486      1.0  0.23380  0.87206  0.76533  1.0000
  H   H487      1.0  0.24925  0.78507  0.77914  1.0000
  H   H488      1.0  0.14567  0.98248  0.90546  1.0000
  C   C301      1.0  0.19831  0.81749  0.75765  1.0000
  Fe  Fe62      1.0  0.43767  0.62156  0.74075  1.0000
  H   H489      1.0  0.19490  0.99952  0.83555  1.0000
  C   C302      1.0  0.52494  0.55712  0.80784  1.0000
  H   H490      1.0  0.52385  0.57989  0.79398  1.0000
  C   C303      1.0  0.03806  0.50636  0.77763  1.0000
  H   H491      1.0  0.02751  0.94714  0.89247  1.0000
  C   C304      1.0  0.02821  0.57235  0.76554  1.0000
  S   S124      1.0  0.09271  0.50260  0.74252  1.0000
  C   C305      1.0  0.88737  0.01746  0.01872  1.0000
  H   H492      1.0  0.83876  0.20496  0.22507  1.0000
  S   S125      1.0  0.73002  0.37595  0.21935  1.0000
  C   C306      1.0  0.83142  0.22696  0.23670  1.0000
  C   C307      1.0  0.68700  0.03246  0.01242  1.0000
  C   C308      1.0  0.93200  0.47614  0.99855  1.0000
  S   S126      1.0  0.56572  0.02106  0.05529  1.0000
  H   H493      1.0  0.58524  0.45165  0.00878  1.0000
  S   S127      1.0  0.63797  0.42406  0.09028  1.0000
  H   H494      1.0  0.67561  0.37982  0.12654  1.0000
  H   H495      1.0  0.68263  0.49696  0.19239  1.0000
  H   H496      1.0  0.98789  0.02427  0.12399  1.0000
  S   S128      1.0  0.55830  0.47328  0.07491  1.0000
  N   N33       1.0  0.84874  0.36347  0.21304  1.0000
  H   H497      1.0  0.67559  0.36754  0.18278  1.0000
  S   S129      1.0  0.00868  0.44685  0.04815  1.0000
  H   H498      1.0  0.82120  0.01499  0.17666  1.0000
  C   C309      1.0  0.75299  0.01979  0.01223  1.0000
  H   H499      1.0  0.67650  0.45611  0.17943  1.0000
  H   H500      1.0  0.74940  0.45287  0.13021  1.0000
  H   H501      1.0  0.91105  0.01883  0.00694  1.0000
  N   N34       1.0  0.88982  0.02547  0.05205  1.0000
  C   C310      1.0  0.63610  0.41314  0.12954  1.0000
  C   C311      1.0  0.61331  0.42729  0.14912  1.0000
  C   C312      1.0  0.61352  0.42057  0.18097  1.0000
  C   C313      1.0  0.63665  0.39985  0.19338  1.0000
  C   C314      1.0  0.65868  0.38475  0.17362  1.0000
  C   C315      1.0  0.65837  0.39133  0.14171  1.0000
  H   H502      1.0  0.59532  0.44329  0.13974  1.0000
  H   H503      1.0  0.59610  0.43194  0.19606  1.0000
  Fe  Fe63      1.0  0.61078  0.47018  0.08373  1.0000
  H   H504      1.0  0.70848  0.46507  0.20574  1.0000
  C   C316      1.0  0.98408  0.46843  0.02248  1.0000
  H   H505      1.0  0.75566  0.49621  0.18738  1.0000
  N   N35       1.0  0.71677  0.48013  0.15864  1.0000
  H   H506      1.0  0.89404  0.33883  0.21474  1.0000
  C   C317      1.0  0.99541  0.49585  0.00698  1.0000
  Fe  Fe64      1.0  0.89727  0.10655  0.22387  1.0000
  H   H507      1.0  0.92558  0.06210  0.04486  1.0000
  C   C318      1.0  0.91238  0.00292  0.06714  1.0000
  H   H508      1.0  0.91443  0.00774  0.09241  1.0000
  H   H509      1.0  0.93685  0.00514  0.05714  1.0000
  H   H510      1.0  0.84603  0.41250  0.19637  1.0000
  C   C319      1.0  0.95249  0.45829  0.01782  1.0000
  C   C320      1.0  0.86868  0.33425  0.20841  1.0000
  H   H511      1.0  0.94374  0.43685  0.02952  1.0000
  H   H512      1.0  0.93202  0.02998  0.14256  1.0000
  H   H513      1.0  0.84036  0.03920  0.05572  1.0000
  S   S130      1.0  0.79368  0.00924  0.01129  1.0000
  C   C321      1.0  0.80254  0.24188  0.22865  1.0000
  H   H514      1.0  0.88574  0.39632  0.19847  1.0000
  C   C322      1.0  0.94906  0.04910  0.14689  1.0000
  H   H515      1.0  0.74610  0.00438  0.05951  1.0000
  H   H516      1.0  0.95466  0.12272  0.18194  1.0000
  S   S131      1.0  0.56446  0.01527  0.14912  1.0000
  H   H517      1.0  0.90765  0.46825  0.99517  1.0000
  H   H518      1.0  0.99416  0.10302  0.22699  1.0000
  H   H519      1.0  0.71514  0.43054  0.14342  1.0000
  C   C323      1.0  0.93979  0.07649  0.16391  1.0000
  S   S132      1.0  0.90080  0.07894  0.17881  1.0000
  C   C324      1.0  0.70175  0.02018  0.03900  1.0000
  H   H520      1.0  0.68773  0.01558  0.05961  1.0000
  C   C325      1.0  0.69515  0.47435  0.18523  1.0000
  S   S133      1.0  0.64560  0.03913  0.01119  1.0000
  C   C326      1.0  0.60177  0.43184  0.00167  1.0000
  H   H521      1.0  0.78753  0.23111  0.21102  1.0000
  H   H522      1.0  0.86165  0.00781  0.18897  1.0000
  H   H523      1.0  0.86820  0.32599  0.18383  1.0000
  S   S134      1.0  0.75623  0.28789  0.23317  1.0000
  H   H524      1.0  0.81317  0.34727  0.18050  1.0000
  H   H525      1.0  0.83647  0.03465  0.21068  1.0000
  C   C327      1.0  0.96192  0.10113  0.16956  1.0000
  C   C328      1.0  0.85797  0.02250  0.06666  1.0000
  C   C329      1.0  0.81530  0.35594  0.20484  1.0000
  H   H526      1.0  0.62269  0.43248  0.01760  1.0000
  C   C330      1.0  0.00320  0.06987  0.14324  1.0000
  H   H527      1.0  0.79975  0.37764  0.20731  1.0000
  C   C331      1.0  0.98073  0.04577  0.13656  1.0000
  H   H528      1.0  0.83168  0.49522  0.20928  1.0000
  H   H529      1.0  0.85883  0.02833  0.09184  1.0000
  H   H530      1.0  0.01076  0.11677  0.16395  1.0000
  H   H531      1.0  0.80522  0.33674  0.22005  1.0000
  C   C332      1.0  0.69810  0.49206  0.13191  1.0000
  S   S135      1.0  0.78947  0.44328  0.22566  1.0000
  C   C333      1.0  0.99359  0.09780  0.15926  1.0000
  H   H532      1.0  0.85924  0.38340  0.16808  1.0000
  S   S136      1.0  0.85391  0.13618  0.23581  1.0000
  C   C334      1.0  0.90160  0.05904  0.05572  1.0000
  H   H533      1.0  0.90394  0.06573  0.08067  1.0000
  C   C335      1.0  0.86051  0.39003  0.19306  1.0000
  H   H534      1.0  0.87068  0.03417  0.00655  1.0000
  H   H535      1.0  0.92825  0.49496  0.06728  1.0000
  S   S137      1.0  0.83829  0.48425  0.99181  1.0000
  H   H536      1.0  0.74697  0.43968  0.16988  1.0000
  H   H537      1.0  0.88511  0.07681  0.04476  1.0000
  C   C336      1.0  0.73479  0.01405  0.03898  1.0000
  C   C337      1.0  0.73281  0.44944  0.15014  1.0000
  Fe  Fe65      1.0  0.61651  0.00856  0.04371  1.0000
  H   H538      1.0  0.58916  0.40848  0.00571  1.0000
  C   C338      1.0  0.83670  0.01150  0.19730  1.0000
  H   H539      1.0  0.97911  0.06251  0.22214  1.0000
  C   C339      1.0  0.82126  0.50080  0.23163  1.0000
  H   H540      1.0  0.67953  0.47420  0.12478  1.0000
  H   H541      1.0  0.86004  0.31365  0.22286  1.0000
  S   S138      1.0  0.63835  0.39410  0.23365  1.0000
  H   H542      1.0  0.53625  0.05396  0.19733  1.0000
  H   H543      1.0  0.71366  0.49654  0.11139  1.0000
  C   C340      1.0  0.68543  0.25910  0.47447  1.0000
  S   S139      1.0  0.69914  0.34278  0.28138  1.0000
  H   H544      1.0  0.95179  0.27768  0.37646  1.0000
  C   C341      1.0  0.67565  0.37734  0.47707  1.0000
  N   N36       1.0  0.75972  0.18282  0.29972  1.0000
  S   S140      1.0  0.71341  0.42167  0.27991  1.0000
  N   N37       1.0  0.59431  0.33131  0.29813  1.0000
  H   H545      1.0  0.00603  0.03788  0.28439  1.0000
  C   C342      1.0  0.61182  0.31735  0.32468  1.0000
  H   H546      1.0  0.76430  0.18362  0.25002  1.0000
  C   C343      1.0  0.02008  0.03462  0.26258  1.0000
  C   C344      1.0  0.85035  0.37373  0.24585  1.0000
  H   H547      1.0  0.76421  0.17429  0.34876  1.0000
  S   S141      1.0  0.77358  0.36918  0.28228  1.0000
  H   H548      1.0  0.75281  0.04367  0.29385  1.0000
  Fe  Fe66      1.0  0.68824  0.38482  0.25052  1.0000
  C   C345      1.0  0.54027  0.20047  0.32943  1.0000
  C   C346      1.0  0.60858  0.31963  0.26879  1.0000
  H   H549      1.0  0.71354  0.19098  0.27941  1.0000
  C   C347      1.0  0.59624  0.36706  0.29942  1.0000
  H   H550      1.0  0.61119  0.29036  0.32433  1.0000
  S   S142      1.0  0.93159  0.14201  0.24530  1.0000
  H   H551      1.0  0.58465  0.37672  0.32078  1.0000
  S   S143      1.0  0.53341  0.23879  0.42569  1.0000
  C   C348      1.0  0.79303  0.27066  0.24322  1.0000
  H   H552      1.0  0.75701  0.22788  0.32487  1.0000
  Fe  Fe67      1.0  0.72796  0.37857  0.30846  1.0000
  H   H553      1.0  0.80009  0.16713  0.32662  1.0000
  C   C349      1.0  0.77427  0.03113  0.30099  1.0000
  H   H554      1.0  0.76963  0.47010  0.28507  1.0000
  Fe  Fe68      1.0  0.56099  0.32643  0.40845  1.0000
  S   S144      1.0  0.59494  0.28452  0.40764  1.0000
  S   S145      1.0  0.57727  0.37584  0.39335  1.0000
  Fe  Fe69      1.0  0.56933  0.26941  0.45110  1.0000
  C   C350      1.0  0.92816  0.26628  0.37196  1.0000
  H   H555      1.0  0.60762  0.29272  0.26708  1.0000
  H   H556      1.0  0.61500  0.41569  0.35288  1.0000
  S   S146      1.0  0.96590  0.10269  0.32072  1.0000
  H   H557      1.0  0.54899  0.33009  0.32140  1.0000
  S   S147      1.0  0.56368  0.23521  0.33576  1.0000
  H   H558      1.0  0.63731  0.32508  0.32477  1.0000
  S   S148      1.0  0.72414  0.37380  0.36016  1.0000
  Fe  Fe70      1.0  0.55590  0.25850  0.38239  1.0000
  N   N38       1.0  0.93173  0.23217  0.36200  1.0000
  H   H559      1.0  0.73251  0.40649  0.48494  1.0000
  H   H560      1.0  0.69981  0.25936  0.45359  1.0000
  H   H561      1.0  0.64086  0.25664  0.44973  1.0000
  C   C351      1.0  0.63081  0.39885  0.36442  1.0000
  C   C352      1.0  0.61868  0.37755  0.38676  1.0000
  C   C353      1.0  0.63946  0.35652  0.40222  1.0000
  C   C354      1.0  0.67208  0.35604  0.39463  1.0000
  Fe  Fe71      1.0  0.75653  0.40926  0.25115  1.0000
  H   H562      1.0  0.63044  0.34072  0.42012  1.0000
  H   H563      1.0  0.68799  0.33935  0.40622  1.0000
  H   H564      1.0  0.88495  0.26842  0.46748  1.0000
  C   C355      1.0  0.78628  0.48663  0.27426  1.0000
  H   H565      1.0  0.63399  0.32708  0.26674  1.0000
  C   C356      1.0  0.72245  0.34354  0.47205  1.0000
  H   H566      1.0  0.93645  0.21434  0.40862  1.0000
  C   C357      1.0  0.65198  0.25780  0.47223  1.0000
  C   C358      1.0  0.66321  0.39766  0.35612  1.0000
  C   C359      1.0  0.68386  0.37620  0.37116  1.0000
  H   H567      1.0  0.95200  0.20548  0.32397  1.0000
  H   H568      1.0  0.76788  0.13871  0.32504  1.0000
  C   C360      1.0  0.98953  0.13728  0.32725  1.0000
  H   H569      1.0  0.67229  0.41363  0.33830  1.0000
  H   H570      1.0  0.00721  0.01663  0.24797  1.0000
  H   H571      1.0  0.76881  0.14418  0.26730  1.0000
  H   H572      1.0  0.62153  0.37548  0.29932  1.0000
  C   C361      1.0  0.72475  0.17790  0.29919  1.0000
  C   C362      1.0  0.01656  0.18534  0.30804  1.0000
  H   H573      1.0  0.73085  0.35736  0.45142  1.0000
  H   H574      1.0  0.68284  0.39177  0.45637  1.0000
  H   H575      1.0  0.53942  0.20667  0.27982  1.0000
  Fe  Fe72      1.0  0.88780  0.16849  0.26173  1.0000
  S   S149      1.0  0.88711  0.22250  0.26953  1.0000
  Fe  Fe73      1.0  0.85301  0.10644  0.27918  1.0000
  S   S150      1.0  0.89430  0.07472  0.26588  1.0000
  Fe  Fe74      1.0  0.92489  0.11270  0.28847  1.0000
  C   C363      1.0  0.99740  0.15800  0.30275  1.0000
  H   H576      1.0  0.79293  0.22247  0.30246  1.0000
  H   H577      1.0  0.90173  0.19180  0.35055  1.0000
  H   H578      1.0  0.84189  0.35423  0.26166  1.0000
  H   H579      1.0  0.71330  0.18691  0.32089  1.0000
  H   H580      1.0  0.80498  0.30639  0.27769  1.0000
  H   H581      1.0  0.98920  0.15276  0.27960  1.0000
  C   C364      1.0  0.56048  0.32127  0.29967  1.0000
  H   H582      1.0  0.87516  0.38009  0.25273  1.0000
  S   S151      1.0  0.53767  0.31340  0.45367  1.0000
  C   C365      1.0  0.84171  0.26994  0.27358  1.0000
  C   C366      1.0  0.80302  0.04822  0.30384  1.0000
  S   S152      1.0  0.80433  0.08949  0.29399  1.0000
  H   H583      1.0  0.95234  0.18793  0.37920  1.0000
  S   S153      1.0  0.88309  0.14110  0.30620  1.0000
  H   H584      1.0  0.54664  0.33116  0.27982  1.0000
  H   H585      1.0  0.93746  0.24485  0.31392  1.0000
  C   C367      1.0  0.94969  0.23086  0.33248  1.0000
  H   H586      1.0  0.79092  0.01330  0.24037  1.0000
  C   C368      1.0  0.77384  0.17049  0.27054  1.0000
  C   C369      1.0  0.77357  0.16506  0.32624  1.0000
  C   C370      1.0  0.00114  0.14392  0.35702  1.0000
  H   H587      1.0  0.55820  0.29437  0.29923  1.0000
  C   C371      1.0  0.83053  0.03204  0.31368  1.0000
  H   H588      1.0  0.91423  0.26815  0.39394  1.0000
  C   C372      1.0  0.81254  0.28462  0.26585  1.0000
  H   H589      1.0  0.85678  0.28071  0.29113  1.0000
  H   H590      1.0  0.80027  0.17337  0.27039  1.0000
  H   H591      1.0  0.85262  0.04524  0.31666  1.0000
  C   C373      1.0  0.89980  0.21768  0.35756  1.0000
  H   H592      1.0  0.71863  0.15173  0.29679  1.0000
  H   H593      1.0  0.75595  0.23196  0.28352  1.0000
  C   C374      1.0  0.85103  0.24097  0.25915  1.0000
  C   C375      1.0  0.76673  0.21779  0.30283  1.0000
  C   C376      1.0  0.94923  0.21379  0.38595  1.0000
  H   H594      1.0  0.97425  0.24085  0.33516  1.0000
  H   H595      1.0  0.97345  0.22412  0.38995  1.0000
  S   S154      1.0  0.95096  0.26773  0.45050  1.0000
  H   H596      1.0  0.88543  0.21870  0.37929  1.0000
  H   H597      1.0  0.91564  0.28103  0.35417  1.0000
  H   H598      1.0  0.88623  0.23048  0.33907  1.0000
  C   C377      1.0  0.99221  0.07887  0.23826  1.0000
  Fe  Fe75      1.0  0.00432  0.27255  0.44336  1.0000
  H   H599      1.0  0.58438  0.37846  0.27910  1.0000
  H   H600      1.0  0.60118  0.32530  0.34710  1.0000
  Fe  Fe76      1.0  0.74335  0.33678  0.25275  1.0000
  C   C378      1.0  0.79960  0.47922  0.24534  1.0000
  H   H601      1.0  0.83522  0.39554  0.25021  1.0000
  C   C379      1.0  0.01957  0.17181  0.36250  1.0000
  H   H602      1.0  0.99547  0.12774  0.37599  1.0000
  H   H603      1.0  0.97707  0.08195  0.25927  1.0000
  S   S155      1.0  0.01957  0.29332  0.39760  1.0000
  H   H604      1.0  0.53670  0.18769  0.37768  1.0000
  H   H605      1.0  0.70799  0.32279  0.46347  1.0000
  H   H606      1.0  0.59609  0.32996  0.24829  1.0000
  H   H607      1.0  0.02260  0.20123  0.28897  1.0000
  H   H608      1.0  0.65979  0.35750  0.46875  1.0000
  H   H609      1.0  0.74385  0.33306  0.48363  1.0000
  N   N39       1.0  0.02401  0.06576  0.24612  1.0000
  C   C380      1.0  0.93128  0.28436  0.48301  1.0000
  C   C381      1.0  0.53105  0.19235  0.29920  1.0000
  C   C382      1.0  0.52941  0.18182  0.35434  1.0000
  H   H610      1.0  0.84746  0.00317  0.25750  1.0000
  C   C383      1.0  0.89801  0.28087  0.48552  1.0000
  C   C384      1.0  0.02727  0.19259  0.33800  1.0000
  H   H611      1.0  0.68158  0.27593  0.73666  1.0000
  S   S156      1.0  0.74228  0.26362  0.50529  1.0000
  S   S157      1.0  0.73812  0.29035  0.59386  1.0000
  S   S158      1.0  0.72667  0.38112  0.60123  1.0000
  N   N40       1.0  0.70377  0.36422  0.49350  1.0000
  C   C385      1.0  0.68666  0.32483  0.69585  1.0000
  H   H612      1.0  0.67617  0.32531  0.51299  1.0000
  Fe  Fe77      1.0  0.76468  0.28227  0.54940  1.0000
  H   H613      1.0  0.74531  0.38217  0.51711  1.0000
  C   C386      1.0  0.64807  0.25759  0.52815  1.0000
  C   C387      1.0  0.68154  0.25943  0.53039  1.0000
  C   C388      1.0  0.60175  0.01011  0.64462  1.0000
  H   H614      1.0  0.63372  0.25666  0.54901  1.0000
  H   H615      1.0  0.69275  0.25969  0.55288  1.0000
  Fe  Fe78      1.0  0.76047  0.33962  0.59263  1.0000
  H   H616      1.0  0.69340  0.34988  0.68897  1.0000
  H   H617      1.0  0.72245  0.26261  0.73396  1.0000
  H   H618      1.0  0.68034  0.31152  0.67426  1.0000
  H   H619      1.0  0.61929  0.02643  0.63307  1.0000
  H   H620      1.0  0.67788  0.41088  0.63862  1.0000
  H   H621      1.0  0.84160  0.27943  0.64859  1.0000
  H   H622      1.0  0.69726  0.26069  0.70050  1.0000
  C   C389      1.0  0.72692  0.39504  0.63978  1.0000
  H   H623      1.0  0.93525  0.17897  0.57738  1.0000
  C   C390      1.0  0.63317  0.25701  0.49907  1.0000
  C   C391      1.0  0.75407  0.40292  0.68892  1.0000
  C   C392      1.0  0.69300  0.34472  0.52029  1.0000
  C   C393      1.0  0.70308  0.27552  0.72132  1.0000
  C   C394      1.0  0.75444  0.39249  0.65793  1.0000
  H   H624      1.0  0.67702  0.42866  0.69360  1.0000
  C   C395      1.0  0.69913  0.40849  0.65266  1.0000
  S   S159      1.0  0.78463  0.24169  0.65867  1.0000
  H   H625      1.0  0.55017  0.35228  0.71120  1.0000
  C   C396      1.0  0.87879  0.25602  0.67420  1.0000
  S   S160      1.0  0.78472  0.33265  0.54668  1.0000
  H   H626      1.0  0.89675  0.27335  0.66719  1.0000
  C   C397      1.0  0.61412  0.03229  0.69497  1.0000
  C   C398      1.0  0.52884  0.33931  0.70197  1.0000
  H   H627      1.0  0.86452  0.22118  0.61102  1.0000
  C   C399      1.0  0.54822  0.28796  0.72103  1.0000
  S   S161      1.0  0.59113  0.25498  0.49690  1.0000
  S   S162      1.0  0.92789  0.22328  0.70057  1.0000
  C   C400      1.0  0.69857  0.41836  0.68384  1.0000
  H   H628      1.0  0.53419  0.33228  0.67758  1.0000
  N   N41       1.0  0.71298  0.30866  0.71257  1.0000
  H   H629      1.0  0.86993  0.18782  0.71748  1.0000
  C   C401      1.0  0.86358  0.20817  0.70296  1.0000
  C   C402      1.0  0.72601  0.41541  0.70206  1.0000
  H   H630      1.0  0.97742  0.49508  0.70118  1.0000
  H   H631      1.0  0.76171  0.29427  0.70384  1.0000
  H   H632      1.0  0.89716  0.27009  0.60679  1.0000
  H   H633      1.0  0.73637  0.29334  0.67051  1.0000
  H   H634      1.0  0.62199  0.02722  0.71911  1.0000
  H   H635      1.0  0.54305  0.26619  0.73540  1.0000
  C   C403      1.0  0.83177  0.21230  0.69313  1.0000
  C   C404      1.0  0.70032  0.26028  0.50353  1.0000
  H   H636      1.0  0.77546  0.40087  0.70281  1.0000
  H   H637      1.0  0.66479  0.32659  0.71056  1.0000
  C   C405      1.0  0.94799  0.30050  0.50640  1.0000
  C   C406      1.0  0.82376  0.23777  0.67305  1.0000
  H   H638      1.0  0.77619  0.38293  0.64795  1.0000
  C   C407      1.0  0.88720  0.22982  0.69301  1.0000
  H   H639      1.0  0.91619  0.23998  0.54287  1.0000
  H   H640      1.0  0.89113  0.20493  0.54721  1.0000
  H   H641      1.0  0.95910  0.21501  0.57389  1.0000
  Fe  Fe79      1.0  0.82592  0.31282  0.57390  1.0000
  S   S163      1.0  0.80828  0.26155  0.57264  1.0000
  S   S164      1.0  0.87837  0.32425  0.56791  1.0000
  C   C408      1.0  0.91893  0.25484  0.60377  1.0000
  S   S165      1.0  0.80347  0.32498  0.61996  1.0000
  C   C409      1.0  0.88146  0.29350  0.51122  1.0000
  C   C410      1.0  0.89816  0.30962  0.53463  1.0000
  C   C411      1.0  0.93143  0.31314  0.53214  1.0000
  C   C412      1.0  0.84735  0.25970  0.66388  1.0000
  H   H642      1.0  0.85581  0.29071  0.51295  1.0000
  H   H643      1.0  0.94442  0.32567  0.55018  1.0000
  H   H644      1.0  0.81361  0.19525  0.70034  1.0000
  Fe  Fe80      1.0  0.78349  0.27473  0.61711  1.0000
  H   H645      1.0  0.95031  0.19858  0.61157  1.0000
  C   C413      1.0  0.89824  0.22819  0.55827  1.0000
  C   C414      1.0  0.94024  0.20301  0.58805  1.0000
  C   C415      1.0  0.88683  0.20655  0.60908  1.0000
  H   H646      1.0  0.87684  0.24422  0.55878  1.0000
  H   H647      1.0  0.93009  0.25187  0.62700  1.0000
  H   H648      1.0  0.88018  0.18258  0.59924  1.0000
  H   H649      1.0  0.93575  0.26888  0.58894  1.0000
  H   H650      1.0  0.89575  0.20236  0.63306  1.0000
  N   N42       1.0  0.91105  0.22313  0.58978  1.0000
  H   H651      1.0  0.55388  0.27925  0.69722  1.0000
  H   H652      1.0  0.59063  0.04501  0.69653  1.0000
  H   H653      1.0  0.53530  0.28804  0.52430  1.0000
  C   C416      1.0  0.74147  0.30691  0.69228  1.0000
  H   H654      1.0  0.66111  0.39330  0.49242  1.0000
  H   H655      1.0  0.71069  0.40719  0.52102  1.0000
  H   H656      1.0  0.74992  0.33143  0.68550  1.0000
  C   C417      1.0  0.72394  0.39125  0.50454  1.0000
  H   H657      1.0  0.63154  0.04957  0.68463  1.0000
  H   H658      1.0  0.57015  0.29952  0.73057  1.0000
  H   H659      1.0  0.97362  0.30333  0.50462  1.0000
  H   H660      1.0  0.54058  0.23418  0.54845  1.0000
  H   H661      1.0  0.57814  0.02263  0.64447  1.0000
  H   H662      1.0  0.71345  0.33266  0.53205  1.0000
  H   H663      1.0  0.68065  0.35991  0.53800  1.0000
  H   H664      1.0  0.72796  0.35262  0.73508  1.0000
  N   N43       1.0  0.61174  0.00213  0.67656  1.0000
  H   H665      1.0  0.93076  0.49460  0.73709  1.0000
  H   H666      1.0  0.99611  0.26406  0.91362  1.0000
  C   C418      1.0  0.73171  0.41084  0.90239  1.0000
  C   C419      1.0  0.68304  0.44058  0.89125  1.0000
  H   H667      1.0  0.58983  0.43693  0.92385  1.0000
  H   H668      1.0  0.74564  0.38877  0.90084  1.0000
  S   S166      1.0  0.62844  0.31179  0.77497  1.0000
  Fe  Fe81      1.0  0.67748  0.41907  0.76396  1.0000
  C   C420      1.0  0.54440  0.07179  0.75221  1.0000
  C   C421      1.0  0.70106  0.41210  0.88925  1.0000
  H   H669      1.0  0.60575  0.24657  0.77043  1.0000
  S   S167      1.0  0.97645  0.07488  0.74895  1.0000
  C   C422      1.0  0.58312  0.43442  0.94877  1.0000
  C   C423      1.0  0.59563  0.29240  0.79242  1.0000
  C   C424      1.0  0.58932  0.25997  0.78503  1.0000
  C   C425      1.0  0.57463  0.30929  0.81188  1.0000
  S   S168      1.0  0.64833  0.45826  0.78652  1.0000
  H   H670      1.0  0.57962  0.33406  0.81822  1.0000
  C   C426      1.0  0.78436  0.47201  0.80489  1.0000
  N   N44       1.0  0.75349  0.47928  0.82008  1.0000
  H   H671      1.0  0.62209  0.38466  0.96360  1.0000
  S   S169      1.0  0.91807  0.14597  0.75916  1.0000
  H   H672      1.0  0.69137  0.39099  0.87770  1.0000
  C   C427      1.0  0.00833  0.30766  0.78776  1.0000
  C   C428      1.0  0.74461  0.43819  0.91704  1.0000
  C   C429      1.0  0.69560  0.46767  0.90645  1.0000
  H   H673      1.0  0.78074  0.45871  0.78262  1.0000
  C   C430      1.0  0.72642  0.46657  0.91901  1.0000
  H   H674      1.0  0.99623  0.28099  0.85810  1.0000
  H   H675      1.0  0.92925  0.09014  0.85887  1.0000
  S   S170      1.0  0.67611  0.38614  0.80524  1.0000
  H   H676      1.0  0.72409  0.01682  0.83878  1.0000
  C   C431      1.0  0.73369  0.49939  0.79926  1.0000
  H   H677      1.0  0.71668  0.01957  0.79777  1.0000
  Fe  Fe82      1.0  0.60619  0.43221  0.76618  1.0000
  H   H678      1.0  0.79782  0.49458  0.79957  1.0000
  H   H679      1.0  0.89495  0.06475  0.86429  1.0000
  Fe  Fe83      1.0  0.63220  0.36559  0.78302  1.0000
  C   C432      1.0  0.01466  0.02235  0.75962  1.0000
  C   C433      1.0  0.97030  0.25802  0.91123  1.0000
  Fe  Fe84      1.0  0.80364  0.48280  0.95188  1.0000
  C   C434      1.0  0.00966  0.05541  0.76546  1.0000
  H   H680      1.0  0.95634  0.27980  0.91835  1.0000
  C   C435      1.0  0.75914  0.49690  0.84945  1.0000
  H   H681      1.0  0.73349  0.43384  0.80540  1.0000
  S   S171      1.0  0.64503  0.44308  0.87446  1.0000
  S   S172      1.0  0.84642  0.02661  0.93592  1.0000
  H   H682      1.0  0.97635  0.19836  0.88624  1.0000
  H   H683      1.0  0.92163  0.21970  0.89223  1.0000
  C   C436      1.0  0.54661  0.29428  0.82264  1.0000
  H   H684      1.0  0.75010  0.43346  0.84355  1.0000
  C   C437      1.0  0.62807  0.46682  0.96473  1.0000
  H   H685      1.0  0.91302  0.26144  0.88339  1.0000
  S   S173      1.0  0.59857  0.39973  0.80722  1.0000
  Fe  Fe85      1.0  0.64296  0.42310  0.82584  1.0000
  H   H686      1.0  0.92683  0.08275  0.80252  1.0000
  H   H687      1.0  0.60031  0.02093  0.89342  1.0000
  C   C438      1.0  0.57068  0.05274  0.76058  1.0000
  H   H688      1.0  0.02653  0.09743  0.79011  1.0000
  H   H689      1.0  0.97514  0.02741  0.81463  1.0000
  C   C439      1.0  0.56123  0.24506  0.79558  1.0000
  C   C440      1.0  0.56799  0.01891  0.76194  1.0000
  S   S174      1.0  0.99081  0.17050  0.74001  1.0000
  C   C441      1.0  0.96673  0.04330  0.83385  1.0000
  S   S175      1.0  0.54974  0.11372  0.74773  1.0000
  C   C442      1.0  0.53915  0.00381  0.75445  1.0000
  S   S176      1.0  0.72551  0.42627  0.74148  1.0000
  H   H690      1.0  0.92633  0.04298  0.78595  1.0000
  H   H691      1.0  0.96479  0.23829  0.92800  1.0000
  H   H692      1.0  0.92161  0.23316  0.85288  1.0000
  N   N45       1.0  0.93148  0.04400  0.83558  1.0000
  H   H693      1.0  0.58846  0.00463  0.76818  1.0000
  C   C443      1.0  0.63357  0.40874  0.96038  1.0000
  H   H694      1.0  0.64107  0.41045  0.93565  1.0000
  Fe  Fe86      1.0  0.96835  0.12701  0.76241  1.0000
  Fe  Fe87      1.0  0.81552  0.01594  0.89472  1.0000
  H   H695      1.0  0.75235  0.03836  0.96564  1.0000
  S   S177      1.0  0.63594  0.39586  0.74015  1.0000
  Fe  Fe88      1.0  0.94114  0.19123  0.74074  1.0000
  H   H696      1.0  0.58965  0.03242  0.94870  1.0000
  S   S178      1.0  0.56218  0.45441  0.74480  1.0000
  C   C444      1.0  0.73666  0.44861  0.82670  1.0000
  C   C445      1.0  0.01073  0.27378  0.78817  1.0000
  H   H697      1.0  0.63515  0.47049  0.94010  1.0000
  C   C446      1.0  0.59124  0.00594  0.95333  1.0000
  S   S179      1.0  0.80480  0.04716  0.85361  1.0000
  H   H698      1.0  0.69422  0.04921  0.96566  1.0000
  Fe  Fe89      1.0  0.92801  0.16709  0.80619  1.0000
  C   C447      1.0  0.91923  0.01074  0.84009  1.0000
  S   S180      1.0  0.89922  0.16593  0.85017  1.0000
  Fe  Fe90      1.0  0.99409  0.19048  0.78820  1.0000
  H   H699      1.0  0.93120  0.05546  0.88426  1.0000
  C   C448      1.0  0.98173  0.21926  0.87080  1.0000
  C   C449      1.0  0.91852  0.05744  0.80645  1.0000
  S   S181      1.0  0.94603  0.21421  0.78757  1.0000
  S   S182      1.0  0.97649  0.14489  0.81072  1.0000
  H   H700      1.0  0.95683  0.29743  0.86361  1.0000
  H   H701      1.0  0.00786  0.22423  0.87196  1.0000
  H   H702      1.0  0.99348  0.25942  0.77574  1.0000
  C   C450      1.0  0.56159  0.49672  0.73959  1.0000
  H   H703      1.0  0.89196  0.05783  0.80666  1.0000
  C   C451      1.0  0.97029  0.27498  0.85771  1.0000
  H   H704      1.0  0.71244  0.45317  0.83638  1.0000
  H   H705      1.0  0.79969  0.45657  0.81994  1.0000
  H   H706      1.0  0.69958  0.32902  0.75665  1.0000
  H   H707      1.0  0.59325  0.06426  0.76579  1.0000
  C   C452      1.0  0.92825  0.24037  0.87691  1.0000
  C   C453      1.0  0.82849  0.08211  0.85287  1.0000
  C   C454      1.0  0.83901  0.09637  0.88044  1.0000
  C   C455      1.0  0.85990  0.12293  0.87945  1.0000
  C   C456      1.0  0.87073  0.13484  0.85091  1.0000
  C   C457      1.0  0.85963  0.12101  0.82338  1.0000
  C   C458      1.0  0.83820  0.09493  0.82436  1.0000
  H   H708      1.0  0.83096  0.08705  0.90251  1.0000
  H   H709      1.0  0.86818  0.13379  0.90080  1.0000
  H   H710      1.0  0.86726  0.13060  0.80131  1.0000
  H   H711      1.0  0.82979  0.08421  0.80298  1.0000
  H   H712      1.0  0.54434  0.01974  0.91308  1.0000
  H   H713      1.0  0.97671  0.21122  0.84674  1.0000
  S   S183      1.0  0.78382  0.43668  0.93153  1.0000
  N   N46       1.0  0.96264  0.24816  0.87917  1.0000
  H   H714      1.0  0.98887  0.31916  0.77545  1.0000
  H   H715      1.0  0.55644  0.22012  0.78952  1.0000
  H   H716      1.0  0.72890  0.48665  0.77694  1.0000
  H   H717      1.0  0.97664  0.06793  0.82946  1.0000
  H   H718      1.0  0.65566  0.40918  0.97471  1.0000
  C   C459      1.0  0.53940  0.26247  0.81367  1.0000
  C   C460      1.0  0.72063  0.32738  0.74083  1.0000
  C   C461      1.0  0.92137  0.06453  0.86193  1.0000
  H   H719      1.0  0.73616  0.48786  0.92980  1.0000
  H   H720      1.0  0.68186  0.48986  0.90777  1.0000
  H   H721      1.0  0.96412  0.26851  0.83340  1.0000
  H   H722      1.0  0.52998  0.30774  0.83696  1.0000
  H   H723      1.0  0.65005  0.46833  0.97912  1.0000
  H   H724      1.0  0.61230  0.48748  0.97135  1.0000
  H   H725      1.0  0.53528  0.33328  0.76376  1.0000
  C   C462      1.0  0.73830  0.03269  0.98594  1.0000
  H   H726      1.0  0.97747  0.03405  0.85568  1.0000
  N   N47       1.0  0.61163  0.43543  0.96891  1.0000
  H   H727      1.0  0.99897  0.00953  0.74393  1.0000
  H   H728      1.0  0.75612  0.02604  0.81269  1.0000
  H   H729      1.0  0.74052  0.31601  0.75398  1.0000
  H   H730      1.0  0.56987  0.41122  0.95142  1.0000
  H   H731      1.0  0.77362  0.48216  0.86592  1.0000
  H   H732      1.0  0.56625  0.45451  0.95441  1.0000
  C   C463      1.0  0.73411  0.01116  0.81545  1.0000
  H   H733      1.0  0.89266  0.01052  0.84174  1.0000
  C   C464      1.0  0.70542  0.03915  0.98608  1.0000
  H   H734      1.0  0.71821  0.61081  0.03853  1.0000
  C   C465      1.0  0.00718  0.53811  0.14265  1.0000
  H   H735      1.0  0.95239  0.52788  0.05340  1.0000
  H   H736      1.0  0.63383  0.95199  0.15469  1.0000
  S   S184      1.0  0.74730  0.92515  0.18374  1.0000
  Fe  Fe91      1.0  0.57568  0.99719  0.10114  1.0000
  H   H737      1.0  0.69217  0.63636  0.01660  1.0000
  H   H738      1.0  0.71860  0.59432  0.11710  1.0000
  Fe  Fe92      1.0  0.61227  0.94186  0.07319  1.0000
  Fe  Fe93      1.0  0.62042  0.54239  0.08129  1.0000
  S   S185      1.0  0.64027  0.89682  0.08445  1.0000
  H   H739      1.0  0.72910  0.65211  0.03164  1.0000
  H   H740      1.0  0.00139  0.97913  0.00808  1.0000
  H   H741      1.0  0.01720  0.51631  0.13268  1.0000
  C   C466      1.0  0.74376  0.93346  0.00073  1.0000
  H   H742      1.0  0.66613  0.96820  0.17716  1.0000
  H   H743      1.0  0.96032  0.51744  0.14870  1.0000
  Fe  Fe94      1.0  0.55493  0.97065  0.03894  1.0000
  H   H744      1.0  0.75773  0.50954  0.14774  1.0000
  C   C467      1.0  0.72335  0.57727  0.09854  1.0000
  C   C468      1.0  0.69805  0.56491  0.08102  1.0000
  H   H745      1.0  0.63566  0.90117  0.18481  1.0000
  H   H746      1.0  0.01982  0.50351  0.01000  1.0000
  H   H747      1.0  0.66545  0.85783  0.13393  1.0000
  H   H748      1.0  0.66859  0.92718  0.02999  1.0000
  H   H749      1.0  0.87807  0.99244  0.01521  1.0000
  H   H750      1.0  0.69991  0.95372  0.04209  1.0000
  S   S186      1.0  0.65919  0.57931  0.08803  1.0000
  C   C469      1.0  0.67078  0.90411  0.11142  1.0000
  C   C470      1.0  0.68774  0.93328  0.11090  1.0000
  C   C471      1.0  0.71175  0.93916  0.13273  1.0000
  C   C472      1.0  0.71843  0.91620  0.15565  1.0000
  C   C473      1.0  0.70180  0.88681  0.15604  1.0000
  C   C474      1.0  0.67825  0.88061  0.13366  1.0000
  H   H751      1.0  0.68264  0.95128  0.09355  1.0000
  H   H752      1.0  0.72473  0.96184  0.13222  1.0000
  H   H753      1.0  0.70731  0.86871  0.17332  1.0000
  H   H754      1.0  0.68516  0.53384  0.04290  1.0000
  S   S187      1.0  0.55042  0.51391  0.99182  1.0000
  C   C475      1.0  0.75487  0.56802  0.09192  1.0000
  S   S188      1.0  0.60529  0.95952  0.02479  1.0000
  C   C476      1.0  0.59220  0.94596  0.20191  1.0000
  N   N48       1.0  0.71483  0.91598  0.01114  1.0000
  H   H755      1.0  0.81070  0.95567  0.17720  1.0000
  S   S189      1.0  0.56836  0.55286  0.07271  1.0000
  N   N49       1.0  0.62735  0.94857  0.20404  1.0000
  H   H756      1.0  0.85090  0.94794  0.18987  1.0000
  H   H757      1.0  0.58077  0.97036  0.20073  1.0000
  C   C477      1.0  0.92003  0.57515  0.08365  1.0000
  C   C478      1.0  0.72309  0.89379  0.03681  1.0000
  H   H758      1.0  0.89984  0.59250  0.08643  1.0000
  S   S190      1.0  0.85788  0.61857  0.22086  1.0000
  C   C479      1.0  0.71773  0.63046  0.02092  1.0000
  H   H759      1.0  0.68013  0.88298  0.99240  1.0000
  S   S191      1.0  0.62783  0.99015  0.09120  1.0000
  C   C480      1.0  0.70444  0.54308  0.05688  1.0000
  H   H760      1.0  0.86612  0.54698  0.10360  1.0000
  Fe  Fe95      1.0  0.80982  0.52745  0.00726  1.0000
  H   H761      1.0  0.84825  0.99752  0.06405  1.0000
  C   C481      1.0  0.76137  0.54706  0.06719  1.0000
  N   N50       1.0  0.90853  0.54234  0.07560  1.0000
  H   H762      1.0  0.68569  0.51529  0.13738  1.0000
  C   C482      1.0  0.97841  0.96992  0.00091  1.0000
  H   H763      1.0  0.73311  0.90727  0.05697  1.0000
  S   S192      1.0  0.87090  0.71590  0.22186  1.0000
  H   H764      1.0  0.91676  0.92382  0.02718  1.0000
  S   S193      1.0  0.93043  0.64763  0.22631  1.0000
  H   H765      1.0  0.76906  0.59105  0.01574  1.0000
  N   N51       1.0  0.82561  0.98398  0.21648  1.0000
  C   C483      1.0  0.73611  0.53432  0.04984  1.0000
  C   C484      1.0  0.01330  0.59336  0.16053  1.0000
  H   H766      1.0  0.77431  0.57796  0.10543  1.0000
  H   H767      1.0  0.74107  0.87545  0.02943  1.0000
  Fe  Fe96      1.0  0.02050  0.96597  0.07043  1.0000
  Fe  Fe97      1.0  0.88083  0.66471  0.23728  1.0000
  H   H768      1.0  0.81744  0.93277  0.21172  1.0000
  H   H769      1.0  0.63280  0.90232  0.22645  1.0000
  H   H770      1.0  0.84758  0.78074  0.21514  1.0000
  Fe  Fe98      1.0  0.57147  0.51080  0.03966  1.0000
  C   C485      1.0  0.88698  0.53050  0.10032  1.0000
  H   H771      1.0  0.89955  0.52891  0.12299  1.0000
  C   C486      1.0  0.64154  0.91580  0.20573  1.0000
  C   C487      1.0  0.96182  0.56678  0.16490  1.0000
  S   S194      1.0  0.80129  0.53844  0.05761  1.0000
  S   S195      1.0  0.56046  0.94749  0.08585  1.0000
  Fe  Fe99      1.0  0.55920  0.51467  0.10870  1.0000
  S   S196      1.0  0.97283  0.94392  0.05932  1.0000
  H   H772      1.0  0.93329  0.57505  0.10599  1.0000
  H   H773      1.0  0.84654  0.54612  0.23616  1.0000
  Fe  Fe100     1.0  0.90796  0.60008  0.21466  1.0000
  H   H774      1.0  0.97078  0.61607  0.17878  1.0000
  C   C488      1.0  0.97496  0.53881  0.15161  1.0000
  S   S197      1.0  0.61094  0.50833  0.12055  1.0000
  H   H775      1.0  0.75503  0.94705  0.02017  1.0000
  C   C489      1.0  0.93609  0.52015  0.07242  1.0000
  C   C490      1.0  0.96021  0.95104  0.02125  1.0000
  C   C491      1.0  0.69077  0.93957  0.02212  1.0000
  S   S198      1.0  0.92117  0.56717  0.17487  1.0000
  H   H776      1.0  0.72977  0.52798  0.17398  1.0000
  C   C492      1.0  0.98096  0.59416  0.16919  1.0000
  Fe  Fe101     1.0  0.74041  0.89992  0.22940  1.0000
  H   H777      1.0  0.95052  0.51927  0.09396  1.0000
  C   C493      1.0  0.63969  0.96551  0.17631  1.0000
  H   H778      1.0  0.66805  0.91701  0.20745  1.0000
  H   H779      1.0  0.58202  0.93311  0.22235  1.0000
  H   H780      1.0  0.86981  0.55987  0.04762  1.0000
  H   H781      1.0  0.88207  0.51914  0.03920  1.0000
  H   H782      1.0  0.93647  0.58482  0.06559  1.0000
  N   N52       1.0  0.73436  0.62053  0.99215  1.0000
  C   C494      1.0  0.82633  0.95380  0.19798  1.0000
  H   H783      1.0  0.74093  0.51765  0.03105  1.0000
  C   C495      1.0  0.93069  0.93882  0.01164  1.0000
  H   H784      1.0  0.98942  0.56145  0.22852  1.0000
  H   H785      1.0  0.76207  0.91658  0.99115  1.0000
  C   C496      1.0  0.89096  0.54356  0.04596  1.0000
  H   H786      1.0  0.62905  0.99018  0.17400  1.0000
  H   H787      1.0  0.70161  0.88059  0.04549  1.0000
  C   C497      1.0  0.02650  0.56529  0.14738  1.0000
  H   H788      1.0  0.58488  0.93257  0.18065  1.0000
  C   C498      1.0  0.54146  0.54519  0.23032  1.0000
  H   H789      1.0  0.90641  0.55240  0.02669  1.0000
  H   H790      1.0  0.71807  0.57120  0.99480  1.0000
  H   H791      1.0  0.90490  0.97720  0.06424  1.0000
  S   S199      1.0  0.62420  0.50371  0.04518  1.0000
  C   C499      1.0  0.76778  0.61189  0.99939  1.0000
  H   H792      1.0  0.56265  0.55927  0.22245  1.0000
  C   C500      1.0  0.74104  0.50452  0.16731  1.0000
  H   H793      1.0  0.78074  0.63249  0.01028  1.0000
  C   C501      1.0  0.79259  0.99018  0.22715  1.0000
  H   H794      1.0  0.68412  0.95720  0.00369  1.0000
  H   H795      1.0  0.77564  0.99163  0.20734  1.0000
  C   C502      1.0  0.83196  0.76825  0.23118  1.0000
  H   H796      1.0  0.99762  0.60361  0.23545  1.0000
  H   H797      1.0  0.62537  0.99179  0.23191  1.0000
  C   C503      1.0  0.63594  0.96700  0.23222  1.0000
  H   H798      1.0  0.66231  0.96960  0.23443  1.0000
  H   H799      1.0  0.87736  0.50605  0.09478  1.0000
  H   H800      1.0  0.87173  0.97479  0.23656  1.0000
  H   H801      1.0  0.53337  0.61001  0.23560  1.0000
  C   C504      1.0  0.97513  0.51338  0.98734  1.0000
  Fe  Fe102     1.0  0.69478  0.89105  0.28357  1.0000
  C   C505      1.0  0.54369  0.56799  0.28183  1.0000
  C   C506      1.0  0.68826  0.76451  0.33497  1.0000
  Fe  Fe103     1.0  0.74756  0.84232  0.27301  1.0000
  S   S200      1.0  0.72404  0.93320  0.26724  1.0000
  H   H802      1.0  0.70309  0.78322  0.34674  1.0000
  H   H803      1.0  0.63374  0.76769  0.36807  1.0000
  Fe  Fe104     1.0  0.76384  0.91077  0.29445  1.0000
  H   H804      1.0  0.70250  0.75545  0.31488  1.0000
  S   S201      1.0  0.73301  0.87150  0.31460  1.0000
  C   C507      1.0  0.82969  0.52967  0.24682  1.0000
  H   H805      1.0  0.65246  0.74464  0.28679  1.0000
  C   C508      1.0  0.78578  0.76880  0.26533  1.0000
  H   H806      1.0  0.63465  0.73126  0.32260  1.0000
  C   C509      1.0  0.63923  0.75290  0.30779  1.0000
  H   H807      1.0  0.93301  0.69800  0.28000  1.0000
  S   S202      1.0  0.75308  0.78887  0.28249  1.0000
  S   S203      1.0  0.64240  0.89264  0.29520  1.0000
  S   S204      1.0  0.70731  0.85961  0.24296  1.0000
  C   C510      1.0  0.82944  0.99866  0.31993  1.0000
  C   C511      1.0  0.97507  0.65610  0.33785  1.0000
  C   C512      1.0  0.99914  0.68692  0.37993  1.0000
  H   H808      1.0  0.91366  0.74379  0.35157  1.0000
  S   S205      1.0  0.78217  0.87976  0.25554  1.0000
  Fe  Fe105     1.0  0.00674  0.73466  0.44697  1.0000
  H   H809      1.0  0.68497  0.74388  0.35126  1.0000
  H   H810      1.0  0.95087  0.72354  0.34426  1.0000
  H   H811      1.0  0.67541  0.82541  0.45530  1.0000
  Fe  Fe106     1.0  0.57753  0.81024  0.43699  1.0000
  S   S206      1.0  0.60373  0.76328  0.43248  1.0000
  S   S207      1.0  0.61046  0.85315  0.43376  1.0000
  Fe  Fe107     1.0  0.57385  0.74745  0.47287  1.0000
  H   H812      1.0  0.67771  0.79930  0.28381  1.0000
  H   H813      1.0  0.55184  0.54457  0.29188  1.0000
  C   C513      1.0  0.59638  0.86038  0.37186  1.0000
  H   H814      1.0  0.89632  0.76114  0.26881  1.0000
  C   C514      1.0  0.79146  0.73612  0.27245  1.0000
  H   H815      1.0  0.64226  0.72080  0.46934  1.0000
  C   C515      1.0  0.61901  0.86458  0.39532  1.0000
  C   C516      1.0  0.64892  0.87780  0.38802  1.0000
  H   H816      1.0  0.67607  0.82572  0.31674  1.0000
  H   H817      1.0  0.66644  0.88138  0.40609  1.0000
  C   C517      1.0  0.65634  0.88633  0.35731  1.0000
  H   H818      1.0  0.57307  0.85077  0.37737  1.0000
  S   S208      1.0  0.56887  0.72776  0.35501  1.0000
  Fe  Fe108     1.0  0.56239  0.74788  0.40313  1.0000
  H   H819      1.0  0.01753  0.53675  0.28938  1.0000
  H   H820      1.0  0.89916  0.71401  0.43677  1.0000
  C   C518      1.0  0.60355  0.86957  0.34128  1.0000
  C   C519      1.0  0.54377  0.69487  0.34654  1.0000
  H   H821      1.0  0.88200  0.72690  0.29011  1.0000
  H   H822      1.0  0.67936  0.89678  0.35194  1.0000
  C   C520      1.0  0.53444  0.67318  0.36974  1.0000
  H   H823      1.0  0.97089  0.77053  0.31491  1.0000
  C   C521      1.0  0.66299  0.80613  0.30438  1.0000
  H   H824      1.0  0.93405  0.79160  0.32235  1.0000
  C   C522      1.0  0.63361  0.88234  0.33389  1.0000
  H   H825      1.0  0.90109  0.68583  0.46804  1.0000
  H   H826      1.0  0.64021  0.81685  0.29593  1.0000
  H   H827      1.0  0.61498  0.79849  0.34538  1.0000
  H   H828      1.0  0.61548  0.76213  0.30026  1.0000
  H   H829      1.0  0.65133  0.80745  0.36566  1.0000
  H   H830      1.0  0.58579  0.86665  0.32332  1.0000
  N   N53       1.0  0.65727  0.77799  0.32484  1.0000
  C   C523      1.0  0.63859  0.78839  0.35223  1.0000
  H   H831      1.0  0.53070  0.58128  0.30047  1.0000
  C   C524      1.0  0.92467  0.74297  0.48635  1.0000
  S   S209      1.0  0.88276  0.65022  0.28735  1.0000
  Fe  Fe109     1.0  0.93098  0.63005  0.27537  1.0000
  H   H832      1.0  0.92738  0.65586  0.40196  1.0000
  C   C525      1.0  0.81628  0.53724  0.27570  1.0000
  C   C526      1.0  0.89589  0.74982  0.29224  1.0000
  S   S210      1.0  0.53469  0.72716  0.44305  1.0000
  C   C527      1.0  0.77339  0.99760  0.30650  1.0000
  C   C528      1.0  0.53233  0.69081  0.31631  1.0000
  S   S211      1.0  0.91283  0.58058  0.26287  1.0000
  C   C529      1.0  0.99920  0.57893  0.24575  1.0000
  H   H833      1.0  0.85080  0.98617  0.32744  1.0000
  Fe  Fe110     1.0  0.86420  0.60218  0.27007  1.0000
  S   S212      1.0  0.82639  0.57348  0.29494  1.0000
  C   C530      1.0  0.00038  0.67461  0.34958  1.0000
  H   H834      1.0  0.70081  0.72859  0.47219  1.0000
  C   C531      1.0  0.97293  0.68004  0.39897  1.0000
  H   H835      1.0  0.71499  0.83439  0.46904  1.0000
  H   H836      1.0  0.94663  0.73209  0.25826  1.0000
  H   H837      1.0  0.98310  0.57873  0.26632  1.0000
  H   H838      1.0  0.93611  0.75117  0.46437  1.0000
  C   C532      1.0  0.94616  0.77448  0.30616  1.0000
  C   C533      1.0  0.94541  0.72168  0.28205  1.0000
  C   C534      1.0  0.81736  0.71953  0.25900  1.0000
  S   S213      1.0  0.55033  0.79579  0.47984  1.0000
  C   C535      1.0  0.80109  0.98123  0.31556  1.0000
  S   S214      1.0  0.80140  0.93891  0.32028  1.0000
  H   H839      1.0  0.02096  0.67965  0.33514  1.0000
  H   H840      1.0  0.78417  0.52139  0.31170  1.0000
  H   H841      1.0  0.88225  0.76625  0.30789  1.0000
  S   S215      1.0  0.97728  0.64158  0.29956  1.0000
  C   C536      1.0  0.87370  0.76352  0.46940  1.0000
  C   C537      1.0  0.94856  0.64967  0.35666  1.0000
  C   C538      1.0  0.69206  0.82237  0.47522  1.0000
  N   N54       1.0  0.92853  0.74356  0.30379  1.0000
  S   S216      1.0  0.96584  0.84103  0.48501  1.0000
  H   H842      1.0  0.62729  0.95456  0.25360  1.0000
  H   H843      1.0  0.92905  0.63519  0.34782  1.0000
  H   H844      1.0  0.84790  0.75834  0.46561  1.0000
  H   H845      1.0  0.53967  0.70742  0.29826  1.0000
  H   H846      1.0  0.91398  0.70451  0.33354  1.0000
  H   H847      1.0  0.80185  0.81000  0.23901  1.0000
  H   H848      1.0  0.94803  0.78660  0.28318  1.0000
  C   C539      1.0  0.92665  0.72821  0.33467  1.0000
  C   C540      1.0  0.88816  0.70770  0.45952  1.0000
  Fe  Fe111     1.0  0.00224  0.80451  0.46868  1.0000
  S   S217      1.0  0.97128  0.69477  0.43725  1.0000
  C   C541      1.0  0.94765  0.66138  0.38729  1.0000
  H   H849      1.0  0.75121  0.98453  0.30407  1.0000
  S   S218      1.0  0.99783  0.78118  0.42197  1.0000
  C   C542      1.0  0.80614  0.78487  0.24472  1.0000
  N   N55       1.0  0.89065  0.73489  0.48176  1.0000
  H   H850      1.0  0.86285  0.70076  0.45538  1.0000
  H   H851      1.0  0.97020  0.71640  0.28991  1.0000
  H   H852      1.0  0.77574  0.72356  0.28833  1.0000
  H   H853      1.0  0.56527  0.58248  0.27591  1.0000
  H   H854      1.0  0.65555  0.87573  0.48046  1.0000
  H   H855      1.0  0.54360  0.67586  0.39301  1.0000
  C   C543      1.0  0.79454  0.51566  0.28935  1.0000
  H   H856      1.0  0.82153  0.69430  0.26453  1.0000
  H   H857      1.0  0.69705  0.79599  0.47773  1.0000
  H   H858      1.0  0.78394  0.97042  0.24262  1.0000
  S   S219      1.0  0.53807  0.79616  0.40467  1.0000
  C   C544      1.0  0.84677  0.98044  0.24362  1.0000
  H   H859      1.0  0.02426  0.51943  0.25169  1.0000
  H   H860      1.0  0.87524  0.78444  0.48568  1.0000
  H   H861      1.0  0.83844  0.96066  0.25930  1.0000
  H   H862      1.0  0.01874  0.70128  0.38875  1.0000
  H   H863      1.0  0.88416  0.77153  0.44692  1.0000
  H   H864      1.0  0.55006  0.52129  0.23887  1.0000
  C   C545      1.0  0.83757  0.73557  0.23823  1.0000
  S   S220      1.0  0.59282  0.72393  0.51621  1.0000
  H   H865      1.0  0.95967  0.58322  0.69402  1.0000
  H   H866      1.0  0.93453  0.53976  0.66260  1.0000
  S   S221      1.0  0.73286  0.78398  0.60518  1.0000
  H   H867      1.0  0.71640  0.79769  0.68069  1.0000
  H   H868      1.0  0.89939  0.85172  0.49912  1.0000
  S   S222      1.0  0.74273  0.74320  0.52245  1.0000
  H   H869      1.0  0.55260  0.67319  0.64832  1.0000
  C   C546      1.0  0.68916  0.89116  0.64700  1.0000
  H   H870      1.0  0.67035  0.88313  0.63165  1.0000
  H   H871      1.0  0.64230  0.96297  0.66190  1.0000
  H   H872      1.0  0.55869  0.63735  0.67100  1.0000
  H   H873      1.0  0.98958  0.53244  0.68319  1.0000
  C   C547      1.0  0.63471  0.72677  0.51838  1.0000
  C   C548      1.0  0.64956  0.73149  0.54712  1.0000
  C   C549      1.0  0.68281  0.73612  0.54874  1.0000
  C   C550      1.0  0.70135  0.73552  0.52168  1.0000
  H   H874      1.0  0.66788  0.79896  0.71417  1.0000
  H   H875      1.0  0.90100  0.53972  0.68860  1.0000
  H   H876      1.0  0.63530  0.73228  0.56804  1.0000
  H   H877      1.0  0.69407  0.73982  0.57092  1.0000
  C   C551      1.0  0.61425  0.69228  0.64762  1.0000
  H   H878      1.0  0.65131  0.79313  0.51413  1.0000
  H   H879      1.0  0.66221  0.88223  0.52114  1.0000
  C   C552      1.0  0.80719  0.69531  0.66589  1.0000
  H   H880      1.0  0.91428  0.70108  0.66637  1.0000
  C   C553      1.0  0.57069  0.65470  0.65501  1.0000
  H   H881      1.0  0.71372  0.76256  0.72668  1.0000
  H   H882      1.0  0.92219  0.50261  0.68075  1.0000
  H   H883      1.0  0.58522  0.95737  0.67770  1.0000
  C   C554      1.0  0.97863  0.52182  0.70442  1.0000
  C   C555      1.0  0.91614  0.77137  0.70757  1.0000
  S   S223      1.0  0.73034  0.87402  0.60036  1.0000
  N   N56       1.0  0.67832  0.83605  0.50401  1.0000
  H   H884      1.0  0.65116  0.97889  0.69960  1.0000
  C   C556      1.0  0.58871  0.68789  0.69772  1.0000
  H   H885      1.0  0.57745  0.64089  0.63380  1.0000
  C   C557      1.0  0.72114  0.88869  0.63753  1.0000
  Fe  Fe112     1.0  0.76136  0.82952  0.60064  1.0000
  H   H886      1.0  0.57120  0.70732  0.69201  1.0000
  N   N57       1.0  0.59887  0.66978  0.66976  1.0000
  C   C558      1.0  0.55835  0.56457  0.73295  1.0000
  H   H887      1.0  0.57707  0.67164  0.71498  1.0000
  Fe  Fe113     1.0  0.76278  0.76658  0.56542  1.0000
  C   C559      1.0  0.62187  0.64421  0.67867  1.0000
  H   H888      1.0  0.64342  0.65464  0.68997  1.0000
  H   H889      1.0  0.60936  0.69954  0.70950  1.0000
  C   C560      1.0  0.72639  0.81728  0.69556  1.0000
  H   H890      1.0  0.56379  0.99204  0.69203  1.0000
  C   C561      1.0  0.53178  0.54539  0.72607  1.0000
  H   H891      1.0  0.69112  0.84079  0.55214  1.0000
  H   H892      1.0  0.87788  0.74552  0.52909  1.0000
  C   C562      1.0  0.53348  0.51155  0.72917  1.0000
  C   C563      1.0  0.68149  0.90386  0.67631  1.0000
  H   H893      1.0  0.59759  0.71194  0.64047  1.0000
  H   H894      1.0  0.91059  0.79733  0.70316  1.0000
  C   C564      1.0  0.74541  0.89909  0.65740  1.0000
  N   N58       1.0  0.71483  0.81466  0.72786  1.0000
  H   H895      1.0  0.77011  0.89748  0.65006  1.0000
  H   H896      1.0  0.92610  0.58278  0.72004  1.0000
  H   H897      1.0  0.63666  0.82921  0.53258  1.0000
  C   C565      1.0  0.87626  0.72547  0.51178  1.0000
  H   H898      1.0  0.61102  0.62679  0.69536  1.0000
  H   H899      1.0  0.93853  0.72167  0.49474  1.0000
  C   C566      1.0  0.73766  0.91283  0.68625  1.0000
  H   H900      1.0  0.62998  0.62994  0.65818  1.0000
  H   H901      1.0  0.92699  0.74823  0.63264  1.0000
  C   C567      1.0  0.70571  0.91528  0.69572  1.0000
  S   S224      1.0  0.55649  0.60710  0.73039  1.0000
  C   C568      1.0  0.91828  0.71713  0.68675  1.0000
  H   H902      1.0  0.59951  0.98789  0.63011  1.0000
  H   H903      1.0  0.75288  0.81526  0.69424  1.0000
  H   H904      1.0  0.94153  0.76987  0.71523  1.0000
  C   C569      1.0  0.93095  0.76276  0.65406  1.0000
  H   H905      1.0  0.65681  0.90555  0.68345  1.0000
  H   H906      1.0  0.75650  0.92164  0.70116  1.0000
  S   S225      1.0  0.76604  0.74423  0.68216  1.0000
  Fe  Fe114     1.0  0.82458  0.79317  0.59312  1.0000
  S   S226      1.0  0.80047  0.74474  0.59581  1.0000
  S   S227      1.0  0.87849  0.78918  0.59419  1.0000
  S   S228      1.0  0.79897  0.81407  0.63451  1.0000
  C   C570      1.0  0.94177  0.82801  0.51607  1.0000
  C   C571      1.0  0.90931  0.83644  0.51708  1.0000
  C   C572      1.0  0.88946  0.82465  0.54090  1.0000
  C   C573      1.0  0.90227  0.80498  0.56414  1.0000
  C   C574      1.0  0.93490  0.79726  0.56355  1.0000
  C   C575      1.0  0.95457  0.80864  0.53954  1.0000
  C   C576      1.0  0.70083  0.83106  0.52994  1.0000
  H   H907      1.0  0.86437  0.83098  0.54140  1.0000
  H   H908      1.0  0.94493  0.78210  0.58149  1.0000
  H   H909      1.0  0.97959  0.80235  0.53914  1.0000
  H   H910      1.0  0.79693  0.69679  0.64301  1.0000
  C   C577      1.0  0.58782  0.98043  0.69085  1.0000
  H   H911      1.0  0.95672  0.76109  0.66020  1.0000
  H   H912      1.0  0.94362  0.71437  0.69421  1.0000
  S   S229      1.0  0.78936  0.81332  0.55882  1.0000
  C   C578      1.0  0.92517  0.52914  0.68454  1.0000
  Fe  Fe115     1.0  0.77296  0.76670  0.63518  1.0000
  H   H913      1.0  0.84020  0.65739  0.65327  1.0000
  H   H914      1.0  0.87126  0.73846  0.64989  1.0000
  H   H915      1.0  0.71948  0.84080  0.68504  1.0000
  H   H916      1.0  0.86992  0.77910  0.66441  1.0000
  S   S230      1.0  0.87602  0.64291  0.70787  1.0000
  H   H917      1.0  0.86035  0.74573  0.68953  1.0000
  C   C579      1.0  0.79560  0.71510  0.68973  1.0000
  C   C580      1.0  0.80819  0.71205  0.71965  1.0000
  C   C581      1.0  0.83295  0.68988  0.72546  1.0000
  C   C582      1.0  0.84455  0.67018  0.70149  1.0000
  C   C583      1.0  0.94969  0.57129  0.71504  1.0000
  H   H918      1.0  0.62218  0.67944  0.62619  1.0000
  H   H919      1.0  0.70602  0.80487  0.53355  1.0000
  H   H920      1.0  0.92558  0.78845  0.64809  1.0000
  C   C584      1.0  0.87652  0.75376  0.67055  1.0000
  H   H921      1.0  0.01574  0.81080  0.58938  1.0000
  S   S231      1.0  0.60545  0.90109  0.72950  1.0000
  C   C585      1.0  0.83146  0.67274  0.67180  1.0000
  N   N59       1.0  0.94676  0.53587  0.71083  1.0000
  N   N60       1.0  0.91046  0.75127  0.67972  1.0000
  H   H922      1.0  0.99547  0.52643  0.72386  1.0000
  H   H923      1.0  0.63570  0.70400  0.65795  1.0000
  H   H924      1.0  0.88857  0.70401  0.52184  1.0000
  S   S232      1.0  0.00759  0.75776  0.49403  1.0000
  C   C586      1.0  0.67969  0.81796  0.72843  1.0000
  H   H925      1.0  0.69507  0.88427  0.49438  1.0000
  H   H926      1.0  0.67185  0.84195  0.71937  1.0000
  H   H927      1.0  0.85050  0.71930  0.50923  1.0000
  H   H928      1.0  0.96581  0.57719  0.73470  1.0000
  H   H929      1.0  0.90303  0.70773  0.70580  1.0000
  H   H930      1.0  0.72407  0.84340  0.52567  1.0000
  H   H931      1.0  0.59453  0.97397  0.71500  1.0000
  H   H932      1.0  0.00320  0.85144  0.58093  1.0000
  S   S233      1.0  0.69671  0.93302  0.73176  1.0000
  H   H933      1.0  0.92755  0.76271  0.50354  1.0000
  C   C587      1.0  0.64778  0.81961  0.51100  1.0000
  H   H934      1.0  0.90113  0.76324  0.72743  1.0000
  H   H935      1.0  0.02543  0.84315  0.61572  1.0000
  H   H936      1.0  0.52776  0.71848  0.54097  1.0000
  H   H937      1.0  0.66197  0.00144  0.66558  1.0000
  C   C588      1.0  0.64315  0.98568  0.67585  1.0000
  C   C589      1.0  0.68656  0.72964  0.49314  1.0000
  C   C590      1.0  0.67254  0.87113  0.49982  1.0000
  H   H938      1.0  0.63024  0.82282  0.49187  1.0000
  C   C591      1.0  0.02308  0.83671  0.59075  1.0000
  C   C592      1.0  0.65335  0.72553  0.49146  1.0000
  C   C593      1.0  0.56262  0.75709  0.75089  1.0000
  C   C594      1.0  0.72268  0.88530  0.86972  1.0000
  S   S234      1.0  0.77275  0.52300  0.97021  1.0000
  S   S235      1.0  0.53631  0.96123  0.75250  1.0000
  H   H939      1.0  0.73104  0.94396  0.92433  1.0000
  S   S236      1.0  0.65163  0.87750  0.78703  1.0000
  Fe  Fe116     1.0  0.60491  0.86241  0.76604  1.0000
  C   C595      1.0  0.93351  0.52133  0.73941  1.0000
  H   H940      1.0  0.53772  0.53871  0.79356  1.0000
  H   H941      1.0  0.92626  0.99461  0.82052  1.0000
  S   S237      1.0  0.92191  0.97525  0.92520  1.0000
  Fe  Fe117     1.0  0.57955  0.93126  0.76515  1.0000
  C   C596      1.0  0.58826  0.51588  0.74625  1.0000
  C   C597      1.0  0.02379  0.81842  0.80853  1.0000
  H   H942      1.0  0.74087  0.97851  0.76228  1.0000
  H   H943      1.0  0.53992  0.56200  0.82858  1.0000
  H   H944      1.0  0.53168  0.98749  0.93811  1.0000
  S   S238      1.0  0.95799  0.64894  0.74226  1.0000
  H   H945      1.0  0.70917  0.65476  0.96366  1.0000
  H   H946      1.0  0.98403  0.53467  0.97553  1.0000
  C   C598      1.0  0.73772  0.90545  0.89131  1.0000
  C   C599      1.0  0.94332  0.50376  0.98336  1.0000
  H   H947      1.0  0.74635  0.64068  0.94764  1.0000
  H   H948      1.0  0.02069  0.94290  0.93345  1.0000
  H   H949      1.0  0.61013  0.50469  0.75392  1.0000
  H   H950      1.0  0.98748  0.89875  0.95341  1.0000
  S   S239      1.0  0.83355  0.51464  0.92130  1.0000
  C   C600      1.0  0.69023  0.88962  0.86287  1.0000
  H   H951      1.0  0.97084  0.86911  0.92740  1.0000
  H   H952      1.0  0.57778  0.93619  0.91329  1.0000
  H   H953      1.0  0.67387  0.95188  0.91214  1.0000
  N   N61       1.0  0.74112  0.97619  0.81207  1.0000
  H   H954      1.0  0.60736  0.56440  0.74811  1.0000
  N   N62       1.0  0.58153  0.98649  0.92613  1.0000
  H   H955      1.0  0.56980  0.94456  0.95351  1.0000
  S   S240      1.0  0.57523  0.89096  0.79999  1.0000
  H   H956      1.0  0.72262  0.86505  0.73793  1.0000
  S   S241      1.0  0.60192  0.80978  0.75221  1.0000
  H   H957      1.0  0.73622  0.86651  0.85807  1.0000
  S   S242      1.0  0.99303  0.73376  0.74680  1.0000
  H   H958      1.0  0.77207  0.52011  0.84552  1.0000
  H   H959      1.0  0.76113  0.94397  0.77793  1.0000
  H   H960      1.0  0.98870  0.95547  0.90854  1.0000
  S   S243      1.0  0.91847  0.52702  0.95938  1.0000
  C   C601      1.0  0.73401  0.64755  0.96966  1.0000
  C   C602      1.0  0.72923  0.84065  0.74683  1.0000
  S   S244      1.0  0.83914  0.56361  0.98092  1.0000
  H   H961      1.0  0.74642  0.66931  0.97901  1.0000
  C   C603      1.0  0.67266  0.91394  0.87777  1.0000
  Fe  Fe118     1.0  0.62219  0.90953  0.81779  1.0000
  H   H962      1.0  0.67872  0.87376  0.84647  1.0000
  S   S245      1.0  0.63275  0.92138  0.86775  1.0000
  C   C604      1.0  0.71992  0.92914  0.90686  1.0000
  C   C605      1.0  0.96668  0.97723  0.97128  1.0000
  H   H963      1.0  0.94938  0.52580  0.75963  1.0000
  S   S246      1.0  0.62437  0.95183  0.78546  1.0000
  C   C606      1.0  0.68740  0.93330  0.90023  1.0000
  H   H964      1.0  0.72098  0.83934  0.77136  1.0000
  H   H965      1.0  0.53207  0.71508  0.75033  1.0000
  H   H966      1.0  0.90973  0.53181  0.74527  1.0000
  S   S247      1.0  0.77884  0.90109  0.89791  1.0000
  H   H967      1.0  0.84272  0.68771  0.74854  1.0000
  H   H968      1.0  0.57579  0.00084  0.97380  1.0000
  Fe  Fe119     1.0  0.64994  0.91820  0.75310  1.0000
  H   H969      1.0  0.97898  0.87561  0.86992  1.0000
  Fe  Fe120     1.0  0.86525  0.52011  0.96285  1.0000
  H   H970      1.0  0.96585  0.55302  0.87082  1.0000
  C   C607      1.0  0.58493  0.95162  0.93332  1.0000
  C   C608      1.0  0.58669  0.54972  0.74279  1.0000
  H   H971      1.0  0.75206  0.96982  0.86029  1.0000
  S   S248      1.0  0.77664  0.99238  0.92224  1.0000
  H   H972      1.0  0.69386  0.91333  0.96582  1.0000
  C   C609      1.0  0.00472  0.76605  0.77096  1.0000
  H   H973      1.0  0.75577  0.83904  0.74672  1.0000
  H   H974      1.0  0.96353  0.91627  0.87268  1.0000
  C   C610      1.0  0.53314  0.74107  0.75307  1.0000
  H   H975      1.0  0.53978  0.97927  0.89804  1.0000
  C   C611      1.0  0.92238  0.60018  0.92021  1.0000
  Fe  Fe121     1.0  0.80492  0.55490  0.94216  1.0000
  H   H976      1.0  0.92231  0.58122  0.84370  1.0000
  H   H977      1.0  0.97486  0.75218  0.80946  1.0000
  C   C612      1.0  0.96119  0.61622  0.88184  1.0000
  H   H978      1.0  0.78110  0.60496  0.97804  1.0000
  H   H979      1.0  0.89271  0.57299  0.87275  1.0000
  Fe  Fe122     1.0  0.80980  0.99823  0.96263  1.0000
  Fe  Fe123     1.0  0.91346  0.67479  0.81684  1.0000
  S   S249      1.0  0.90426  0.62736  0.79338  1.0000
  S   S250      1.0  0.89264  0.68667  0.86367  1.0000
  Fe  Fe124     1.0  0.96216  0.69553  0.76887  1.0000
  S   S251      1.0  0.84021  0.96955  0.88264  1.0000
  Fe  Fe125     1.0  0.80360  0.94653  0.91345  1.0000
  C   C613      1.0  0.00741  0.55578  0.78539  1.0000
  Fe  Fe126     1.0  0.95747  0.62447  0.78851  1.0000
  S   S252      1.0  0.97411  0.57464  0.80249  1.0000
  S   S253      1.0  0.90941  0.70397  0.77302  1.0000
  S   S254      1.0  0.96692  0.67039  0.81485  1.0000
  H   H980      1.0  0.93986  0.59889  0.93955  1.0000
  H   H981      1.0  0.93532  0.53986  0.89721  1.0000
  C   C614      1.0  0.97752  0.89512  0.92973  1.0000
  C   C615      1.0  0.91236  0.58980  0.86613  1.0000
  C   C616      1.0  0.95303  0.55940  0.89267  1.0000
  H   H982      1.0  0.98054  0.99242  0.95588  1.0000
  C   C617      1.0  0.81355  0.61922  0.89745  1.0000
  C   C618      1.0  0.83304  0.63546  0.91865  1.0000
  C   C619      1.0  0.85619  0.65738  0.90802  1.0000
  C   C620      1.0  0.86095  0.66201  0.87618  1.0000
  C   C621      1.0  0.84159  0.64558  0.85494  1.0000
  C   C622      1.0  0.81754  0.62461  0.86562  1.0000
  H   H983      1.0  0.00221  0.90881  0.85575  1.0000
  H   H984      1.0  0.87097  0.67026  0.92449  1.0000
  H   H985      1.0  0.84493  0.64933  0.83034  1.0000
  H   H986      1.0  0.80235  0.61223  0.84917  1.0000
  H   H987      1.0  0.91259  0.62524  0.91962  1.0000
  C   C623      1.0  0.93679  0.96561  0.96200  1.0000
  H   H988      1.0  0.71547  0.93103  0.81217  1.0000
  H   H989      1.0  0.67013  0.81560  0.75243  1.0000
  H   H990      1.0  0.78571  0.97973  0.83640  1.0000
  H   H991      1.0  0.97297  0.61046  0.85935  1.0000
  H   H992      1.0  0.98023  0.61812  0.89968  1.0000
  N   N63       1.0  0.93727  0.59138  0.89025  1.0000
  H   H993      1.0  0.90226  0.58367  0.92607  1.0000
  C   C624      1.0  0.71801  0.59214  0.97855  1.0000
  H   H994      1.0  0.90161  0.61398  0.86207  1.0000
  C   C625      1.0  0.00143  0.79584  0.81950  1.0000
  N   N64       1.0  0.00055  0.90491  0.90545  1.0000
  C   C626      1.0  0.02686  0.78879  0.75993  1.0000
  H   H995      1.0  0.82990  0.63161  0.94325  1.0000
  H   H996      1.0  0.94997  0.64062  0.87944  1.0000
  S   S255      1.0  0.83396  0.95020  0.95597  1.0000
  C   C627      1.0  0.76293  0.96584  0.83705  1.0000
  H   H997      1.0  0.99155  0.79848  0.84255  1.0000
  C   C628      1.0  0.99200  0.76959  0.80080  1.0000
  H   H998      1.0  0.69265  0.59769  0.97298  1.0000
  C   C629      1.0  0.98558  0.90132  0.87463  1.0000
  H   H999      1.0  0.97066  0.55889  0.91192  1.0000
  H   H1000     1.0  0.89655  0.93600  0.97467  1.0000
  H   H1001     1.0  0.77955  0.98337  0.77964  1.0000
  H   H1002     1.0  0.73811  0.95152  0.98237  1.0000
  C   C630      1.0  0.91905  0.94604  0.98205  1.0000
  C   C631      1.0  0.00980  0.93913  0.91019  1.0000
  S   S256      1.0  0.78394  0.59246  0.91070  1.0000
  H   H1003     1.0  0.61009  0.94527  0.93895  1.0000
  H   H1004     1.0  0.76893  0.93959  0.83530  1.0000
  Fe  Fe127     1.0  0.86819  0.97803  0.92595  1.0000
  C   C632      1.0  0.01232  0.52279  0.79125  1.0000
  H   H1005     1.0  0.74561  0.52276  0.79368  1.0000
  H   H1006     1.0  0.95508  0.90954  0.92833  1.0000
  H   H1007     1.0  0.58411  0.74341  0.74614  1.0000
  C   C633      1.0  0.56452  0.79066  0.75553  1.0000
  C   C634      1.0  0.75640  0.97025  0.78165  1.0000
  H   H1008     1.0  0.71542  0.77979  0.76494  1.0000
  H   H1009     1.0  0.72992  0.58413  0.95670  1.0000
  C   C635      1.0  0.71105  0.95757  0.81412  1.0000
  Fe  Fe128     1.0  0.90552  0.65562  0.74939  1.0000
  H   H1010     1.0  0.99604  0.50973  0.80622  1.0000
  H   H1011     1.0  0.53809  0.83413  0.76608  1.0000
  H   H1012     1.0  0.59520  0.98058  0.87838  1.0000
  H   H1013     1.0  0.69857  0.96196  0.83655  1.0000
  H   H1014     1.0  0.69436  0.96430  0.79518  1.0000
  C   C636      1.0  0.53679  0.80823  0.76242  1.0000
  C   C637      1.0  0.54785  0.99361  0.91845  1.0000
  C   C638      1.0  0.72394  0.78275  0.74066  1.0000
  H   H1015     1.0  0.02450  0.59783  0.76085  1.0000
  H   H1016     1.0  0.71933  0.87983  0.97535  1.0000
  H   H1017     1.0  0.02331  0.85817  0.90297  1.0000
  H   H1018     1.0  0.62757  0.98918  0.90415  1.0000
  H   H1019     1.0  0.71007  0.50506  0.80994  1.0000
  H   H1020     1.0  0.73624  0.50282  0.86136  1.0000
  C   C639      1.0  0.70147  0.89716  0.98504  1.0000
  H   H1021     1.0  0.75036  0.77940  0.74050  1.0000
  C   C640      1.0  0.60205  0.99475  0.89934  1.0000
  H   H1022     1.0  0.92860  0.99985  0.86185  1.0000
  H   H1023     1.0  0.79919  0.72717  0.73824  1.0000
  H   H1024     1.0  0.61633  0.00068  0.96022  1.0000
