data_image0
_chemical_formula_structural       HCH3CSH2C2HCHCH2CH2C2H3CNHCNHFeS2FeSCFeSFeS3C2H3CHCFeNC2HCSH6CH4SH2CHCH4CSH4C4NH2SCH3CHC2SH2CFeSCFeSFeH2CH8CH2FeS2FeS2FeSFeS3C3H2C4H2C3SHCH2CNH5C4HNH2CSHC2HC3H2CH3C3H8CH6SC2H4SFeHFe2C3HCH4NHCHNH3C2H4FeHS2HCHCH2CHSFeSC3H2C3H3SCSHFeSCFeCFeCS2HCH5CH2CH2CH2SCNH3SNCHCH5CH8CHCHCSCHC4H3CHCSH2FeCH2CH2NFeH5NHCHCH2C3H4FeNHCSH6CH2SFeSFeS3HCHSHCH3S3FeCFeSFeHC2SC4SC6H12C2H3CH2C2SHNHCHSHCH3C4HCHC2HCHCNCH3C2H4C4NC5H10FeHC2FeSHFeS2FeHFeS5CNC3FeC2H2C6H4C3H3CH2SH2SCH3SFe2HCSHNH5C2H5SH3SCSCH2CH3CSCNC2H6FeSH2SNFeSFeSHSHC2H2CHC3H2C2HSCNCHN2HC2HCHSH3CHSHCHCFeH3SH3CHCHCH3CH3SC2HC2SH3CH2C3H2C3H4C3H4CH3CH2CHCHCH3CH2SCHCH2NCH3C2HFeCH2SCFeS2FeS2FeS3HCH2FeSH3FeHC7H4FeH3CH4CSH3SC3H2C2HSHC2H3C2NCFeCH3CHNHCSHSH3CH4FeH2FeS2FeSFeSFeS3FeSFeSCH3C2H2C2HCH2C6H4CSH3C3HNC3H6SH3CH6NHFeSHC2H3SH2C3H5S2C
_chemical_formula_sum              "H448 C280 S112 N28 Fe56"
_cell_length_a       37.104
_cell_length_b       42.4126
_cell_length_c       57.1457
_cell_angle_alpha    84.2034
_cell_angle_beta     84.5229
_cell_angle_gamma    116.6

_space_group_name_H-M_alt    "P 1"
_space_group_IT_number       1

loop_
  _space_group_symop_operation_xyz
  'x, y, z'

loop_
  _atom_site_type_symbol
  _atom_site_label
  _atom_site_symmetry_multiplicity
  _atom_site_fract_x
  _atom_site_fract_y
  _atom_site_fract_z
  _atom_site_occupancy
  H   H1        1.0  0.29970  0.35442  0.22344  1.0000
  C   C1        1.0  0.29026  0.47105  0.18036  1.0000
  H   H2        1.0  0.23593  0.44492  0.07519  1.0000
  H   H3        1.0  0.32286  0.30765  0.22795  1.0000
  H   H4        1.0  0.25314  0.40971  0.23142  1.0000
  C   C2        1.0  0.31695  0.44445  0.21851  1.0000
  S   S1        1.0  0.33477  0.42709  0.24133  1.0000
  H   H5        1.0  0.27046  0.42577  0.07342  1.0000
  H   H6        1.0  0.34475  0.46435  0.07246  1.0000
  C   C3        1.0  0.26187  0.44354  0.19826  1.0000
  C   C4        1.0  0.27515  0.43070  0.21756  1.0000
  H   H7        1.0  0.22959  0.43258  0.19737  1.0000
  C   C5        1.0  0.26466  0.44670  0.08074  1.0000
  H   H8        1.0  0.24839  0.32012  0.22369  1.0000
  C   C6        1.0  0.29339  0.28980  0.23979  1.0000
  H   H9        1.0  0.25885  0.35122  0.24431  1.0000
  H   H10       1.0  0.22674  0.46064  0.24397  1.0000
  C   C7        1.0  0.24596  0.48577  0.25057  1.0000
  H   H11       1.0  0.18176  0.48541  0.23248  1.0000
  H   H12       1.0  0.25916  0.44000  0.10057  1.0000
  C   C8        1.0  0.34522  0.47152  0.20047  1.0000
  C   C9        1.0  0.27072  0.33501  0.23519  1.0000
  H   H13       1.0  0.31097  0.47079  0.03761  1.0000
  H   H14       1.0  0.27155  0.27340  0.22854  1.0000
  H   H15       1.0  0.37757  0.48222  0.20110  1.0000
  C   C10       1.0  0.33676  0.48394  0.08007  1.0000
  N   N1        1.0  0.29923  0.48268  0.07243  1.0000
  H   H16       1.0  0.33328  0.47800  0.09984  1.0000
  C   C11       1.0  0.33191  0.48525  0.18170  1.0000
  N   N2        1.0  0.27745  0.31065  0.25257  1.0000
  H   H17       1.0  0.29890  0.27130  0.25249  1.0000
  Fe  Fe1       1.0  0.15345  0.09289  0.45478  1.0000
  S   S2        1.0  0.18847  0.12912  0.42039  1.0000
  S   S3        1.0  0.17828  0.10052  0.48943  1.0000
  Fe  Fe2       1.0  0.08622  0.04126  0.43066  1.0000
  S   S4        1.0  0.11455  0.07348  0.39412  1.0000
  C   C12       1.0  0.20022  0.00562  0.40553  1.0000
  Fe  Fe3       1.0  0.17312  0.07853  0.40527  1.0000
  S   S5        1.0  0.21921  0.07171  0.38065  1.0000
  Fe  Fe4       1.0  0.12729  0.12132  0.41230  1.0000
  S   S6        1.0  0.11604  0.16827  0.40066  1.0000
  S   S7        1.0  0.14407  0.04330  0.44041  1.0000
  S   S8        1.0  0.09296  0.08818  0.44794  1.0000
  C   C13       1.0  0.22752  0.03456  0.38827  1.0000
  C   C14       1.0  0.26202  0.03381  0.37664  1.0000
  H   H18       1.0  0.18998  0.19950  0.48640  1.0000
  H   H19       1.0  0.19827  0.17856  0.46210  1.0000
  H   H20       1.0  0.12737  0.21103  0.44185  1.0000
  C   C15       1.0  0.14153  0.19916  0.45394  1.0000
  H   H21       1.0  0.13895  0.03237  0.34906  1.0000
  C   C16       1.0  0.20362  0.20476  0.46731  1.0000
  Fe  Fe5       1.0  0.30758  0.43267  0.32815  1.0000
  N   N3        1.0  0.24315  0.02443  0.47167  1.0000
  C   C17       1.0  0.15334  0.20452  0.37981  1.0000
  C   C18       1.0  0.18766  0.20312  0.36866  1.0000
  H   H22       1.0  0.19107  0.17914  0.37225  1.0000
  C   C19       1.0  0.23848  0.28606  0.26817  1.0000
  S   S9        1.0  0.29109  0.45565  0.29647  1.0000
  H   H23       1.0  0.19981  0.20469  0.42019  1.0000
  H   H24       1.0  0.33704  0.35132  0.25620  1.0000
  H   H25       1.0  0.11496  0.12192  0.48557  1.0000
  H   H26       1.0  0.29451  0.03339  0.48966  1.0000
  H   H27       1.0  0.26668  0.07630  0.48245  1.0000
  H   H28       1.0  0.10838  0.00460  0.32947  1.0000
  C   C20       1.0  0.30737  0.33185  0.26725  1.0000
  H   H29       1.0  0.28338  0.05616  0.36332  1.0000
  H   H30       1.0  0.17825  0.25214  0.47896  1.0000
  H   H31       1.0  0.15575  0.48470  0.29898  1.0000
  H   H32       1.0  0.19348  0.24409  0.41519  1.0000
  S   S10       1.0  0.32188  0.39580  0.30851  1.0000
  H   H33       1.0  0.38125  0.46848  0.30058  1.0000
  H   H34       1.0  0.17605  0.28963  0.35548  1.0000
  C   C21       1.0  0.20554  0.22989  0.42706  1.0000
  H   H35       1.0  0.24384  0.23136  0.34385  1.0000
  C   C22       1.0  0.19342  0.46955  0.31898  1.0000
  H   H36       1.0  0.22158  0.06384  0.46894  1.0000
  H   H37       1.0  0.13524  0.17277  0.44879  1.0000
  H   H38       1.0  0.12276  0.23703  0.38362  1.0000
  H   H39       1.0  0.23302  0.46163  0.34149  1.0000
  C   C23       1.0  0.14928  0.23582  0.37502  1.0000
  S   S11       1.0  0.25147  0.30004  0.32702  1.0000
  H   H40       1.0  0.25350  0.04889  0.43515  1.0000
  H   H41       1.0  0.23915  0.24677  0.42495  1.0000
  H   H42       1.0  0.18595  0.00338  0.45846  1.0000
  H   H43       1.0  0.16396  0.98861  0.35962  1.0000
  C   C24       1.0  0.17944  0.26565  0.35915  1.0000
  C   C25       1.0  0.21751  0.23274  0.35259  1.0000
  C   C26       1.0  0.19261  0.25665  0.46008  1.0000
  C   C27       1.0  0.21355  0.26407  0.34779  1.0000
  N   N4        1.0  0.18584  0.22261  0.45210  1.0000
  H   H44       1.0  0.22575  0.27512  0.45877  1.0000
  H   H45       1.0  0.02545  0.01336  0.39491  1.0000
  S   S12       1.0  0.17949  0.42929  0.30775  1.0000
  C   C28       1.0  0.23712  0.05335  0.48090  1.0000
  H   H46       1.0  0.22574  0.30094  0.27823  1.0000
  H   H47       1.0  0.12535  0.19409  0.47240  1.0000
  H   H48       1.0  0.23717  0.22135  0.46603  1.0000
  C   C29       1.0  0.26424  0.01157  0.48789  1.0000
  H   H49       1.0  0.31313  0.31455  0.28081  1.0000
  C   C30       1.0  0.26810  0.03819  0.44769  1.0000
  C   C31       1.0  0.10866  0.00962  0.34821  1.0000
  S   S13       1.0  0.23444  0.37270  0.28873  1.0000
  H   H50       1.0  0.21792  0.04386  0.49882  1.0000
  H   H51       1.0  0.12998  0.00902  0.39077  1.0000
  C   C32       1.0  0.26912  0.00429  0.38221  1.0000
  Fe  Fe6       1.0  0.29917  0.41478  0.27802  1.0000
  S   S14       1.0  0.35130  0.47161  0.34833  1.0000
  C   C33       1.0  0.22099  0.47937  0.33521  1.0000
  Fe  Fe7       1.0  0.25626  0.35551  0.32071  1.0000
  S   S15       1.0  0.24371  0.39104  0.34358  1.0000
  Fe  Fe8       1.0  0.22805  0.41191  0.31029  1.0000
  H   H52       1.0  0.08508  0.01850  0.35259  1.0000
  H   H53       1.0  0.29892  0.06025  0.44819  1.0000
  C   C34       1.0  0.20303  0.99458  0.47020  1.0000
  H   H54       1.0  0.17928  0.27063  0.44903  1.0000
  H   H55       1.0  0.17388  0.00589  0.41488  1.0000
  H   H56       1.0  0.27234  0.01683  0.43985  1.0000
  H   H57       1.0  0.23487  0.48169  0.26994  1.0000
  H   H58       1.0  0.29586  0.00390  0.37315  1.0000
  H   H59       1.0  0.24263  0.26772  0.28180  1.0000
  H   H60       1.0  0.29589  0.34749  0.27717  1.0000
  H   H61       1.0  0.21500  0.26946  0.25783  1.0000
  C   C35       1.0  0.12612  0.12789  0.50204  1.0000
  H   H62       1.0  0.07585  0.99127  0.39512  1.0000
  H   H63       1.0  0.26936  0.98979  0.48139  1.0000
  Fe  Fe9       1.0  0.17919  0.15517  0.62122  1.0000
  S   S16       1.0  0.11774  0.12147  0.61176  1.0000
  S   S17       1.0  0.22510  0.13444  0.61618  1.0000
  Fe  Fe10      1.0  0.15842  0.21423  0.63216  1.0000
  S   S18       1.0  0.09511  0.18483  0.62352  1.0000
  S   S19       1.0  0.17301  0.26986  0.63934  1.0000
  Fe  Fe11      1.0  0.09378  0.13651  0.64395  1.0000
  S   S20       1.0  0.03436  0.09724  0.66682  1.0000
  Fe  Fe12      1.0  0.12449  0.17247  0.59232  1.0000
  S   S21       1.0  0.10210  0.17104  0.55726  1.0000
  S   S22       1.0  0.15496  0.16638  0.65540  1.0000
  S   S23       1.0  0.18816  0.20564  0.59886  1.0000
  C   C36       1.0  0.32559  0.35596  0.70086  1.0000
  C   C37       1.0  0.12409  0.15217  0.53844  1.0000
  C   C38       1.0  0.15494  0.14427  0.54491  1.0000
  H   H64       1.0  0.21605  0.01497  0.62237  1.0000
  H   H65       1.0  0.16647  0.15088  0.56138  1.0000
  C   C39       1.0  0.20246  0.03105  0.62859  1.0000
  C   C40       1.0  0.20393  0.08904  0.62837  1.0000
  C   C41       1.0  0.22163  0.06809  0.62056  1.0000
  C   C42       1.0  0.16800  0.07313  0.64489  1.0000
  H   H66       1.0  0.24977  0.08045  0.60801  1.0000
  H   H67       1.0  0.15497  0.08942  0.65141  1.0000
  C   C43       1.0  0.18806  0.28680  0.66558  1.0000
  C   C44       1.0  0.19823  0.26839  0.68331  1.0000
  C   C45       1.0  0.20909  0.28268  0.70424  1.0000
  S   S24       1.0  0.30759  0.42339  0.74246  1.0000
  H   H68       1.0  0.02883  0.11429  0.59074  1.0000
  C   C46       1.0  0.02775  0.17845  0.71088  1.0000
  H   H69       1.0  0.19799  0.24334  0.68085  1.0000
  H   H70       1.0  0.21711  0.26847  0.71791  1.0000
  C   C47       1.0  0.05599  0.21648  0.67254  1.0000
  N   N5        1.0  0.13697  0.02173  0.57098  1.0000
  H   H71       1.0  0.04117  0.19313  0.66322  1.0000
  H   H72       1.0  0.12082  0.02399  0.66555  1.0000
  H   H73       1.0  0.08496  0.06619  0.65230  1.0000
  H   H74       1.0  0.09366  0.23067  0.72462  1.0000
  H   H75       1.0  0.00462  0.07354  0.61157  1.0000
  C   C48       1.0  0.08476  0.23743  0.70748  1.0000
  C   C49       1.0  0.10970  0.14393  0.51702  1.0000
  C   C50       1.0  0.14413  0.03444  0.54509  1.0000
  C   C51       1.0  0.16523  0.00713  0.57647  1.0000
  H   H76       1.0  0.15894  0.99535  0.59562  1.0000
  N   N6        1.0  0.06564  0.20579  0.69560  1.0000
  H   H77       1.0  0.17599  0.05585  0.53896  1.0000
  H   H78       1.0  0.10333  0.18327  0.70825  1.0000
  C   C52       1.0  0.16563  0.01496  0.64445  1.0000
  S   S25       1.0  0.22563  0.33338  0.73333  1.0000
  H   H79       1.0  0.00518  0.18868  0.71426  1.0000
  C   C53       1.0  0.14895  0.03619  0.65299  1.0000
  C   C54       1.0  0.19976  0.33370  0.68974  1.0000
  H   H80       1.0  0.02723  0.11336  0.54801  1.0000
  C   C55       1.0  0.00713  0.99673  0.63493  1.0000
  C   C56       1.0  0.04674  0.01931  0.63834  1.0000
  C   C57       1.0  0.09447  0.99332  0.57842  1.0000
  H   H81       1.0  0.31101  0.36442  0.71518  1.0000
  H   H82       1.0  0.07193  0.01480  0.63149  1.0000
  C   C58       1.0  0.02242  0.05568  0.65803  1.0000
  H   H83       1.0  0.11296  0.25877  0.69612  1.0000
  H   H84       1.0  0.03501  0.22856  0.67490  1.0000
  H   H85       1.0  0.03402  0.16986  0.72843  1.0000
  C   C59       1.0  0.09419  0.19069  0.69139  1.0000
  C   C60       1.0  0.05424  0.04853  0.64998  1.0000
  C   C61       1.0  0.00240  0.08696  0.59442  1.0000
  H   H86       1.0  0.08027  0.16618  0.68305  1.0000
  H   H87       1.0  0.12248  0.21015  0.67924  1.0000
  H   H88       1.0  0.19993  0.35872  0.69217  1.0000
  H   H89       1.0  0.08415  0.23660  0.66038  1.0000
  H   H90       1.0  0.28427  0.38792  0.68380  1.0000
  H   H91       1.0  0.12346  0.04579  0.54027  1.0000
  H   H92       1.0  0.13899  0.01241  0.53467  1.0000
  H   H93       1.0  0.01299  0.15408  0.70242  1.0000
  C   C62       1.0  0.17155  0.12838  0.52980  1.0000
  H   H94       1.0  0.00164  0.07184  0.53711  1.0000
  H   H95       1.0  0.19764  0.02814  0.57251  1.0000
  H   H96       1.0  0.31000  0.40117  0.65357  1.0000
  H   H97       1.0  0.17619  0.07342  0.57951  1.0000
  H   H98       1.0  0.18086  0.33371  0.65524  1.0000
  H   H99       1.0  0.19596  0.12297  0.53465  1.0000
  S   S26       1.0  0.19058  0.48192  0.72004  1.0000
  C   C63       1.0  0.21018  0.31549  0.70741  1.0000
  C   C64       1.0  0.18892  0.31945  0.66886  1.0000
  H   H100      1.0  0.39417  0.41851  0.68853  1.0000
  H   H101      1.0  0.38677  0.36957  0.66563  1.0000
  H   H102      1.0  0.28056  0.35458  0.66592  1.0000
  H   H103      1.0  0.35148  0.42687  0.69561  1.0000
  S   S27       1.0  0.25196  0.43243  0.70346  1.0000
  Fe  Fe13      1.0  0.24416  0.39180  0.73455  1.0000
  H   H104      1.0  0.37633  0.43737  0.66551  1.0000
  Fe  Fe14      1.0  0.31274  0.46572  0.71370  1.0000
  Fe  Fe15      1.0  0.22874  0.45606  0.73080  1.0000
  C   C65       1.0  0.35892  0.36976  0.66006  1.0000
  C   C66       1.0  0.00089  0.08606  0.55235  1.0000
  C   C67       1.0  0.36635  0.41747  0.68211  1.0000
  H   H105      1.0  0.06383  0.24920  0.71134  1.0000
  C   C68       1.0  0.30173  0.38125  0.66996  1.0000
  H   H106      1.0  0.30277  0.32857  0.69892  1.0000
  H   H107      1.0  0.35204  0.35416  0.70734  1.0000
  H   H108      1.0  0.36841  0.38802  0.64271  1.0000
  H   H109      1.0  0.33846  0.34231  0.65687  1.0000
  N   N7        1.0  0.33819  0.38112  0.67824  1.0000
  H   H110      1.0  0.13795  0.04298  0.60360  1.0000
  C   C69       1.0  0.14403  0.05186  0.58402  1.0000
  H   H111      1.0  0.06777  0.08910  0.56901  1.0000
  N   N8        1.0  0.00246  0.06660  0.57489  1.0000
  H   H112      1.0  0.04162  0.04794  0.55772  1.0000
  H   H113      1.0  0.04186  0.04761  0.58924  1.0000
  H   H114      1.0  0.12397  0.06413  0.57993  1.0000
  C   C70       1.0  0.15711  0.12013  0.50832  1.0000
  C   C71       1.0  0.04014  0.06259  0.57257  1.0000
  H   H115      1.0  0.08571  0.14988  0.51203  1.0000
  H   H116      1.0  0.07202  0.00311  0.57473  1.0000
  H   H117      1.0  0.24603  0.00065  0.50611  1.0000
  H   H118      1.0  0.38556  0.48096  0.73230  1.0000
  Fe  Fe16      1.0  0.28022  0.44810  0.76668  1.0000
  H   H119      1.0  0.38024  0.47215  0.82232  1.0000
  S   S28       1.0  0.21572  0.41287  0.76154  1.0000
  S   S29       1.0  0.30788  0.46345  0.79976  1.0000
  H   H120      1.0  0.43068  0.46808  0.84686  1.0000
  C   C72       1.0  0.28713  0.48446  0.81769  1.0000
  H   H121      1.0  0.23295  0.47020  0.80155  1.0000
  C   C73       1.0  0.24992  0.48408  0.81484  1.0000
  H   H122      1.0  0.46724  0.47913  0.82045  1.0000
  H   H123      1.0  0.41657  0.48141  0.79626  1.0000
  C   C74       1.0  0.41751  0.67551  0.19131  1.0000
  H   H124      1.0  0.27472  0.59820  0.15899  1.0000
  S   S30       1.0  0.31766  0.58188  0.11269  1.0000
  Fe  Fe17      1.0  0.32359  0.54286  0.13987  1.0000
  S   S31       1.0  0.27355  0.48880  0.15703  1.0000
  C   C75       1.0  0.36867  0.59103  0.03202  1.0000
  C   C76       1.0  0.30805  0.58914  0.01805  1.0000
  C   C77       1.0  0.33077  0.59064  0.03663  1.0000
  H   H125      1.0  0.39641  0.69199  0.23334  1.0000
  H   H126      1.0  0.31887  0.59134  0.05450  1.0000
  C   C78       1.0  0.48274  0.62732  0.17513  1.0000
  C   C79       1.0  0.46769  0.72779  0.20436  1.0000
  C   C80       1.0  0.46923  0.62203  0.19961  1.0000
  H   H127      1.0  0.43369  0.76138  0.17938  1.0000
  H   H128      1.0  0.27862  0.58862  0.02176  1.0000
  H   H129      1.0  0.29236  0.52502  0.21002  1.0000
  S   S32       1.0  0.38071  0.54742  0.11964  1.0000
  C   C81       1.0  0.24361  0.62204  0.20930  1.0000
  S   S33       1.0  0.41612  0.63422  0.11333  1.0000
  H   H130      1.0  0.21936  0.57386  0.19382  1.0000
  Fe  Fe18      1.0  0.37815  0.58993  0.09401  1.0000
  S   S34       1.0  0.39677  0.58971  0.05502  1.0000
  C   C82       1.0  0.30424  0.65056  0.16882  1.0000
  Fe  Fe19      1.0  0.41277  0.59080  0.14063  1.0000
  C   C83       1.0  0.27427  0.61493  0.17199  1.0000
  Fe  Fe20      1.0  0.35582  0.62287  0.13395  1.0000
  C   C84       1.0  0.24320  0.60107  0.19182  1.0000
  S   S35       1.0  0.20826  0.60258  0.23572  1.0000
  S   S36       1.0  0.35575  0.58310  0.16287  1.0000
  H   H131      1.0  0.47736  0.56001  0.20609  1.0000
  C   C85       1.0  0.20083  0.50982  0.23984  1.0000
  H   H132      1.0  0.26659  0.57287  0.23878  1.0000
  H   H133      1.0  0.41314  0.59065  0.00499  1.0000
  H   H134      1.0  0.40147  0.73465  0.22121  1.0000
  H   H135      1.0  0.27772  0.48924  0.24850  1.0000
  H   H136      1.0  0.26255  0.50975  0.07726  1.0000
  C   C86       1.0  0.27325  0.65780  0.20594  1.0000
  H   H137      1.0  0.46917  0.71125  0.22030  1.0000
  H   H138      1.0  0.44386  0.59692  0.20825  1.0000
  C   C87       1.0  0.30273  0.67233  0.18533  1.0000
  H   H139      1.0  0.44922  0.73666  0.16050  1.0000
  H   H140      1.0  0.27313  0.67442  0.21904  1.0000
  C   C88       1.0  0.38387  0.59048  0.00866  1.0000
  H   H141      1.0  0.44051  0.67693  0.17665  1.0000
  H   H142      1.0  0.36468  0.69478  0.21241  1.0000
  S   S37       1.0  0.46348  0.59147  0.15934  1.0000
  C   C89       1.0  0.42657  0.73408  0.17579  1.0000
  N   N9        1.0  0.24387  0.51678  0.23770  1.0000
  H   H143      1.0  0.36339  0.51094  0.07417  1.0000
  H   H144      1.0  0.47946  0.64421  0.23204  1.0000
  H   H145      1.0  0.41708  0.65751  0.20700  1.0000
  S   S38       1.0  0.34497  0.66748  0.14511  1.0000
  N   N10       1.0  0.42693  0.71135  0.19705  1.0000
  C   C90       1.0  0.26097  0.52243  0.21231  1.0000
  H   H146      1.0  0.39622  0.72255  0.16984  1.0000
  C   C91       1.0  0.39605  0.70805  0.21680  1.0000
  H   H147      1.0  0.35410  0.50659  0.16815  1.0000
  H   H148      1.0  0.26285  0.54706  0.20229  1.0000
  H   H149      1.0  0.38712  0.66261  0.18543  1.0000
  H   H150      1.0  0.24174  0.49987  0.20344  1.0000
  H   H151      1.0  0.32481  0.70025  0.18249  1.0000
  C   C92       1.0  0.48956  0.64868  0.21313  1.0000
  H   H152      1.0  0.30018  0.55494  0.24688  1.0000
  H   H153      1.0  0.34690  0.68732  0.00415  1.0000
  H   H154      1.0  0.33218  0.51743  0.03937  1.0000
  H   H155      1.0  0.48526  0.54878  0.23570  1.0000
  H   H156      1.0  0.47565  0.75473  0.20904  1.0000
  H   H157      1.0  0.31601  0.53662  0.07722  1.0000
  H   H158      1.0  0.47963  0.51926  0.21431  1.0000
  H   H159      1.0  0.19798  0.53251  0.23019  1.0000
  C   C93       1.0  0.29025  0.50931  0.08288  1.0000
  H   H160      1.0  0.28516  0.50377  0.10273  1.0000
  C   C94       1.0  0.26762  0.54899  0.24813  1.0000
  H   H161      1.0  0.27841  0.49193  0.03971  1.0000
  C   C95       1.0  0.30535  0.49095  0.04614  1.0000
  S   S39       1.0  0.23198  0.57588  0.34629  1.0000
  C   C96       1.0  0.46714  0.54687  0.32302  1.0000
  H   H162      1.0  0.18724  0.50598  0.25874  1.0000
  C   C97       1.0  0.21695  0.53498  0.33576  1.0000
  C   C98       1.0  0.19027  0.52562  0.31902  1.0000
  C   C99       1.0  0.99496  0.97033  0.42461  1.0000
  C   C100      1.0  0.23195  0.51163  0.34402  1.0000
  H   H163      1.0  0.17833  0.54336  0.31267  1.0000
  H   H164      1.0  0.00997  0.83351  0.47594  1.0000
  H   H165      1.0  0.25218  0.51846  0.35718  1.0000
  C   C101      1.0  0.10483  0.59499  0.34842  1.0000
  H   H166      1.0  0.12471  0.59771  0.40526  1.0000
  C   C102      1.0  0.11096  0.58532  0.38995  1.0000
  S   S40       1.0  0.27881  0.62792  0.28256  1.0000
  H   H167      1.0  0.30673  0.58733  0.31992  1.0000
  H   H168      1.0  0.39652  0.63448  0.29678  1.0000
  Fe  Fe21      1.0  0.21798  0.67785  0.30178  1.0000
  C   C103      1.0  0.00852  0.88393  0.42632  1.0000
  H   H169      1.0  0.41962  0.58463  0.32353  1.0000
  H   H170      1.0  0.07093  0.58152  0.35265  1.0000
  C   C104      1.0  0.11092  0.63984  0.37283  1.0000
  H   H171      1.0  0.00537  0.81888  0.42589  1.0000
  H   H172      1.0  0.40866  0.61612  0.33721  1.0000
  N   N11       1.0  0.10087  0.97737  0.36480  1.0000
  Fe  Fe22      1.0  0.22906  0.63293  0.26593  1.0000
  H   H173      1.0  0.38266  0.56962  0.35015  1.0000
  H   H174      1.0  0.36379  0.53691  0.30612  1.0000
  H   H175      1.0  0.40273  0.59924  0.28504  1.0000
  H   H176      1.0  0.35637  0.60283  0.28358  1.0000
  H   H177      1.0  0.12648  0.65512  0.38673  1.0000
  N   N12       1.0  0.12380  0.61237  0.36831  1.0000
  H   H178      1.0  0.31677  0.53925  0.30437  1.0000
  C   C105      1.0  0.16868  0.62937  0.36191  1.0000
  H   H179      1.0  0.32793  0.52663  0.33254  1.0000
  C   C106      1.0  0.39463  0.58850  0.33297  1.0000
  H   H180      1.0  0.11371  0.61492  0.33188  1.0000
  H   H181      1.0  0.42514  0.53065  0.35596  1.0000
  C   C107      1.0  0.42995  0.52522  0.33814  1.0000
  C   C108      1.0  0.38019  0.60578  0.29485  1.0000
  C   C109      1.0  0.33176  0.59163  0.33045  1.0000
  H   H182      1.0  0.17959  0.60939  0.35862  1.0000
  H   H183      1.0  0.07741  0.62781  0.37873  1.0000
  H   H184      1.0  0.34565  0.62001  0.33311  1.0000
  H   H185      1.0  0.31758  0.57486  0.34831  1.0000
  Fe  Fe23      1.0  0.23944  0.61889  0.31718  1.0000
  N   N13       1.0  0.36212  0.58268  0.31834  1.0000
  H   H186      1.0  0.07719  0.57161  0.39524  1.0000
  C   C110      1.0  0.34181  0.54479  0.31510  1.0000
  S   S41       1.0  0.18732  0.61885  0.30054  1.0000
  H   H187      1.0  0.11840  0.65958  0.35643  1.0000
  H   H188      1.0  0.17921  0.64940  0.34542  1.0000
  H   H189      1.0  0.04928  0.85725  0.45104  1.0000
  H   H190      1.0  0.03150  0.78847  0.38573  1.0000
  H   H191      1.0  0.18424  0.64345  0.37621  1.0000
  H   H192      1.0  0.09788  0.96236  0.40234  1.0000
  C   C111      1.0  0.20685  0.97583  0.41072  1.0000
  H   H193      1.0  0.44994  0.73172  0.26120  1.0000
  H   H194      1.0  0.12067  0.56445  0.38709  1.0000
  S   S42       1.0  0.25512  0.69200  0.26532  1.0000
  Fe  Fe24      1.0  0.10813  0.84870  0.39652  1.0000
  S   S43       1.0  0.07330  0.86587  0.37277  1.0000
  Fe  Fe25      1.0  0.11504  0.83424  0.44837  1.0000
  S   S44       1.0  0.12878  0.88421  0.42397  1.0000
  S   S45       1.0  0.08928  0.79771  0.42175  1.0000
  S   S46       1.0  0.36855  0.72181  0.27233  1.0000
  H   H195      1.0  0.20647  0.97261  0.46281  1.0000
  C   C112      1.0  0.13312  0.96679  0.35868  1.0000
  H   H196      1.0  0.12845  0.94279  0.37109  1.0000
  S   S47       1.0  0.48067  0.68448  0.33393  1.0000
  H   H197      1.0  0.40059  0.67874  0.34658  1.0000
  C   C113      1.0  0.24115  0.97500  0.39899  1.0000
  H   H198      1.0  0.23114  0.83327  0.36092  1.0000
  H   H199      1.0  0.35548  0.69189  0.32215  1.0000
  H   H200      1.0  0.05341  0.92360  0.37581  1.0000
  S   S48       1.0  0.17049  0.85580  0.38333  1.0000
  S   S49       1.0  0.17821  0.84033  0.43991  1.0000
  S   S50       1.0  0.08245  0.82481  0.48570  1.0000
  Fe  Fe26      1.0  0.18976  0.88722  0.41302  1.0000
  C   C114      1.0  0.02191  0.85662  0.46126  1.0000
  Fe  Fe27      1.0  0.15427  0.80806  0.41092  1.0000
  S   S51       1.0  0.18059  0.76985  0.40607  1.0000
  Fe  Fe28      1.0  0.30188  0.68592  0.28483  1.0000
  H   H201      1.0  0.05955  0.94043  0.34493  1.0000
  C   C115      1.0  0.44279  0.51069  0.29229  1.0000
  C   C116      1.0  0.15071  0.88502  0.49092  1.0000
  S   S52       1.0  0.17854  0.70423  0.31119  1.0000
  C   C117      1.0  0.39881  0.49689  0.33010  1.0000
  C   C118      1.0  0.39967  0.71245  0.29003  1.0000
  C   C119      1.0  0.38569  0.69739  0.31410  1.0000
  C   C120      1.0  0.45013  0.69667  0.31742  1.0000
  S   S53       1.0  0.03350  0.98648  0.44232  1.0000
  C   C121      1.0  0.18084  0.75312  0.37916  1.0000
  C   C122      1.0  0.20536  0.73637  0.37468  1.0000
  C   C123      1.0  0.20652  0.72285  0.35333  1.0000
  C   C124      1.0  0.18217  0.72504  0.33666  1.0000
  C   C125      1.0  0.15787  0.74202  0.34109  1.0000
  C   C126      1.0  0.15751  0.75639  0.36218  1.0000
  H   H202      1.0  0.22372  0.73405  0.38772  1.0000
  H   H203      1.0  0.22586  0.71038  0.34996  1.0000
  H   H204      1.0  0.13889  0.74373  0.32826  1.0000
  H   H205      1.0  0.13854  0.76930  0.36549  1.0000
  H   H206      1.0  0.11452  0.57458  0.34417  1.0000
  H   H207      1.0  0.16083  0.88741  0.47217  1.0000
  H   H208      1.0  0.26217  0.81122  0.36360  1.0000
  H   H209      1.0  0.20432  0.93181  0.49553  1.0000
  H   H210      1.0  0.18593  0.95389  0.42426  1.0000
  H   H211      1.0  0.35069  0.88827  0.37893  1.0000
  H   H212      1.0  0.30840  0.91991  0.37457  1.0000
  H   H213      1.0  0.25907  0.89729  0.36624  1.0000
  C   C127      1.0  0.06059  0.94794  0.36306  1.0000
  C   C128      1.0  0.26327  0.83763  0.35818  1.0000
  H   H214      1.0  0.26928  0.82622  0.40440  1.0000
  H   H215      1.0  0.03530  0.88487  0.41507  1.0000
  H   H216      1.0  0.34476  0.87687  0.34956  1.0000
  C   C129      1.0  0.41126  0.69012  0.32792  1.0000
  H   H217      1.0  0.03557  0.95523  0.36711  1.0000
  H   H218      1.0  0.03232  0.88157  0.46920  1.0000
  C   C130      1.0  0.47364  0.53937  0.30016  1.0000
  C   C131      1.0  0.46384  0.71145  0.29331  1.0000
  S   S54       1.0  0.26724  0.67677  0.32136  1.0000
  H   H219      1.0  0.30365  0.90928  0.34491  1.0000
  N   N14       1.0  0.28882  0.86443  0.37212  1.0000
  H   H220      1.0  0.28929  0.87227  0.40880  1.0000
  C   C132      1.0  0.43892  0.71985  0.27975  1.0000
  H   H221      1.0  0.13338  0.95995  0.34039  1.0000
  S   S55       1.0  0.24932  0.93759  0.40530  1.0000
  H   H222      1.0  0.01865  0.90969  0.43327  1.0000
  C   C133      1.0  0.99530  0.84506  0.36513  1.0000
  H   H223      1.0  0.33059  0.84237  0.37474  1.0000
  H   H224      1.0  0.27497  0.84587  0.33875  1.0000
  H   H225      1.0  0.23967  0.84933  0.40080  1.0000
  C   C134      1.0  0.27122  0.85260  0.39765  1.0000
  C   C135      1.0  0.33062  0.86819  0.36867  1.0000
  C   C136      1.0  0.29016  0.89924  0.36404  1.0000
  C   C137      1.0  0.02306  0.83373  0.37251  1.0000
  H   H226      1.0  0.44761  0.50483  0.27463  1.0000
  C   C138      1.0  0.40520  0.48990  0.30708  1.0000
  H   H227      1.0  0.25507  0.54566  0.26725  1.0000
  C   C139      1.0  0.11363  0.85638  0.50215  1.0000
  C   C140      1.0  0.01005  0.79740  0.38028  1.0000
  H   H228      1.0  0.18368  0.98308  0.48807  1.0000
  C   C141      1.0  0.17770  0.49253  0.31114  1.0000
  H   H229      1.0  0.00513  0.87297  0.35885  1.0000
  C   C142      1.0  0.10118  0.98525  0.38937  1.0000
  N   N15       1.0  0.99094  0.85317  0.44591  1.0000
  C   C143      1.0  0.99940  0.98769  0.40155  1.0000
  H   H230      1.0  0.33174  0.63095  0.70172  1.0000
  H   H231      1.0  0.02857  0.90073  0.70921  1.0000
  H   H232      1.0  0.34675  0.56544  0.70550  1.0000
  C   C144      1.0  0.19763  0.54768  0.72547  1.0000
  C   C145      1.0  0.20043  0.51760  0.73568  1.0000
  H   H233      1.0  0.36186  0.56888  0.67431  1.0000
  H   H234      1.0  0.35319  0.63463  0.65792  1.0000
  H   H235      1.0  0.20546  0.60023  0.72955  1.0000
  H   H236      1.0  0.00938  0.83668  0.54262  1.0000
  C   C146      1.0  0.40752  0.52456  0.70314  1.0000
  C   C147      1.0  0.43751  0.55956  0.69421  1.0000
  C   C148      1.0  0.20787  0.57714  0.73742  1.0000
  C   C149      1.0  0.00959  0.83374  0.61980  1.0000
  N   N16       1.0  0.31671  0.58639  0.68286  1.0000
  C   C150      1.0  0.32612  0.60816  0.65911  1.0000
  C   C151      1.0  0.35284  0.58221  0.68789  1.0000
  C   C152      1.0  0.28196  0.55085  0.68321  1.0000
  C   C153      1.0  0.30591  0.60432  0.70117  1.0000
  C   C154      1.0  0.45702  0.71190  0.64590  1.0000
  H   H237      1.0  0.27379  0.53386  0.70090  1.0000
  H   H238      1.0  0.33287  0.59481  0.64476  1.0000
  H   H239      1.0  0.43716  0.57253  0.67699  1.0000
  H   H240      1.0  0.27958  0.60896  0.69743  1.0000
  H   H241      1.0  0.25408  0.55286  0.67946  1.0000
  H   H242      1.0  0.29710  0.58799  0.71923  1.0000
  H   H243      1.0  0.28906  0.53619  0.66989  1.0000
  H   H244      1.0  0.30028  0.61340  0.65517  1.0000
  H   H245      1.0  0.08818  0.98319  0.59791  1.0000
  H   H246      1.0  0.37970  0.60852  0.68781  1.0000
  Fe  Fe29      1.0  0.32960  0.73822  0.74937  1.0000
  H   H247      1.0  0.18781  0.54828  0.70827  1.0000
  C   C155      1.0  0.43904  0.52596  0.73855  1.0000
  C   C156      1.0  0.45494  0.75475  0.74491  1.0000
  Fe  Fe30      1.0  0.11543  0.85870  0.62077  1.0000
  S   S56       1.0  0.11864  0.91018  0.60412  1.0000
  H   H248      1.0  0.35368  0.61745  0.75176  1.0000
  Fe  Fe31      1.0  0.20480  0.89263  0.62646  1.0000
  S   S57       1.0  0.21624  0.94764  0.61011  1.0000
  S   S58       1.0  0.25501  0.87981  0.63607  1.0000
  Fe  Fe32      1.0  0.15627  0.93377  0.63224  1.0000
  H   H249      1.0  0.01576  0.90667  0.63561  1.0000
  Fe  Fe33      1.0  0.17777  0.91958  0.58340  1.0000
  S   S59       1.0  0.19243  0.94100  0.54415  1.0000
  S   S60       1.0  0.14783  0.88112  0.65086  1.0000
  S   S61       1.0  0.17161  0.86598  0.59761  1.0000
  S   S62       1.0  0.06110  0.80429  0.62761  1.0000
  S   S63       1.0  0.32482  0.75856  0.71253  1.0000
  C   C157      1.0  0.46867  0.56102  0.72986  1.0000
  N   N17       1.0  0.01459  0.90162  0.67351  1.0000
  C   C158      1.0  0.39458  0.70386  0.66938  1.0000
  C   C159      1.0  0.41172  0.70361  0.69014  1.0000
  C   C160      1.0  0.45127  0.70698  0.68878  1.0000
  Fe  Fe34      1.0  0.26018  0.66486  0.75084  1.0000
  C   C161      1.0  0.47083  0.81688  0.73621  1.0000
  C   C162      1.0  0.41724  0.70785  0.64730  1.0000
  H   H250      1.0  0.12984  0.78633  0.60942  1.0000
  H   H251      1.0  0.16218  0.98553  0.56603  1.0000
  C   C163      1.0  0.22714  0.78971  0.69738  1.0000
  C   C164      1.0  0.26255  0.80290  0.68056  1.0000
  C   C165      1.0  0.27158  0.83147  0.66232  1.0000
  C   C166      1.0  0.24509  0.84677  0.66065  1.0000
  C   C167      1.0  0.21025  0.83417  0.67784  1.0000
  C   C168      1.0  0.20142  0.80582  0.69618  1.0000
  H   H252      1.0  0.28259  0.79070  0.68130  1.0000
  H   H253      1.0  0.29869  0.84120  0.64913  1.0000
  H   H254      1.0  0.19008  0.84619  0.67700  1.0000
  H   H255      1.0  0.17431  0.79605  0.70937  1.0000
  C   C169      1.0  0.16240  0.90773  0.52835  1.0000
  C   C170      1.0  0.12564  0.87878  0.53970  1.0000
  C   C171      1.0  0.47401  0.71127  0.66664  1.0000
  H   H256      1.0  0.11592  0.87612  0.55856  1.0000
  H   H257      1.0  0.40409  0.70800  0.63120  1.0000
  H   H258      1.0  0.00000  0.80440  0.52290  1.0000
  C   C172      1.0  0.12030  0.75843  0.61797  1.0000
  H   H259      1.0  0.42609  0.74666  0.73735  1.0000
  H   H260      1.0  0.08954  0.76325  0.66058  1.0000
  S   S64       1.0  0.21247  0.75175  0.71911  1.0000
  H   H261      1.0  0.00739  0.94878  0.67612  1.0000
  H   H262      1.0  0.07328  0.83052  0.53551  1.0000
  S   S65       1.0  0.13833  0.96833  0.65292  1.0000
  C   C173      1.0  0.04419  0.91031  0.69041  1.0000
  H   H263      1.0  0.46871  0.78212  0.69880  1.0000
  H   H264      1.0  0.05478  0.94423  0.64541  1.0000
  H   H265      1.0  0.13717  0.71928  0.66784  1.0000
  S   S66       1.0  0.00060  0.96427  0.61681  1.0000
  Fe  Fe35      1.0  0.25719  0.73010  0.72529  1.0000
  Fe  Fe36      1.0  0.31640  0.70510  0.70464  1.0000
  H   H266      1.0  0.47450  0.71524  0.62874  1.0000
  C   C174      1.0  0.10130  0.85313  0.52660  1.0000
  S   S67       1.0  0.24821  0.67788  0.71435  1.0000
  H   H267      1.0  0.13452  0.70615  0.63889  1.0000
  N   N18       1.0  0.13770  0.75782  0.64013  1.0000
  H   H268      1.0  0.09045  0.70541  0.65569  1.0000
  H   H269      1.0  0.44233  0.80974  0.72836  1.0000
  H   H270      1.0  0.19463  0.76491  0.62127  1.0000
  H   H271      1.0  0.06493  0.89810  0.68726  1.0000
  H   H272      1.0  0.03610  0.85945  0.61709  1.0000
  C   C175      1.0  0.12430  0.72045  0.65108  1.0000
  C   C176      1.0  0.12347  0.77564  0.65697  1.0000
  H   H273      1.0  0.13419  0.77408  0.67435  1.0000
  H   H274      1.0  0.13029  0.74524  0.60478  1.0000
  H   H275      1.0  0.08631  0.74475  0.62155  1.0000
  H   H276      1.0  0.08810  0.97003  0.56906  1.0000
  H   H277      1.0  0.39448  0.70045  0.70721  1.0000
  S   S68       1.0  0.36823  0.50179  0.68706  1.0000
  H   H278      1.0  0.19682  0.77567  0.65076  1.0000
  H   H279      1.0  0.19423  0.80556  0.62719  1.0000
  H   H280      1.0  0.13482  0.80440  0.64981  1.0000
  S   S69       1.0  0.34414  0.69701  0.67057  1.0000
  C   C177      1.0  0.18276  0.77679  0.63455  1.0000
  S   S70       1.0  0.32754  0.68756  0.74027  1.0000
  C   C178      1.0  0.40824  0.50796  0.72537  1.0000
  H   H281      1.0  0.00739  0.84849  0.67282  1.0000
  H   H282      1.0  0.06405  0.93971  0.68841  1.0000
  C   C179      1.0  0.01350  0.80260  0.62522  1.0000
  H   H283      1.0  0.46549  0.73428  0.74283  1.0000
  H   H284      1.0  0.46431  0.70670  0.70481  1.0000
  H   H285      1.0  0.05885  0.90368  0.64552  1.0000
  C   C180      1.0  0.03694  0.91456  0.64890  1.0000
  S   S71       1.0  0.29049  0.49286  0.73841  1.0000
  C   C181      1.0  0.46779  0.57801  0.70775  1.0000
  N   N19       1.0  0.48643  0.79074  0.73330  1.0000
  C   C182      1.0  0.17511  0.91049  0.50405  1.0000
  C   C183      1.0  0.23901  0.66214  0.85245  1.0000
  H   H286      1.0  0.20489  0.49999  0.82781  1.0000
  H   H287      1.0  0.25917  0.66082  0.86537  1.0000
  H   H288      1.0  0.26772  0.61546  0.84503  1.0000
  H   H289      1.0  0.35289  0.57499  0.75978  1.0000
  H   H290      1.0  0.17639  0.60577  0.81897  1.0000
  H   H291      1.0  0.37906  0.59039  0.82019  1.0000
  Fe  Fe37      1.0  0.37397  0.60164  0.88861  1.0000
  S   S72       1.0  0.31824  0.55491  0.91011  1.0000
  H   H292      1.0  0.17594  0.57294  0.85784  1.0000
  H   H293      1.0  0.36778  0.55949  0.79931  1.0000
  S   S73       1.0  0.27748  0.60972  0.90987  1.0000
  N   N20       1.0  0.21780  0.62780  0.84370  1.0000
  Fe  Fe38      1.0  0.31636  0.59539  0.93233  1.0000
  S   S74       1.0  0.29399  0.58767  0.97192  1.0000
  Fe  Fe39      1.0  0.28463  0.57340  0.88610  1.0000
  S   S75       1.0  0.23650  0.54007  0.86560  1.0000
  H   H294      1.0  0.26844  0.63909  0.81682  1.0000
  S   S76       1.0  0.34026  0.61691  0.86319  1.0000
  H   H295      1.0  0.40555  0.68814  0.98005  1.0000
  C   C184      1.0  0.30866  0.50208  0.83513  1.0000
  C   C185      1.0  0.29336  0.51950  0.84958  1.0000
  H   H296      1.0  0.46382  0.56241  0.79694  1.0000
  H   H297      1.0  0.37332  0.58886  0.97212  1.0000
  C   C186      1.0  0.21284  0.51676  0.75797  1.0000
  H   H298      1.0  0.41537  0.60005  0.79394  1.0000
  C   C187      1.0  0.25575  0.51854  0.84717  1.0000
  C   C188      1.0  0.38300  0.64526  0.79014  1.0000
  C   C189      1.0  0.38881  0.68396  0.96456  1.0000
  H   H299      1.0  0.48612  0.53366  0.79149  1.0000
  H   H300      1.0  0.44730  0.75386  0.76440  1.0000
  C   C190      1.0  0.46319  0.69154  0.82538  1.0000
  C   C191      1.0  0.22187  0.54573  0.77022  1.0000
  H   H301      1.0  0.21453  0.49336  0.76601  1.0000
  S   S77       1.0  0.42767  0.59841  0.86979  1.0000
  C   C192      1.0  0.24828  0.61840  0.83226  1.0000
  N   N21       1.0  0.35986  0.69912  0.96583  1.0000
  C   C193      1.0  0.33082  0.68297  0.98838  1.0000
  H   H302      1.0  0.23045  0.54459  0.78771  1.0000
  N   N22       1.0  0.44041  0.51453  0.82285  1.0000
  N   N23       1.0  0.36300  0.60703  0.78768  1.0000
  H   H303      1.0  0.40464  0.75117  0.94788  1.0000
  C   C194      1.0  0.36776  0.60357  0.76222  1.0000
  C   C195      1.0  0.19244  0.63116  0.82613  1.0000
  H   H304      1.0  0.16779  0.60511  0.87286  1.0000
  C   C196      1.0  0.36134  0.58936  0.99003  1.0000
  H   H305      1.0  0.40001  0.50815  0.85468  1.0000
  S   S78       1.0  0.26288  0.71423  0.76308  1.0000
  H   H306      1.0  0.38443  0.77923  0.85431  1.0000
  H   H307      1.0  0.37266  0.65470  0.96448  1.0000
  H   H308      1.0  0.36179  0.75056  0.96576  1.0000
  C   C197      1.0  0.31907  0.59078  0.79745  1.0000
  H   H309      1.0  0.30358  0.60432  0.78807  1.0000
  S   S79       1.0  0.23251  0.61237  0.77519  1.0000
  H   H310      1.0  0.16898  0.63820  0.83405  1.0000
  C   C198      1.0  0.32325  0.58853  0.99470  1.0000
  H   H311      1.0  0.25863  0.68424  0.83755  1.0000
  C   C199      1.0  0.19159  0.59934  0.86387  1.0000
  Fe  Fe40      1.0  0.33658  0.65172  0.88899  1.0000
  H   H312      1.0  0.21698  0.66986  0.86152  1.0000
  H   H313      1.0  0.31243  0.65358  0.98937  1.0000
  H   H314      1.0  0.21140  0.65221  0.81054  1.0000
  S   S80       1.0  0.37547  0.64054  0.91286  1.0000
  H   H315      1.0  0.20985  0.59613  0.87744  1.0000
  H   H316      1.0  0.31035  0.53306  0.86293  1.0000
  H   H317      1.0  0.45864  0.71506  0.82516  1.0000
  C   C200      1.0  0.45151  0.63381  0.84573  1.0000
  H   H318      1.0  0.30894  0.69421  0.99015  1.0000
  C   C201      1.0  0.33713  0.69130  0.94549  1.0000
  H   H319      1.0  0.41386  0.54767  0.83375  1.0000
  C   C202      1.0  0.38270  0.73823  0.96482  1.0000
  H   H320      1.0  0.30305  0.56200  0.79566  1.0000
  H   H321      1.0  0.31414  0.59226  0.81674  1.0000
  H   H322      1.0  0.31532  0.70269  0.94557  1.0000
  C   C203      1.0  0.38217  0.58838  0.80086  1.0000
  H   H323      1.0  0.31917  0.66198  0.94585  1.0000
  H   H324      1.0  0.43982  0.51273  0.75550  1.0000
  H   H325      1.0  0.35815  0.70266  0.92817  1.0000
  S   S81       1.0  0.37666  0.77184  0.77020  1.0000
  C   C204      1.0  0.38184  0.77568  0.81713  1.0000
  C   C205      1.0  0.34918  0.71591  0.80750  1.0000
  H   H326      1.0  0.39671  0.80435  0.81161  1.0000
  C   C206      1.0  0.40678  0.49398  0.81001  1.0000
  C   C207      1.0  0.42541  0.52948  0.84148  1.0000
  S   S82       1.0  0.34615  0.70771  0.87928  1.0000
  H   H327      1.0  0.40043  0.74507  0.97983  1.0000
  H   H328      1.0  0.33871  0.69835  0.79448  1.0000
  H   H329      1.0  0.41176  0.69611  0.94801  1.0000
  C   C208      1.0  0.36843  0.75302  0.80025  1.0000
  H   H330      1.0  0.42753  0.66686  0.86020  1.0000
  H   H331      1.0  0.32951  0.67319  0.83721  1.0000
  C   C209      1.0  0.23403  0.50084  0.82975  1.0000
  C   C210      1.0  0.35604  0.72447  0.84864  1.0000
  C   C211      1.0  0.34387  0.70167  0.83165  1.0000
  H   H332      1.0  0.23326  0.59245  0.82559  1.0000
  H   H333      1.0  0.41615  0.65839  0.78275  1.0000
  C   C212      1.0  0.47404  0.54393  0.80586  1.0000
  C   C213      1.0  0.44535  0.66412  0.84518  1.0000
  C   C214      1.0  0.37494  0.76145  0.84130  1.0000
  H   H334      1.0  0.39543  0.51130  0.80072  1.0000
  H   H335      1.0  0.45000  0.54528  0.85154  1.0000
  H   H336      1.0  0.38052  0.64888  0.80917  1.0000
  H   H337      1.0  0.36911  0.66017  0.78061  1.0000
  C   C215      1.0  0.21980  0.57606  0.75985  1.0000
  C   C216      1.0  0.45543  0.49070  0.83404  1.0000
  C   C217      1.0  0.47543  0.63103  0.82641  1.0000
  H   H338      1.0  0.48077  0.60801  0.82681  1.0000
  H   H339      1.0  0.48071  0.50538  0.84399  1.0000
  H   H340      1.0  0.33714  0.50214  0.83758  1.0000
  H   H341      1.0  0.46324  0.81779  0.75539  1.0000
  C   C218      1.0  0.48687  0.68856  0.80597  1.0000
  H   H342      1.0  0.40058  0.61532  0.75427  1.0000
  H   H343      1.0  0.93743  0.03272  0.58243  1.0000
  H   H344      1.0  0.95733  0.03692  0.66258  1.0000
  C   C219      1.0  0.98218  0.03163  0.65620  1.0000
  H   H345      1.0  0.96543  0.01487  0.56571  1.0000
  H   H346      1.0  0.96697  0.01523  0.59690  1.0000
  C   C220      1.0  0.96652  0.03086  0.58019  1.0000
  H   H347      1.0  0.97258  0.08919  0.55343  1.0000
  C   C221      1.0  0.97449  0.00200  0.64459  1.0000
  H   H348      1.0  0.97408  0.08995  0.59712  1.0000
  C   C222      1.0  0.53476  0.68697  0.17741  1.0000
  H   H349      1.0  0.57976  0.58101  0.17603  1.0000
  H   H350      1.0  0.55066  0.54693  0.24114  1.0000
  H   H351      1.0  0.58836  0.61811  0.20898  1.0000
  C   C223      1.0  0.54637  0.56711  0.18268  1.0000
  H   H352      1.0  0.56026  0.71202  0.16879  1.0000
  H   H353      1.0  0.53244  0.58136  0.17238  1.0000
  S   S83       1.0  0.54973  0.71398  0.21884  1.0000
  C   C224      1.0  0.52289  0.68091  0.20211  1.0000
  H   H354      1.0  0.53366  0.53958  0.17828  1.0000
  C   C225      1.0  0.55449  0.60375  0.21340  1.0000
  H   H355      1.0  0.59059  0.56136  0.21620  1.0000
  H   H356      1.0  0.54623  0.60453  0.23250  1.0000
  N   N24       1.0  0.53769  0.56663  0.20855  1.0000
  C   C226      1.0  0.55686  0.54781  0.22157  1.0000
  H   H357      1.0  0.54493  0.51971  0.21835  1.0000
  H   H358      1.0  0.54273  0.61941  0.20272  1.0000
  H   H359      1.0  0.52565  0.66415  0.14507  1.0000
  C   C227      1.0  0.51505  0.66002  0.16398  1.0000
  C   C228      1.0  0.49305  0.54786  0.21654  1.0000
  H   H360      1.0  0.49199  0.73092  0.18993  1.0000
  Fe  Fe41      1.0  0.54184  0.62340  0.28524  1.0000
  C   C229      1.0  0.87137  0.89035  0.49608  1.0000
  H   H361      1.0  0.82214  0.74742  0.35590  1.0000
  H   H362      1.0  0.77298  0.74186  0.36807  1.0000
  S   S84       1.0  0.56116  0.64932  0.31735  1.0000
  C   C230      1.0  0.97013  0.97138  0.38689  1.0000
  Fe  Fe42      1.0  0.85789  0.78527  0.39137  1.0000
  S   S85       1.0  0.83246  0.81617  0.37063  1.0000
  S   S86       1.0  0.88893  0.75442  0.37781  1.0000
  Fe  Fe43      1.0  0.83723  0.80500  0.43871  1.0000
  S   S87       1.0  0.80861  0.83713  0.42258  1.0000
  S   S88       1.0  0.84615  0.79416  0.47669  1.0000
  Fe  Fe44      1.0  0.78064  0.79235  0.40136  1.0000
  S   S89       1.0  0.71395  0.76398  0.39740  1.0000
  S   S90       1.0  0.80424  0.75824  0.42038  1.0000
  S   S91       1.0  0.89274  0.82949  0.41086  1.0000
  H   H363      1.0  0.87837  0.91684  0.48753  1.0000
  C   C231      1.0  0.96034  0.93780  0.43336  1.0000
  H   H364      1.0  0.72711  0.68643  0.33630  1.0000
  H   H365      1.0  0.90458  0.89653  0.42564  1.0000
  Fe  Fe45      1.0  0.61109  0.69384  0.29082  1.0000
  S   S92       1.0  0.67669  0.72442  0.29571  1.0000
  H   H366      1.0  0.61324  0.78292  0.38102  1.0000
  H   H367      1.0  0.93253  0.85300  0.44913  1.0000
  H   H368      1.0  0.95593  0.92513  0.45151  1.0000
  Fe  Fe46      1.0  0.86239  0.85827  0.39313  1.0000
  H   H369      1.0  0.80754  0.69516  0.38698  1.0000
  C   C232      1.0  0.62748  0.78229  0.33418  1.0000
  C   C233      1.0  0.70326  0.75387  0.36903  1.0000
  C   C234      1.0  0.66681  0.72415  0.36699  1.0000
  C   C235      1.0  0.65815  0.71498  0.34450  1.0000
  C   C236      1.0  0.68603  0.73553  0.32402  1.0000
  C   C237      1.0  0.72236  0.76529  0.32607  1.0000
  C   C238      1.0  0.73074  0.77470  0.34850  1.0000
  H   H370      1.0  0.64561  0.70784  0.38288  1.0000
  H   H371      1.0  0.63031  0.69170  0.34305  1.0000
  H   H372      1.0  0.74390  0.78138  0.31023  1.0000
  H   H373      1.0  0.75845  0.79815  0.34987  1.0000
  Fe  Fe47      1.0  0.52431  0.67730  0.30783  1.0000
  H   H374      1.0  0.54023  0.71722  0.36816  1.0000
  H   H375      1.0  0.95874  0.74446  0.38722  1.0000
  H   H376      1.0  0.93288  0.82949  0.36091  1.0000
  C   C239      1.0  0.85431  0.82863  0.49342  1.0000
  H   H377      1.0  0.86381  0.86811  0.46349  1.0000
  H   H378      1.0  0.75721  0.68937  0.39646  1.0000
  H   H379      1.0  0.56174  0.77640  0.38209  1.0000
  H   H380      1.0  0.71083  0.68392  0.36728  1.0000
  C   C240      1.0  0.57148  0.72929  0.35763  1.0000
  S   S93       1.0  0.57567  0.72399  0.28380  1.0000
  H   H381      1.0  0.78560  0.74348  0.33662  1.0000
  H   H382      1.0  0.65056  0.78019  0.34444  1.0000
  H   H383      1.0  0.60341  0.81590  0.36463  1.0000
  S   S94       1.0  0.90178  0.91580  0.37661  1.0000
  C   C241      1.0  0.78912  0.73347  0.35459  1.0000
  C   C242      1.0  0.95433  0.82040  0.36624  1.0000
  C   C243      1.0  0.96902  0.77251  0.38093  1.0000
  H   H384      1.0  0.83059  0.69733  0.34450  1.0000
  H   H385      1.0  0.63941  0.81099  0.32668  1.0000
  C   C244      1.0  0.77550  0.68230  0.38335  1.0000
  C   C245      1.0  0.95521  0.85251  0.46029  1.0000
  H   H386      1.0  0.55417  0.75960  0.31972  1.0000
  S   S95       1.0  0.59488  0.66543  0.25936  1.0000
  H   H387      1.0  0.56947  0.71451  0.34238  1.0000
  C   C246      1.0  0.93127  0.92158  0.41877  1.0000
  C   C247      1.0  0.86327  0.86284  0.48244  1.0000
  H   H388      1.0  0.71707  0.64763  0.35718  1.0000
  H   H389      1.0  0.79719  0.69383  0.32298  1.0000
  H   H390      1.0  0.95692  0.81686  0.42311  1.0000
  C   C248      1.0  0.93646  0.93793  0.39538  1.0000
  C   C249      1.0  0.94108  0.78415  0.37422  1.0000
  N   N25       1.0  0.77315  0.69433  0.35859  1.0000
  C   C250      1.0  0.59153  0.78664  0.37019  1.0000
  Fe  Fe48      1.0  0.55421  0.69104  0.25498  1.0000
  C   C251      1.0  0.79797  0.68467  0.34181  1.0000
  H   H391      1.0  0.62606  0.76753  0.31894  1.0000
  H   H392      1.0  0.52734  0.76250  0.34634  1.0000
  H   H393      1.0  0.93891  0.82799  0.47387  1.0000
  C   C252      1.0  0.55823  0.77348  0.33551  1.0000
  H   H394      1.0  0.56884  0.80230  0.32898  1.0000
  N   N26       1.0  0.58719  0.76794  0.34936  1.0000
  H   H395      1.0  0.78682  0.65528  0.34422  1.0000
  C   C253      1.0  0.73016  0.67723  0.35465  1.0000
  S   S96       1.0  0.49977  0.64678  0.27850  1.0000
  H   H396      1.0  0.76396  0.65288  0.38705  1.0000
  S   S97       1.0  0.51970  0.56618  0.28101  1.0000
  H   H397      1.0  0.96409  0.87605  0.46965  1.0000
  H   H398      1.0  0.97373  0.98438  0.36891  1.0000
  H   H399      1.0  0.59141  0.72411  0.36910  1.0000
  C   C254      1.0  0.97858  0.81970  0.43585  1.0000
  H   H400      1.0  0.49380  0.71672  0.28505  1.0000
  H   H401      1.0  0.96348  0.79572  0.44996  1.0000
  H   H402      1.0  0.98578  0.88232  0.41445  1.0000
  H   H403      1.0  0.49104  0.56892  0.32920  1.0000
  Fe  Fe49      1.0  0.53664  0.64211  0.73463  1.0000
  H   H404      1.0  0.91748  0.75809  0.57572  1.0000
  H   H405      1.0  0.96557  0.85517  0.66449  1.0000
  Fe  Fe50      1.0  0.84493  0.88826  0.62793  1.0000
  S   S98       1.0  0.83435  0.85237  0.60029  1.0000
  S   S99       1.0  0.79178  0.88557  0.65210  1.0000
  Fe  Fe51      1.0  0.93663  0.92560  0.61340  1.0000
  S   S100      1.0  0.93407  0.89302  0.58462  1.0000
  Fe  Fe52      1.0  0.88147  0.90172  0.57605  1.0000
  S   S101      1.0  0.88047  0.91819  0.53766  1.0000
  Fe  Fe53      1.0  0.88796  0.84698  0.61138  1.0000
  S   S102      1.0  0.88907  0.79435  0.61606  1.0000
  S   S103      1.0  0.88778  0.93861  0.60265  1.0000
  S   S104      1.0  0.89481  0.87861  0.64120  1.0000
  Fe  Fe54      1.0  0.53996  0.70201  0.69934  1.0000
  S   S105      1.0  0.58012  0.74487  0.71851  1.0000
  Fe  Fe55      1.0  0.61434  0.71269  0.72148  1.0000
  S   S106      1.0  0.68213  0.73224  0.71274  1.0000
  C   C255      1.0  0.87021  0.88362  0.52074  1.0000
  H   H406      1.0  0.94363  0.98421  0.64231  1.0000
  H   H407      1.0  0.85957  0.84387  0.55074  1.0000
  H   H408      1.0  0.51934  0.81744  0.69822  1.0000
  C   C256      1.0  0.93669  0.79807  0.62075  1.0000
  C   C257      1.0  0.93145  0.82227  0.55519  1.0000
  H   H409      1.0  0.97201  0.85154  0.69520  1.0000
  H   H410      1.0  0.84534  0.79529  0.52668  1.0000
  C   C258      1.0  0.97115  0.83151  0.61769  1.0000
  C   C259      1.0  0.94059  0.76701  0.62636  1.0000
  H   H411      1.0  0.54771  0.82816  0.73664  1.0000
  C   C260      1.0  0.86103  0.84933  0.53171  1.0000
  H   H412      1.0  0.62488  0.77789  0.61295  1.0000
  H   H413      1.0  0.50920  0.77173  0.70479  1.0000
  C   C261      1.0  0.76285  0.84396  0.67049  1.0000
  C   C262      1.0  0.72561  0.83647  0.68409  1.0000
  C   C263      1.0  0.70097  0.80250  0.69772  1.0000
  C   C264      1.0  0.71370  0.77605  0.69786  1.0000
  C   C265      1.0  0.75162  0.78399  0.68495  1.0000
  C   C266      1.0  0.77596  0.81774  0.67108  1.0000
  H   H414      1.0  0.71561  0.85686  0.68383  1.0000
  H   H415      1.0  0.67212  0.79675  0.70800  1.0000
  H   H416      1.0  0.76172  0.76367  0.68517  1.0000
  H   H417      1.0  0.80469  0.82331  0.66071  1.0000
  C   C267      1.0  0.49636  0.79052  0.70765  1.0000
  S   S107      1.0  0.57665  0.67215  0.69991  1.0000
  H   H418      1.0  0.89950  0.80671  0.56474  1.0000
  H   H419      1.0  0.92871  0.76126  0.52021  1.0000
  H   H420      1.0  0.93187  0.84291  0.54134  1.0000
  C   C268      1.0  0.85315  0.82191  0.51806  1.0000
  C   C269      1.0  0.91810  0.77861  0.52889  1.0000
  C   C270      1.0  0.94772  0.77374  0.56407  1.0000
  H   H421      1.0  0.71864  0.79169  0.63827  1.0000
  N   N27       1.0  0.65551  0.75842  0.63600  1.0000
  C   C271      1.0  0.64059  0.76894  0.65724  1.0000
  C   C272      1.0  0.62812  0.72046  0.63521  1.0000
  C   C273      1.0  0.69728  0.76337  0.63732  1.0000
  H   H422      1.0  0.66039  0.79748  0.65836  1.0000
  H   H423      1.0  0.64009  0.75256  0.67389  1.0000
  H   H424      1.0  0.62779  0.70281  0.65114  1.0000
  H   H425      1.0  0.59603  0.71559  0.63495  1.0000
  H   H426      1.0  0.70982  0.75599  0.62152  1.0000
  H   H427      1.0  0.69792  0.74662  0.65346  1.0000
  S   S108      1.0  0.49590  0.66781  0.73196  1.0000
  H   H428      1.0  0.67645  0.80978  0.61452  1.0000
  H   H429      1.0  0.66716  0.77383  0.59795  1.0000
  H   H430      1.0  0.63788  0.71168  0.61917  1.0000
  C   C274      1.0  0.65599  0.78096  0.61437  1.0000
  H   H431      1.0  0.60906  0.76537  0.65698  1.0000
  H   H432      1.0  0.95056  0.83632  0.56835  1.0000
  H   H433      1.0  0.96829  0.85559  0.61342  1.0000
  H   H434      1.0  0.91508  0.79674  0.51461  1.0000
  H   H435      1.0  0.88683  0.76108  0.53893  1.0000
  H   H436      1.0  0.91398  0.74112  0.62880  1.0000
  N   N28       1.0  0.94622  0.79889  0.54476  1.0000
  H   H437      1.0  0.96705  0.91442  0.66489  1.0000
  Fe  Fe56      1.0  0.53924  0.70762  0.75158  1.0000
  S   S109      1.0  0.52376  0.71621  0.66444  1.0000
  H   H438      1.0  0.53657  0.78204  0.74229  1.0000
  C   C275      1.0  0.97890  0.76928  0.62863  1.0000
  C   C276      1.0  0.52355  0.80082  0.74449  1.0000
  H   H439      1.0  0.95695  0.75454  0.55691  1.0000
  H   H440      1.0  0.97010  0.78815  0.57573  1.0000
  H   H441      1.0  0.97040  0.90946  0.69610  1.0000
  S   S110      1.0  0.50613  0.58314  0.74710  1.0000
  H   H442      1.0  0.98171  0.74511  0.63292  1.0000
  H   H443      1.0  0.49352  0.84433  0.72752  1.0000
  C   C277      1.0  0.98866  0.91926  0.67792  1.0000
  C   C278      1.0  0.98878  0.86249  0.67669  1.0000
  C   C279      1.0  0.98760  0.82106  0.53103  1.0000
  H   H444      1.0  0.49080  0.60512  0.70092  1.0000
  H   H445      1.0  0.98765  0.84060  0.51650  1.0000
  H   H446      1.0  0.51675  0.80002  0.76404  1.0000
  H   H447      1.0  0.50006  0.56019  0.81482  1.0000
  H   H448      1.0  0.50997  0.65509  0.79145  1.0000
  S   S111      1.0  0.50838  0.72261  0.78100  1.0000
  S   S112      1.0  0.57754  0.67962  0.75655  1.0000
  C   C280      1.0  0.49239  0.65798  0.80641  1.0000
