data_image0
_chemical_formula_structural       C2H2CHCHCSC2FeSCFeS2FeSFeHS2CH3SH2NC2HCH3CHCH2CH2CHC2HCH2CH3CH2CH5C3HCH2SCFeS2FeS2FeSFeCS2HCH2C2HCHNC2H2C2H8C3HCH2CN2H5CH5CH3SC2S2HCH4FeH4CHCHCHCNCH2FeSFeCS3HFeHC2H2NHSC4H2CH3CHCH7CH2CH2C2HSCSHFeS2HCHCFe3S2H2SHCH3CNCH3C2HCH2CHNCHSHCH5FeSNFeSCH2CH3C4HCHCHCH2C3H4FeCSH2S2HSFeSH2CSCHSH5CH3CNFeHSHC2HCHCSHC2HNH2CNHC2H2CHCH4CHCHCSHSCHC2SCHCH2CHCFeHSFe2HSC2HC2H3C2HC2HCH2FeSHFeS2FeSFeHS2HCHNHC3HC3H2CH2CHSH4C2SHCHCHC3HCH3CHCH7CFeSHFeSFeHFeS2H4NCSH2CHC2HCHSHCHSC3H4NH2SH2C2H3C2H3FeSHFeS2FeSFeS3H2CH3C5H3CHCHSNH2C2H2NCHCHCHCH3C2H6CH8CHFeSHFeSCFeHFeS3H4SCHCNH4C2HC2HC2HCH4SH2CNHSHCH3NC2HCH3C3SCHCHC2H5CHC2HCH3CHSC3S3H2CFeCHFe2HSCFeHSHC4H2NH2CHS2CH3NHCHCHCH4CH3CHCH4CH2SFe2CH3CSHNSFeCH3CSHCH2CHSC5H5CSHC2NH3FeHSCHCHCHC2H2C2HSHCHCH5C2H3CH4NHCFeSHFe2S3C2HCH2C3FeHS2HSHC5NH4CH2SCH3CHFeS2FeHFeHSH4C2FeH2CSH2NCH2SCH2CHNCSH3CHC4H9CHCSHFeSHCSCFeSFeS3CH3CH2CH2C4H4CH4NHC3FeCHCHCH3CHCH4CHC4N2SHCH7FeSHFeCHFeSFeHSHC2S2C2SNH2C2HCH5CH2C3HCH3CH5CHSCH3SCHCHCSHCH2
_chemical_formula_sum              "C320 H512 S128 Fe64 N32"
_cell_length_a       37.2278
_cell_length_b       38.1618
_cell_length_c       29.6867
_cell_angle_alpha    89.9167
_cell_angle_beta     90.4054
_cell_angle_gamma    90.0817

_space_group_name_H-M_alt    "P 1"
_space_group_IT_number       1

loop_
  _space_group_symop_operation_xyz
  'x, y, z'

loop_
  _atom_site_type_symbol
  _atom_site_label
  _atom_site_symmetry_multiplicity
  _atom_site_fract_x
  _atom_site_fract_y
  _atom_site_fract_z
  _atom_site_occupancy
  C   C1        1.0  0.32735  0.30560  0.35048  1.0000
  C   C2        1.0  0.45688  0.06928  0.47809  1.0000
  H   H1        1.0  0.49766  0.10858  0.28823  1.0000
  H   H2        1.0  0.24339  0.28310  0.38445  1.0000
  C   C3        1.0  0.29984  0.28532  0.36902  1.0000
  H   H3        1.0  0.54536  0.14201  0.18703  1.0000
  C   C4        1.0  0.26481  0.29876  0.37031  1.0000
  H   H4        1.0  0.46828  0.15212  0.57153  1.0000
  C   C5        1.0  0.45133  0.10457  0.46747  1.0000
  S   S1        1.0  0.30885  0.24403  0.39293  1.0000
  C   C6        1.0  0.39021  0.07015  0.38624  1.0000
  C   C7        1.0  0.56855  0.09607  0.28118  1.0000
  Fe  Fe1       1.0  0.41824  0.25912  0.48785  1.0000
  S   S2        1.0  0.40875  0.27566  0.41633  1.0000
  C   C8        1.0  0.53538  0.19512  0.39143  1.0000
  Fe  Fe2       1.0  0.41306  0.18188  0.46637  1.0000
  S   S3        1.0  0.40141  0.19107  0.39317  1.0000
  S   S4        1.0  0.41924  0.12860  0.49728  1.0000
  Fe  Fe3       1.0  0.44555  0.23098  0.39891  1.0000
  S   S5        1.0  0.48597  0.23428  0.34310  1.0000
  Fe  Fe4       1.0  0.36561  0.23458  0.41684  1.0000
  H   H5        1.0  0.50567  0.11066  0.37595  1.0000
  S   S6        1.0  0.45953  0.21883  0.47076  1.0000
  S   S7        1.0  0.37269  0.22095  0.48995  1.0000
  C   C9        1.0  0.52697  0.21239  0.35108  1.0000
  H   H6        1.0  0.35527  0.27370  0.55277  1.0000
  H   H7        1.0  0.42477  0.21876  0.57756  1.0000
  H   H8        1.0  0.51628  0.19459  0.41849  1.0000
  S   S8        1.0  0.42903  0.29681  0.54423  1.0000
  H   H9        1.0  0.31469  0.30870  0.50452  1.0000
  H   H10       1.0  0.48624  0.19574  0.57381  1.0000
  N   N1        1.0  0.54390  0.10808  0.24510  1.0000
  C   C10       1.0  0.49212  0.09899  0.40439  1.0000
  C   C11       1.0  0.40214  0.28834  0.59126  1.0000
  H   H11       1.0  0.40625  0.17535  0.57711  1.0000
  C   C12       1.0  0.47739  0.17322  0.59492  1.0000
  H   H12       1.0  0.54526  0.22528  0.28446  1.0000
  H   H13       1.0  0.49400  0.13624  0.23927  1.0000
  H   H14       1.0  0.57339  0.15578  0.23304  1.0000
  C   C13       1.0  0.46941  0.11958  0.43101  1.0000
  H   H15       1.0  0.55462  0.07819  0.30510  1.0000
  C   C14       1.0  0.55177  0.21227  0.31591  1.0000
  H   H16       1.0  0.46544  0.14690  0.42273  1.0000
  H   H17       1.0  0.57547  0.16601  0.42857  1.0000
  C   C15       1.0  0.36690  0.27616  0.58597  1.0000
  H   H18       1.0  0.39350  0.08927  0.41423  1.0000
  H   H19       1.0  0.52177  0.14920  0.28592  1.0000
  C   C16       1.0  0.51296  0.12628  0.26547  1.0000
  H   H20       1.0  0.35427  0.29516  0.34847  1.0000
  C   C17       1.0  0.56891  0.17878  0.39701  1.0000
  C   C18       1.0  0.41725  0.19626  0.59944  1.0000
  H   H21       1.0  0.37979  0.08506  0.35669  1.0000
  C   C19       1.0  0.56310  0.13235  0.21472  1.0000
  H   H22       1.0  0.33683  0.30817  0.45116  1.0000
  H   H23       1.0  0.51205  0.08548  0.19170  1.0000
  C   C20       1.0  0.53097  0.07749  0.21908  1.0000
  H   H24       1.0  0.33433  0.07401  0.44259  1.0000
  H   H25       1.0  0.55355  0.06331  0.20273  1.0000
  H   H26       1.0  0.31811  0.07158  0.38557  1.0000
  C   C21       1.0  0.49609  0.06322  0.41363  1.0000
  H   H27       1.0  0.24158  0.23679  0.80495  1.0000
  H   H28       1.0  0.52405  0.15143  0.87643  1.0000
  C   C22       1.0  0.53197  0.23159  0.85422  1.0000
  H   H29       1.0  0.40835  0.28498  0.70543  1.0000
  H   H30       1.0  0.48515  0.20345  0.67623  1.0000
  H   H31       1.0  0.44043  0.22025  0.67999  1.0000
  H   H32       1.0  0.45993  0.14389  0.67542  1.0000
  H   H33       1.0  0.31201  0.30493  0.78401  1.0000
  C   C23       1.0  0.25998  0.25463  0.78644  1.0000
  C   C24       1.0  0.55861  0.23155  0.88786  1.0000
  C   C25       1.0  0.46148  0.21195  0.65581  1.0000
  H   H34       1.0  0.41463  0.15978  0.67571  1.0000
  C   C26       1.0  0.43751  0.15313  0.65338  1.0000
  H   H35       1.0  0.46957  0.23556  0.63628  1.0000
  H   H36       1.0  0.25273  0.25363  0.75002  1.0000
  S   S9        1.0  0.38506  0.29165  0.92322  1.0000
  C   C27       1.0  0.57037  0.19668  0.80653  1.0000
  Fe  Fe5       1.0  0.38928  0.17980  0.83631  1.0000
  S   S10       1.0  0.43447  0.20839  0.87024  1.0000
  S   S11       1.0  0.37431  0.12551  0.85789  1.0000
  Fe  Fe6       1.0  0.37391  0.23947  0.77082  1.0000
  S   S12       1.0  0.41843  0.27295  0.79832  1.0000
  S   S13       1.0  0.33720  0.25526  0.71382  1.0000
  Fe  Fe7       1.0  0.45005  0.22290  0.79972  1.0000
  S   S14       1.0  0.50489  0.21431  0.77106  1.0000
  Fe  Fe8       1.0  0.39811  0.25541  0.86580  1.0000
  C   C28       1.0  0.54574  0.09546  0.96161  1.0000
  S   S15       1.0  0.40717  0.19095  0.76614  1.0000
  S   S16       1.0  0.35136  0.22519  0.83811  1.0000
  H   H37       1.0  0.42880  0.13081  0.63177  1.0000
  C   C29       1.0  0.36170  0.26957  0.66702  1.0000
  H   H38       1.0  0.44377  0.30212  0.63879  1.0000
  H   H39       1.0  0.56829  0.13672  0.89090  1.0000
  C   C30       1.0  0.48910  0.12336  0.94445  1.0000
  C   C31       1.0  0.44253  0.10778  0.83187  1.0000
  H   H40       1.0  0.44342  0.13280  0.81485  1.0000
  C   C32       1.0  0.41147  0.09741  0.85464  1.0000
  H   H41       1.0  0.47955  0.09926  0.92712  1.0000
  N   N2        1.0  0.52859  0.12689  0.94172  1.0000
  C   C33       1.0  0.53932  0.13031  0.89405  1.0000
  C   C34       1.0  0.53792  0.21433  0.81342  1.0000
  H   H42       1.0  0.49668  0.09412  0.81394  1.0000
  H   H43       1.0  0.50711  0.24560  0.85947  1.0000
  C   C35       1.0  0.54019  0.15849  0.96665  1.0000
  C   C36       1.0  0.47277  0.08589  0.83153  1.0000
  H   H44       1.0  0.56983  0.16217  0.96491  1.0000
  H   H45       1.0  0.53925  0.09255  0.99798  1.0000
  H   H46       1.0  0.47507  0.14592  0.92824  1.0000
  H   H47       1.0  0.25144  0.27304  0.87236  1.0000
  H   H48       1.0  0.53481  0.10550  0.87536  1.0000
  H   H49       1.0  0.53280  0.15688  0.00283  1.0000
  H   H50       1.0  0.47994  0.12163  0.97996  1.0000
  H   H51       1.0  0.52761  0.18254  0.95228  1.0000
  C   C37       1.0  0.26876  0.29088  0.85229  1.0000
  C   C38       1.0  0.34656  0.26711  0.62385  1.0000
  C   C39       1.0  0.41664  0.29237  0.63450  1.0000
  H   H52       1.0  0.28753  0.24365  0.78944  1.0000
  C   C40       1.0  0.39663  0.28251  0.67229  1.0000
  H   H53       1.0  0.29712  0.28234  0.85737  1.0000
  H   H54       1.0  0.53651  0.07109  0.94436  1.0000
  C   C41       1.0  0.41047  0.06474  0.87605  1.0000
  N   N3        1.0  0.44842  0.18364  0.62591  1.0000
  N   N4        1.0  0.25848  0.29081  0.80408  1.0000
  H   H55       1.0  0.31948  0.25723  0.61964  1.0000
  H   H56       1.0  0.55410  0.24530  0.91914  1.0000
  H   H57       1.0  0.39514  0.20516  0.62175  1.0000
  H   H58       1.0  0.20190  0.28834  0.81782  1.0000
  H   H59       1.0  0.57499  0.18323  0.77503  1.0000
  C   C42       1.0  0.22159  0.30461  0.79897  1.0000
  H   H60       1.0  0.21305  0.30509  0.76297  1.0000
  H   H61       1.0  0.57545  0.09645  0.95843  1.0000
  H   H62       1.0  0.50127  0.16334  0.61378  1.0000
  H   H63       1.0  0.29156  0.32372  0.45491  1.0000
  H   H64       1.0  0.24515  0.33816  0.19984  1.0000
  C   C43       1.0  0.31806  0.32348  0.47251  1.0000
  H   H65       1.0  0.15169  0.37421  0.13647  1.0000
  H   H66       1.0  0.27889  0.38015  0.49315  1.0000
  H   H67       1.0  0.34145  0.35503  0.32004  1.0000
  S   S17       1.0  0.17374  0.39860  0.29373  1.0000
  C   C44       1.0  0.26991  0.35454  0.20120  1.0000
  C   C45       1.0  0.28527  0.35328  0.33700  1.0000
  S   S18       1.0  0.27769  0.39681  0.32018  1.0000
  S   S19       1.0  0.10660  0.36545  0.38938  1.0000
  H   H68       1.0  0.24237  0.41390  0.23800  1.0000
  C   C46       1.0  0.33517  0.37799  0.43718  1.0000
  H   H69       1.0  0.22911  0.36805  0.12810  1.0000
  H   H70       1.0  0.32027  0.39659  0.16527  1.0000
  H   H71       1.0  0.31519  0.40572  0.51612  1.0000
  H   H72       1.0  0.30257  0.36513  0.54255  1.0000
  Fe  Fe9       1.0  0.14520  0.40396  0.35971  1.0000
  H   H73       1.0  0.21011  0.39177  0.20326  1.0000
  H   H74       1.0  0.08347  0.48609  0.47664  1.0000
  H   H75       1.0  0.35393  0.36404  0.41435  1.0000
  H   H76       1.0  0.13766  0.40983  0.20397  1.0000
  C   C47       1.0  0.25758  0.33286  0.35480  1.0000
  H   H77       1.0  0.34562  0.40509  0.44187  1.0000
  C   C48       1.0  0.14745  0.42245  0.17381  1.0000
  H   H78       1.0  0.20644  0.55509  0.34509  1.0000
  C   C49       1.0  0.23504  0.40778  0.20249  1.0000
  H   H79       1.0  0.10323  0.44386  0.46775  1.0000
  C   C50       1.0  0.25425  0.38375  0.13154  1.0000
  N   N5        1.0  0.26423  0.38897  0.17938  1.0000
  C   C51       1.0  0.31999  0.33937  0.33407  1.0000
  H   H80       1.0  0.38678  0.34295  0.48276  1.0000
  H   H81       1.0  0.30575  0.41405  0.21834  1.0000
  Fe  Fe10      1.0  0.22191  0.41739  0.33276  1.0000
  S   S20       1.0  0.12809  0.45943  0.34798  1.0000
  Fe  Fe11      1.0  0.17971  0.47311  0.38282  1.0000
  C   C52       1.0  0.16426  0.47504  0.13347  1.0000
  S   S21       1.0  0.17680  0.51658  0.43353  1.0000
  S   S22       1.0  0.21168  0.47444  0.31925  1.0000
  S   S23       1.0  0.19451  0.41777  0.39985  1.0000
  H   H82       1.0  0.30884  0.38018  0.41936  1.0000
  Fe  Fe12      1.0  0.16121  0.45584  0.28547  1.0000
  H   H83       1.0  0.07873  0.39813  0.30801  1.0000
  C   C53       1.0  0.21681  0.54083  0.43713  1.0000
  C   C54       1.0  0.24844  0.52804  0.41809  1.0000
  H   H84       1.0  0.24900  0.50210  0.40353  1.0000
  H   H85       1.0  0.29407  0.43618  0.16679  1.0000
  N   N6        1.0  0.33152  0.35940  0.48062  1.0000
  H   H86       1.0  0.23066  0.34336  0.35698  1.0000
  S   S24       1.0  0.14548  0.48388  0.22163  1.0000
  C   C55       1.0  0.30591  0.37845  0.50943  1.0000
  C   C56       1.0  0.15249  0.45875  0.17304  1.0000
  C   C57       1.0  0.29760  0.40988  0.18248  1.0000
  C   C58       1.0  0.36694  0.35768  0.50331  1.0000
  H   H87       1.0  0.22852  0.43306  0.18553  1.0000
  H   H88       1.0  0.27736  0.35754  0.23738  1.0000
  C   C59       1.0  0.27941  0.54902  0.41741  1.0000
  H   H89       1.0  0.29183  0.33959  0.18472  1.0000
  H   H90       1.0  0.08760  0.45570  0.52276  1.0000
  H   H91       1.0  0.16817  0.50314  0.13275  1.0000
  C   C60       1.0  0.08151  0.45789  0.48612  1.0000
  H   H92       1.0  0.30376  0.53922  0.40228  1.0000
  C   C61       1.0  0.15526  0.40236  0.13557  1.0000
  H   H93       1.0  0.37829  0.38423  0.50952  1.0000
  H   H94       1.0  0.36520  0.34413  0.53646  1.0000
  H   H95       1.0  0.14722  0.55879  0.30786  1.0000
  H   H96       1.0  0.24927  0.40916  0.11406  1.0000
  H   H97       1.0  0.21963  0.33192  0.81206  1.0000
  H   H98       1.0  0.28663  0.37557  0.94226  1.0000
  H   H99       1.0  0.08066  0.48404  0.00248  1.0000
  C   C62       1.0  0.17237  0.45491  0.09532  1.0000
  H   H100      1.0  0.27835  0.31183  0.74166  1.0000
  H   H101      1.0  0.29954  0.47862  0.82899  1.0000
  C   C63       1.0  0.33137  0.34000  0.93507  1.0000
  H   H102      1.0  0.28861  0.54234  0.83175  1.0000
  H   H103      1.0  0.20751  0.54680  0.86837  1.0000
  C   C64       1.0  0.30871  0.37768  0.87538  1.0000
  C   C65       1.0  0.08312  0.38523  0.88560  1.0000
  H   H104      1.0  0.11072  0.38065  0.89515  1.0000
  S   S25       1.0  0.18004  0.39253  0.05023  1.0000
  C   C66       1.0  0.30706  0.36570  0.91989  1.0000
  S   S26       1.0  0.24449  0.44726  0.96952  1.0000
  H   H105      1.0  0.10920  0.42710  0.02563  1.0000
  Fe  Fe13      1.0  0.21118  0.49277  0.94580  1.0000
  S   S27       1.0  0.15910  0.47042  0.96958  1.0000
  S   S28       1.0  0.27649  0.40658  0.85330  1.0000
  H   H106      1.0  0.18271  0.46755  0.06548  1.0000
  C   C67       1.0  0.16815  0.41851  0.09650  1.0000
  H   H107      1.0  0.27549  0.50559  0.89845  1.0000
  C   C68       1.0  0.36499  0.52064  0.88858  1.0000
  Fe  Fe14      1.0  0.15531  0.44629  0.90111  1.0000
  Fe  Fe15      1.0  0.23393  0.42565  0.90050  1.0000
  Fe  Fe16      1.0  0.19147  0.42284  0.98695  1.0000
  S   S29       1.0  0.20454  0.47311  0.87549  1.0000
  S   S30       1.0  0.10328  0.45253  0.86369  1.0000
  H   H108      1.0  0.12608  0.52346  0.83637  1.0000
  H   H109      1.0  0.34509  0.48707  0.81247  1.0000
  S   S31       1.0  0.18382  0.39666  0.91972  1.0000
  H   H110      1.0  0.31136  0.48558  0.92975  1.0000
  C   C69       1.0  0.11943  0.54046  0.86560  1.0000
  H   H111      1.0  0.37467  0.49765  0.90837  1.0000
  H   H112      1.0  0.33427  0.55177  0.81707  1.0000
  H   H113      1.0  0.26637  0.31753  0.86702  1.0000
  C   C70       1.0  0.30371  0.50928  0.91002  1.0000
  N   N7        1.0  0.08379  0.55693  0.85990  1.0000
  C   C71       1.0  0.32719  0.48382  0.84202  1.0000
  H   H114      1.0  0.37871  0.32836  0.83879  1.0000
  H   H115      1.0  0.28140  0.34116  0.78888  1.0000
  H   H116      1.0  0.12042  0.52367  0.89626  1.0000
  C   C72       1.0  0.35877  0.33856  0.86145  1.0000
  C   C73       1.0  0.31614  0.54609  0.84581  1.0000
  H   H117      1.0  0.38414  0.52492  0.86047  1.0000
  C   C74       1.0  0.33519  0.36476  0.84665  1.0000
  H   H118      1.0  0.33693  0.37431  0.81240  1.0000
  H   H119      1.0  0.30383  0.53206  0.93346  1.0000
  C   C75       1.0  0.35680  0.32590  0.90555  1.0000
  H   H120      1.0  0.33585  0.45975  0.86042  1.0000
  N   N8        1.0  0.32803  0.51497  0.87158  1.0000
  C   C76       1.0  0.28360  0.31322  0.77857  1.0000
  H   H121      1.0  0.32982  0.33025  0.96925  1.0000
  S   S32       1.0  0.22833  0.54747  0.96326  1.0000
  H   H122      1.0  0.36646  0.54403  0.91095  1.0000
  C   C77       1.0  0.08645  0.41399  0.00788  1.0000
  H   H123      1.0  0.09469  0.40993  0.97234  1.0000
  H   H124      1.0  0.08323  0.38765  0.02350  1.0000
  H   H125      1.0  0.27564  0.36976  0.11278  1.0000
  H   H126      1.0  0.14103  0.56051  0.86899  1.0000
  H   H127      1.0  0.16756  0.58108  0.26134  1.0000
  Fe  Fe17      1.0  0.25092  0.71751  0.48015  1.0000
  S   S33       1.0  0.28665  0.68095  0.51909  1.0000
  N   N9        1.0  0.18005  0.60298  0.32640  1.0000
  Fe  Fe18      1.0  0.30693  0.66547  0.45116  1.0000
  S   S34       1.0  0.31699  0.60962  0.43123  1.0000
  C   C78       1.0  0.12401  0.69538  0.37522  1.0000
  H   H128      1.0  0.22719  0.57818  0.29958  1.0000
  H   H129      1.0  0.08754  0.67050  0.42142  1.0000
  C   C79       1.0  0.31540  0.78266  0.60758  1.0000
  H   H130      1.0  0.11789  0.77000  0.42306  1.0000
  H   H131      1.0  0.09048  0.76541  0.34675  1.0000
  H   H132      1.0  0.15601  0.58153  0.38612  1.0000
  C   C80       1.0  0.27873  0.58296  0.43531  1.0000
  C   C81       1.0  0.24722  0.59558  0.45491  1.0000
  C   C82       1.0  0.15512  0.58512  0.29492  1.0000
  C   C83       1.0  0.21289  0.58168  0.33202  1.0000
  H   H133      1.0  0.24650  0.62178  0.46870  1.0000
  C   C84       1.0  0.11232  0.68498  0.41789  1.0000
  H   H134      1.0  0.20382  0.63554  0.27544  1.0000
  C   C85       1.0  0.21643  0.57434  0.45632  1.0000
  H   H135      1.0  0.13677  0.62205  0.36714  1.0000
  C   C86       1.0  0.16607  0.71028  0.45173  1.0000
  H   H136      1.0  0.23207  0.59410  0.35619  1.0000
  H   H137      1.0  0.20791  0.65222  0.33188  1.0000
  C   C87       1.0  0.18979  0.63778  0.30826  1.0000
  C   C88       1.0  0.16241  0.60732  0.37050  1.0000
  C   C89       1.0  0.41155  0.77587  0.46313  1.0000
  H   H138      1.0  0.16557  0.65431  0.30276  1.0000
  H   H139      1.0  0.08007  0.74815  0.44759  1.0000
  H   H140      1.0  0.12445  0.68422  0.48915  1.0000
  H   H141      1.0  0.17984  0.62197  0.39465  1.0000
  Fe  Fe19      1.0  0.32692  0.72456  0.51523  1.0000
  C   C90       1.0  0.13330  0.69258  0.45618  1.0000
  S   S35       1.0  0.35067  0.70575  0.45060  1.0000
  H   H142      1.0  0.22269  0.71401  0.60595  1.0000
  H   H143      1.0  0.47556  0.79601  0.49684  1.0000
  S   S36       1.0  0.19265  0.71921  0.49937  1.0000
  S   S37       1.0  0.26844  0.69882  0.41210  1.0000
  H   H144      1.0  0.30463  0.78527  0.57390  1.0000
  S   S38       1.0  0.28928  0.76303  0.48280  1.0000
  Fe  Fe20      1.0  0.31020  0.74119  0.41800  1.0000
  S   S39       1.0  0.09866  0.68615  0.32667  1.0000
  H   H145      1.0  0.43441  0.76489  0.44381  1.0000
  H   H146      1.0  0.20218  0.73551  0.40553  1.0000
  C   C91       1.0  0.15663  0.71322  0.37086  1.0000
  S   S40       1.0  0.32878  0.77334  0.35890  1.0000
  C   C92       1.0  0.17751  0.72083  0.40905  1.0000
  H   H147      1.0  0.16571  0.72149  0.33796  1.0000
  S   S41       1.0  0.36486  0.73736  0.57210  1.0000
  H   H148      1.0  0.40436  0.75647  0.48964  1.0000
  H   H149      1.0  0.13005  0.60060  0.28980  1.0000
  H   H150      1.0  0.19202  0.58431  0.47113  1.0000
  H   H151      1.0  0.27013  0.72219  0.60688  1.0000
  H   H152      1.0  0.44491  0.78771  0.54236  1.0000
  C   C93       1.0  0.45141  0.80619  0.51447  1.0000
  H   H153      1.0  0.38823  0.77796  0.43947  1.0000
  H   H154      1.0  0.38155  0.80598  0.53572  1.0000
  H   H155      1.0  0.09364  0.79037  0.46802  1.0000
  C   C94       1.0  0.09056  0.77421  0.43705  1.0000
  N   N10       1.0  0.42069  0.81023  0.48308  1.0000
  Fe  Fe21      1.0  0.27536  0.70570  0.82729  1.0000
  H   H156      1.0  0.19670  0.71083  0.87425  1.0000
  S   S42       1.0  0.26410  0.65075  0.80275  1.0000
  H   H157      1.0  0.27710  0.73319  0.70896  1.0000
  C   C95       1.0  0.12281  0.69102  0.99525  1.0000
  C   C96       1.0  0.10639  0.69798  0.87105  1.0000
  H   H158      1.0  0.09036  0.75451  0.98501  1.0000
  C   C97       1.0  0.14297  0.69142  0.86513  1.0000
  H   H159      1.0  0.31541  0.56993  0.86743  1.0000
  C   C98       1.0  0.25653  0.66072  0.64769  1.0000
  S   S43       1.0  0.37440  0.76367  0.91558  1.0000
  H   H160      1.0  0.10481  0.59965  0.82075  1.0000
  C   C99       1.0  0.34539  0.76150  0.61567  1.0000
  C   C100      1.0  0.26676  0.62856  0.89068  1.0000
  H   H161      1.0  0.44053  0.80062  0.93168  1.0000
  N   N11       1.0  0.25017  0.69618  0.66594  1.0000
  H   H162      1.0  0.15177  0.66672  0.85115  1.0000
  H   H163      1.0  0.26867  0.61094  0.95961  1.0000
  C   C101      1.0  0.25351  0.62224  0.84729  1.0000
  N   N12       1.0  0.10439  0.71226  0.02972  1.0000
  H   H164      1.0  0.15191  0.71772  0.07075  1.0000
  C   C102      1.0  0.23234  0.59246  0.83926  1.0000
  C   C103      1.0  0.24571  0.72127  0.62830  1.0000
  H   H165      1.0  0.14543  0.75201  0.03004  1.0000
  H   H166      1.0  0.22211  0.58739  0.80570  1.0000
  C   C104      1.0  0.08372  0.57894  0.81889  1.0000
  H   H167      1.0  0.11821  0.75070  0.07984  1.0000
  C   C105      1.0  0.13114  0.73413  0.05375  1.0000
  H   H168      1.0  0.22020  0.67773  0.72299  1.0000
  H   H169      1.0  0.25978  0.64113  0.67529  1.0000
  H   H170      1.0  0.14225  0.67235  0.01073  1.0000
  H   H171      1.0  0.10553  0.67119  0.07956  1.0000
  C   C106      1.0  0.25831  0.60576  0.92611  1.0000
  H   H172      1.0  0.13827  0.70783  0.97162  1.0000
  C   C107      1.0  0.23709  0.57610  0.91824  1.0000
  H   H173      1.0  0.28564  0.68822  0.72257  1.0000
  C   C108      1.0  0.22415  0.56940  0.87471  1.0000
  S   S44       1.0  0.28605  0.80342  0.86185  1.0000
  H   H174      1.0  0.28428  0.65056  0.89688  1.0000
  S   S45       1.0  0.32407  0.73696  0.80839  1.0000
  C   C109      1.0  0.09518  0.72987  0.88940  1.0000
  H   H175      1.0  0.10341  0.67558  0.97457  1.0000
  C   C110      1.0  0.16846  0.71657  0.87782  1.0000
  C   C111      1.0  0.31219  0.79630  0.68730  1.0000
  S   S46       1.0  0.27612  0.72261  0.89973  1.0000
  C   C112      1.0  0.28120  0.70676  0.69410  1.0000
  H   H176      1.0  0.35324  0.77281  0.72899  1.0000
  C   C113      1.0  0.15744  0.74875  0.89539  1.0000
  H   H177      1.0  0.24090  0.74833  0.64085  1.0000
  H   H178      1.0  0.30638  0.70754  0.67416  1.0000
  C   C114      1.0  0.12077  0.75548  0.90103  1.0000
  H   H179      1.0  0.21178  0.72245  0.70776  1.0000
  C   C115      1.0  0.07747  0.73518  0.00777  1.0000
  Fe  Fe22      1.0  0.28556  0.78030  0.79263  1.0000
  H   H180      1.0  0.19343  0.68771  0.67383  1.0000
  S   S47       1.0  0.18956  0.78010  0.91100  1.0000
  Fe  Fe23      1.0  0.32154  0.75780  0.87906  1.0000
  Fe  Fe24      1.0  0.24070  0.76626  0.87563  1.0000
  H   H181      1.0  0.11225  0.78060  0.91393  1.0000
  S   S48       1.0  0.23690  0.74728  0.80440  1.0000
  C   C116      1.0  0.21739  0.69596  0.69377  1.0000
  C   C117      1.0  0.34269  0.77580  0.69524  1.0000
  H   H182      1.0  0.38296  0.74264  0.66560  1.0000
  C   C118      1.0  0.35959  0.75883  0.65932  1.0000
  C   C119      1.0  0.29911  0.80044  0.64331  1.0000
  H   H183      1.0  0.23385  0.65203  0.62574  1.0000
  H   H184      1.0  0.09660  0.60011  0.90362  1.0000
  H   H185      1.0  0.28136  0.66003  0.62694  1.0000
  C   C120      1.0  0.08617  0.68887  0.06213  1.0000
  C   C121      1.0  0.38301  0.80623  0.93526  1.0000
  H   H186      1.0  0.08871  0.56305  0.78820  1.0000
  C   C122      1.0  0.32591  0.83648  0.40417  1.0000
  C   C123      1.0  0.33588  0.87169  0.41078  1.0000
  H   H187      1.0  0.32515  0.88618  0.43893  1.0000
  C   C124      1.0  0.08092  0.82576  0.39131  1.0000
  H   H188      1.0  0.40819  0.00995  0.42743  1.0000
  H   H189      1.0  0.38583  0.03796  0.46697  1.0000
  Fe  Fe25      1.0  0.43438  0.93413  0.37640  1.0000
  S   S49       1.0  0.46636  0.88632  0.36034  1.0000
  H   H190      1.0  0.41348  0.90267  0.17897  1.0000
  Fe  Fe26      1.0  0.50040  0.98115  0.37650  1.0000
  S   S50       1.0  0.53804  0.93668  0.36212  1.0000
  S   S51       1.0  0.52105  0.03675  0.37717  1.0000
  Fe  Fe27      1.0  0.49571  0.92083  0.31194  1.0000
  S   S52       1.0  0.51204  0.89975  0.24446  1.0000
  Fe  Fe28      1.0  0.50504  0.90649  0.41204  1.0000
  H   H191      1.0  0.37424  0.81966  0.30993  1.0000
  S   S53       1.0  0.45989  0.96722  0.32308  1.0000
  S   S54       1.0  0.47122  0.95247  0.43130  1.0000
  H   H192      1.0  0.45863  0.88970  0.16681  1.0000
  C   C125      1.0  0.37400  0.86900  0.34520  1.0000
  H   H193      1.0  0.44343  0.05773  0.50671  1.0000
  N   N13       1.0  0.36571  0.04133  0.39901  1.0000
  H   H194      1.0  0.57083  0.85471  0.26220  1.0000
  C   C126      1.0  0.43001  0.88565  0.15689  1.0000
  C   C127      1.0  0.33994  0.81757  0.36797  1.0000
  C   C128      1.0  0.47903  0.04859  0.45101  1.0000
  H   H195      1.0  0.48308  0.02139  0.45939  1.0000
  C   C129      1.0  0.51766  0.93168  0.20254  1.0000
  C   C130      1.0  0.53275  0.92215  0.16130  1.0000
  C   C131      1.0  0.50602  0.96610  0.20912  1.0000
  H   H196      1.0  0.54213  0.89564  0.15612  1.0000
  H   H197      1.0  0.49446  0.97370  0.24075  1.0000
  C   C132      1.0  0.38166  0.02118  0.43672  1.0000
  H   H198      1.0  0.40831  0.83782  0.42188  1.0000
  H   H199      1.0  0.45927  0.83179  0.52965  1.0000
  C   C133      1.0  0.36005  0.01786  0.36002  1.0000
  H   H200      1.0  0.42315  0.85791  0.16472  1.0000
  S   S55       1.0  0.51930  0.86798  0.46648  1.0000
  H   H201      1.0  0.39245  0.88140  0.32215  1.0000
  H   H202      1.0  0.38567  0.00542  0.34938  1.0000
  H   H203      1.0  0.39502  0.85007  0.52255  1.0000
  H   H204      1.0  0.49745  0.01661  0.17832  1.0000
  C   C134      1.0  0.53548  0.94680  0.12642  1.0000
  C   C135      1.0  0.36040  0.88779  0.38168  1.0000
  S   S56       1.0  0.37566  0.93062  0.39239  1.0000
  H   H205      1.0  0.30708  0.82414  0.42672  1.0000
  C   C136      1.0  0.50813  0.99055  0.17396  1.0000
  H   H206      1.0  0.34117  0.99615  0.36833  1.0000
  C   C137      1.0  0.52243  0.98082  0.13239  1.0000
  H   H207      1.0  0.36420  0.99874  0.44659  1.0000
  C   C138      1.0  0.36357  0.83410  0.33818  1.0000
  C   C139      1.0  0.56385  0.85323  0.46900  1.0000
  C   C140      1.0  0.57213  0.82479  0.49698  1.0000
  H   H208      1.0  0.36551  0.82653  0.48519  1.0000
  C   C141      1.0  0.38933  0.82386  0.50775  1.0000
  H   H209      1.0  0.45463  0.82586  0.42834  1.0000
  H   H210      1.0  0.43674  0.86147  0.46042  1.0000
  H   H211      1.0  0.31177  0.03511  0.42319  1.0000
  C   C142      1.0  0.43047  0.83494  0.44685  1.0000
  H   H212      1.0  0.34870  0.03219  0.33054  1.0000
  C   C143      1.0  0.33090  0.05614  0.41317  1.0000
  H   H213      1.0  0.08314  0.84322  0.42122  1.0000
  H   H214      1.0  0.36770  0.90425  0.11697  1.0000
  H   H215      1.0  0.41644  0.94892  0.12058  1.0000
  H   H216      1.0  0.10820  0.82345  0.37643  1.0000
  H   H217      1.0  0.51673  0.05836  0.24106  1.0000
  H   H218      1.0  0.55119  0.81229  0.51635  1.0000
  H   H219      1.0  0.41743  0.06016  0.37767  1.0000
  C   C144      1.0  0.37182  0.87734  0.75799  1.0000
  Fe  Fe29      1.0  0.46168  0.93915  0.96772  1.0000
  S   S57       1.0  0.50463  0.92483  0.01734  1.0000
  H   H220      1.0  0.34922  0.86503  0.73888  1.0000
  Fe  Fe30      1.0  0.50845  0.99171  0.91980  1.0000
  S   S58       1.0  0.55570  0.98281  0.96573  1.0000
  Fe  Fe31      1.0  0.54141  0.92601  0.95787  1.0000
  H   H221      1.0  0.56422  0.90369  0.86440  1.0000
  Fe  Fe32      1.0  0.51553  0.98242  0.02145  1.0000
  S   S59       1.0  0.49718  0.93473  0.90715  1.0000
  S   S60       1.0  0.46952  0.99697  0.97655  1.0000
  H   H222      1.0  0.33520  0.87072  0.86221  1.0000
  H   H223      1.0  0.42889  0.93802  0.06407  1.0000
  H   H224      1.0  0.38634  0.05643  0.89318  1.0000
  H   H225      1.0  0.32727  0.81968  0.94289  1.0000
  N   N14       1.0  0.37112  0.86711  0.80602  1.0000
  C   C145      1.0  0.36179  0.86359  0.95775  1.0000
  S   S61       1.0  0.51290  0.03110  0.86370  1.0000
  H   H226      1.0  0.44012  0.01830  0.89370  1.0000
  H   H227      1.0  0.44334  0.87654  0.04440  1.0000
  C   C146      1.0  0.35469  0.82893  0.94491  1.0000
  H   H228      1.0  0.37370  0.81990  0.84546  1.0000
  C   C147      1.0  0.37431  0.82861  0.80975  1.0000
  C   C148      1.0  0.39722  0.87577  0.96050  1.0000
  H   H229      1.0  0.33973  0.88111  0.96494  1.0000
  C   C149      1.0  0.42568  0.85301  0.95154  1.0000
  H   H230      1.0  0.31339  0.86661  0.80823  1.0000
  S   S62       1.0  0.40492  0.91977  0.97419  1.0000
  H   H231      1.0  0.45313  0.86231  0.95357  1.0000
  C   C150      1.0  0.41854  0.81815  0.93920  1.0000
  H   H232      1.0  0.40148  0.87670  0.86650  1.0000
  S   S63       1.0  0.28906  0.81547  0.73208  1.0000
  C   C151      1.0  0.33685  0.87851  0.82611  1.0000
  C   C152      1.0  0.40141  0.88392  0.83022  1.0000
  C   C153      1.0  0.44708  0.87097  0.08097  1.0000
  H   H233      1.0  0.39723  0.86897  0.74169  1.0000
  H   H234      1.0  0.46176  0.93650  0.10837  1.0000
  H   H235      1.0  0.33371  0.90747  0.82449  1.0000
  H   H236      1.0  0.38062  0.89360  0.06053  1.0000
  N   N15       1.0  0.42403  0.89377  0.10870  1.0000
  H   H237      1.0  0.42777  0.87578  0.81626  1.0000
  H   H238      1.0  0.39985  0.91303  0.82841  1.0000
  S   S64       1.0  0.52163  0.01069  0.08753  1.0000
  H   H239      1.0  0.36936  0.90623  0.75386  1.0000
  H   H240      1.0  0.54765  0.93947  0.09486  1.0000
  C   C154      1.0  0.38594  0.88754  0.09672  1.0000
  C   C155      1.0  0.43315  0.93091  0.10012  1.0000
  H   H241      1.0  0.39984  0.81892  0.79509  1.0000
  H   H242      1.0  0.27565  0.81650  0.63706  1.0000
  H   H243      1.0  0.37818  0.85969  0.10223  1.0000
  C   C156      1.0  0.44102  0.04326  0.87666  1.0000
  C   C157      1.0  0.47258  0.05429  0.85561  1.0000
  H   H244      1.0  0.35177  0.81517  0.79209  1.0000
  H   H245      1.0  0.47606  0.87491  0.08911  1.0000
  H   H246      1.0  0.44075  0.84275  0.08620  1.0000
  Fe  Fe33      1.0  0.72844  0.20256  0.25534  1.0000
  S   S65       1.0  0.66925  0.21124  0.26053  1.0000
  H   H247      1.0  0.63293  0.27270  0.46412  1.0000
  Fe  Fe34      1.0  0.72044  0.12396  0.24800  1.0000
  S   S66       1.0  0.66050  0.12534  0.25319  1.0000
  S   S67       1.0  0.75215  0.07469  0.23856  1.0000
  Fe  Fe35      1.0  0.66458  0.17101  0.20635  1.0000
  S   S68       1.0  0.62642  0.17815  0.14884  1.0000
  Fe  Fe36      1.0  0.66997  0.16495  0.30722  1.0000
  S   S69       1.0  0.63640  0.16027  0.36960  1.0000
  S   S70       1.0  0.72379  0.16645  0.19603  1.0000
  S   S71       1.0  0.73001  0.15955  0.30705  1.0000
  H   H248      1.0  0.66032  0.06219  0.46936  1.0000
  H   H249      1.0  0.78105  0.25127  0.41517  1.0000
  C   C158      1.0  0.87920  0.26981  0.34405  1.0000
  H   H250      1.0  0.69117  0.30467  0.45458  1.0000
  H   H251      1.0  0.69370  0.25976  0.34360  1.0000
  H   H252      1.0  0.65654  0.10884  0.15982  1.0000
  C   C159      1.0  0.77453  0.26954  0.30307  1.0000
  C   C160      1.0  0.58486  0.19533  0.32114  1.0000
  C   C161      1.0  0.59384  0.17924  0.36197  1.0000
  C   C162      1.0  0.78686  0.30421  0.30399  1.0000
  C   C163      1.0  0.78224  0.26619  0.38418  1.0000
  H   H253      1.0  0.59184  0.08161  0.26709  1.0000
  H   H254      1.0  0.58652  0.11944  0.19858  1.0000
  H   H255      1.0  0.60327  0.19490  0.29345  1.0000
  C   C164      1.0  0.77197  0.25060  0.34327  1.0000
  H   H256      1.0  0.87605  0.28744  0.37367  1.0000
  C   C165      1.0  0.76257  0.08173  0.12240  1.0000
  H   H257      1.0  0.89122  0.24489  0.35642  1.0000
  S   S72       1.0  0.76387  0.25013  0.25118  1.0000
  N   N16       1.0  0.90140  0.28618  0.30863  1.0000
  H   H258      1.0  0.65201  0.28338  0.34205  1.0000
  H   H259      1.0  0.76297  0.22369  0.34275  1.0000
  C   C166      1.0  0.90295  0.26267  0.26917  1.0000
  C   C167      1.0  0.63228  0.26872  0.42698  1.0000
  H   H260      1.0  0.71585  0.23446  0.41480  1.0000
  H   H261      1.0  0.87558  0.25756  0.25508  1.0000
  N   N17       1.0  0.66894  0.26690  0.40824  1.0000
  C   C168      1.0  0.93812  0.29233  0.32624  1.0000
  H   H262      1.0  0.85174  0.26364  0.33129  1.0000
  C   C169      1.0  0.64807  0.11216  0.12529  1.0000
  H   H263      1.0  0.59039  0.08774  0.38545  1.0000
  C   C170      1.0  0.66656  0.26153  0.35903  1.0000
  H   H264      1.0  0.65188  0.23688  0.35094  1.0000
  C   C171      1.0  0.68839  0.29994  0.41771  1.0000
  H   H265      1.0  0.95144  0.26744  0.33645  1.0000
  H   H266      1.0  0.57928  0.11855  0.30105  1.0000
  H   H267      1.0  0.77395  0.10613  0.13727  1.0000
  C   C172      1.0  0.79492  0.30076  0.38502  1.0000
  C   C173      1.0  0.68846  0.23723  0.42906  1.0000
  H   H268      1.0  0.71603  0.29951  0.40359  1.0000
  H   H269      1.0  0.91492  0.23687  0.27824  1.0000
  H   H270      1.0  0.61694  0.24413  0.42021  1.0000
  H   H271      1.0  0.61454  0.10153  0.43469  1.0000
  H   H272      1.0  0.61663  0.29068  0.41183  1.0000
  H   H273      1.0  0.67418  0.21197  0.42320  1.0000
  C   C174      1.0  0.60307  0.07822  0.41722  1.0000
  H   H274      1.0  0.69147  0.24070  0.46611  1.0000
  H   H275      1.0  0.68416  0.26070  0.12457  1.0000
  H   H276      1.0  0.58112  0.06746  0.43852  1.0000
  H   H277      1.0  0.73338  0.08130  0.13039  1.0000
  H   H278      1.0  0.95542  0.30543  0.30076  1.0000
  H   H279      1.0  0.91944  0.27428  0.24176  1.0000
  H   H280      1.0  0.67156  0.09036  0.39507  1.0000
  H   H281      1.0  0.64793  0.07523  0.34609  1.0000
  C   C175      1.0  0.65905  0.06683  0.37926  1.0000
  H   H282      1.0  0.93775  0.30973  0.35621  1.0000
  Fe  Fe37      1.0  0.69403  0.11186  0.85560  1.0000
  S   S73       1.0  0.64398  0.11497  0.89692  1.0000
  H   H283      1.0  0.74641  0.28160  0.92233  1.0000
  Fe  Fe38      1.0  0.74012  0.14709  0.92567  1.0000
  S   S74       1.0  0.69461  0.15339  0.97311  1.0000
  C   C176      1.0  0.79838  0.20974  0.94152  1.0000
  Fe  Fe39      1.0  0.67983  0.09878  0.95351  1.0000
  H   H284      1.0  0.65832  0.26622  0.00336  1.0000
  Fe  Fe40      1.0  0.66279  0.16929  0.91251  1.0000
  S   S75       1.0  0.62318  0.21224  0.92428  1.0000
  S   S76       1.0  0.72848  0.09061  0.91164  1.0000
  S   S77       1.0  0.70992  0.16820  0.86566  1.0000
  H   H285      1.0  0.76338  0.08804  0.82216  1.0000
  H   H286      1.0  0.66826  0.06175  0.10474  1.0000
  H   H287      1.0  0.72173  0.10956  0.05614  1.0000
  H   H288      1.0  0.62206  0.12536  0.99993  1.0000
  S   S78       1.0  0.69031  0.08335  0.79001  1.0000
  C   C177      1.0  0.67176  0.24143  0.01380  1.0000
  H   H289      1.0  0.71047  0.29778  0.03744  1.0000
  C   C178      1.0  0.59671  0.19598  0.84055  1.0000
  N   N18       1.0  0.76882  0.07977  0.07331  1.0000
  H   H290      1.0  0.77693  0.19649  0.75050  1.0000
  H   H291      1.0  0.65031  0.22130  0.01793  1.0000
  H   H292      1.0  0.72787  0.20232  0.04196  1.0000
  H   H293      1.0  0.62160  0.18207  0.83516  1.0000
  C   C179      1.0  0.79500  0.27396  0.80248  1.0000
  C   C180      1.0  0.59087  0.21357  0.88113  1.0000
  H   H294      1.0  0.81861  0.28622  0.81941  1.0000
  C   C181      1.0  0.76744  0.23005  0.93595  1.0000
  C   C182      1.0  0.80782  0.08087  0.06438  1.0000
  H   H295      1.0  0.82395  0.18959  0.80977  1.0000
  C   C183      1.0  0.70937  0.21197  0.06852  1.0000
  C   C184      1.0  0.62841  0.12116  0.03508  1.0000
  H   H296      1.0  0.83997  0.21607  0.73666  1.0000
  C   C185      1.0  0.77040  0.26596  0.92697  1.0000
  H   H297      1.0  0.68840  0.19155  0.07394  1.0000
  H   H298      1.0  0.78631  0.29214  0.77517  1.0000
  H   H299      1.0  0.68876  0.23301  0.98513  1.0000
  H   H300      1.0  0.60778  0.17133  0.05557  1.0000
  S   S79       1.0  0.66308  0.06222  0.00788  1.0000
  H   H301      1.0  0.77318  0.27274  0.82788  1.0000
  H   H302      1.0  0.74123  0.21801  0.93802  1.0000
  C   C186      1.0  0.64595  0.09046  0.04870  1.0000
  N   N19       1.0  0.69307  0.24587  0.05560  1.0000
  H   H303      1.0  0.79550  0.21272  0.84791  1.0000
  S   S80       1.0  0.79449  0.16443  0.94925  1.0000
  H   H304      1.0  0.74930  0.22037  0.78908  1.0000
  C   C187      1.0  0.75949  0.06273  0.80656  1.0000
  H   H305      1.0  0.76095  0.23952  0.73578  1.0000
  H   H306      1.0  0.75583  0.10924  0.01365  1.0000
  H   H307      1.0  0.74041  0.26345  0.02093  1.0000
  N   N20       1.0  0.80378  0.23883  0.78473  1.0000
  C   C188      1.0  0.72176  0.27201  0.04799  1.0000
  C   C189      1.0  0.81657  0.21618  0.82191  1.0000
  H   H308      1.0  0.82351  0.25881  0.72173  1.0000
  C   C190      1.0  0.80427  0.28145  0.92219  1.0000
  H   H309      1.0  0.76196  0.13521  0.06335  1.0000
  H   H310      1.0  0.85628  0.20967  0.94231  1.0000
  H   H311      1.0  0.82014  0.10559  0.07712  1.0000
  C   C191      1.0  0.65471  0.08544  0.09411  1.0000
  C   C192      1.0  0.77131  0.22312  0.76406  1.0000
  C   C193      1.0  0.83526  0.26121  0.92788  1.0000
  S   S81       1.0  0.89465  0.30565  0.83563  1.0000
  C   C194      1.0  0.83225  0.24205  0.75051  1.0000
  H   H312      1.0  0.85698  0.25432  0.76487  1.0000
  C   C195      1.0  0.62058  0.14730  0.06650  1.0000
  H   H313      1.0  0.84067  0.22756  0.83889  1.0000
  C   C196      1.0  0.83230  0.22540  0.93822  1.0000
  C   C197      1.0  0.75128  0.10980  0.05071  1.0000
  H   H314      1.0  0.86148  0.27319  0.92454  1.0000
  H   H315      1.0  0.65699  0.28380  0.08387  1.0000
  H   H316      1.0  0.73815  0.27633  0.07901  1.0000
  H   H317      1.0  0.72511  0.21426  0.10042  1.0000
  H   H318      1.0  0.81336  0.07952  0.02755  1.0000
  C   C198      1.0  0.66929  0.25798  0.09207  1.0000
  H   H319      1.0  0.64689  0.23914  0.09781  1.0000
  C   C199      1.0  0.63134  0.14322  0.11136  1.0000
  C   C200      1.0  0.88529  0.31997  0.29496  1.0000
  H   H320      1.0  0.89849  0.53280  0.32652  1.0000
  C   C201      1.0  0.89736  0.35042  0.58105  1.0000
  H   H321      1.0  0.80603  0.34671  0.34540  1.0000
  H   H322      1.0  0.06589  0.39057  0.46981  1.0000
  H   H323      1.0  0.03950  0.34074  0.42219  1.0000
  C   C202      1.0  0.99910  0.36106  0.37703  1.0000
  H   H324      1.0  0.01599  0.40625  0.28062  1.0000
  S   S82       1.0  0.85454  0.40381  0.48684  1.0000
  C   C203      1.0  0.03898  0.44690  0.42613  1.0000
  C   C204      1.0  0.99234  0.37931  0.33703  1.0000
  C   C205      1.0  0.03443  0.35520  0.39140  1.0000
  S   S83       1.0  0.94796  0.38696  0.31967  1.0000
  S   S84       1.0  0.80781  0.31943  0.43657  1.0000
  S   S85       1.0  0.85416  0.40101  0.37536  1.0000
  H   H325      1.0  0.67432  0.32292  0.40271  1.0000
  H   H326      1.0  0.93589  0.51656  0.23777  1.0000
  C   C206      1.0  0.91324  0.50761  0.32307  1.0000
  Fe  Fe41      1.0  0.84871  0.36294  0.43266  1.0000
  C   C207      1.0  0.02108  0.39216  0.31166  1.0000
  H   H327      1.0  0.85411  0.32216  0.61261  1.0000
  Fe  Fe42      1.0  0.91290  0.38925  0.38068  1.0000
  Fe  Fe43      1.0  0.91343  0.39191  0.48278  1.0000
  H   H328      1.0  0.02176  0.45971  0.53718  1.0000
  S   S86       1.0  0.92472  0.43197  0.42962  1.0000
  C   C208      1.0  0.93049  0.36711  0.58735  1.0000
  Fe  Fe44      1.0  0.86524  0.44050  0.42951  1.0000
  H   H329      1.0  0.06053  0.43402  0.40636  1.0000
  S   S87       1.0  0.84357  0.49506  0.42364  1.0000
  H   H330      1.0  0.97722  0.35117  0.39695  1.0000
  C   C209      1.0  0.93700  0.53719  0.46653  1.0000
  C   C210      1.0  0.90674  0.51550  0.46312  1.0000
  C   C211      1.0  0.87803  0.52501  0.43508  1.0000
  C   C212      1.0  0.79704  0.31981  0.34490  1.0000
  H   H331      1.0  0.95955  0.52936  0.48737  1.0000
  H   H332      1.0  0.90568  0.49128  0.48198  1.0000
  N   N21       1.0  0.95055  0.51341  0.30796  1.0000
  H   H333      1.0  0.78841  0.31908  0.27298  1.0000
  H   H334      1.0  0.01762  0.49069  0.49166  1.0000
  C   C213      1.0  0.87861  0.55727  0.41270  1.0000
  H   H335      1.0  0.97785  0.53739  0.25204  1.0000
  S   S88       1.0  0.95045  0.39035  0.54288  1.0000
  S   S89       1.0  0.90697  0.34777  0.43368  1.0000
  C   C214      1.0  0.96999  0.53493  0.34157  1.0000
  H   H336      1.0  0.96935  0.46454  0.33558  1.0000
  H   H337      1.0  0.90210  0.33376  0.26960  1.0000
  H   H338      1.0  0.88493  0.34984  0.54806  1.0000
  N   N22       1.0  0.04572  0.44321  0.47503  1.0000
  H   H339      1.0  0.95472  0.46217  0.27818  1.0000
  C   C215      1.0  0.05653  0.38752  0.32705  1.0000
  H   H340      1.0  0.89787  0.49096  0.29894  1.0000
  C   C216      1.0  0.96878  0.47923  0.30313  1.0000
  H   H341      1.0  0.99042  0.45162  0.49246  1.0000
  C   C217      1.0  0.95015  0.53198  0.26419  1.0000
  H   H342      1.0  0.88256  0.33793  0.32423  1.0000
  H   H343      1.0  0.99703  0.48246  0.29175  1.0000
  H   H344      1.0  0.85811  0.31629  0.27996  1.0000
  H   H345      1.0  0.97007  0.52232  0.37540  1.0000
  C   C218      1.0  0.01769  0.46225  0.50013  1.0000
  H   H346      1.0  0.91245  0.49428  0.35646  1.0000
  H   H347      1.0  0.03831  0.47492  0.41577  1.0000
  H   H348      1.0  0.01300  0.43460  0.41605  1.0000
  C   C219      1.0  0.04473  0.40571  0.48761  1.0000
  H   H349      1.0  0.99841  0.53943  0.33174  1.0000
  C   C220      1.0  0.06315  0.36900  0.36700  1.0000
  H   H350      1.0  0.01826  0.39362  0.47913  1.0000
  H   H351      1.0  0.93637  0.55784  0.26673  1.0000
  H   H352      1.0  0.04904  0.40195  0.52444  1.0000
  H   H353      1.0  0.95736  0.56119  0.34531  1.0000
  C   C221      1.0  0.92914  0.35131  0.66677  1.0000
  H   H354      1.0  0.85736  0.43035  0.74412  1.0000
  H   H355      1.0  0.86750  0.39809  0.70226  1.0000
  S   S90       1.0  0.84470  0.37302  0.80721  1.0000
  Fe  Fe45      1.0  0.88642  0.33967  0.77470  1.0000
  Fe  Fe46      1.0  0.85624  0.34209  0.86967  1.0000
  C   C222      1.0  0.03689  0.42333  0.85552  1.0000
  H   H356      1.0  0.02854  0.41088  0.95274  1.0000
  H   H357      1.0  0.06067  0.51211  0.82655  1.0000
  H   H358      1.0  0.06673  0.45576  0.07583  1.0000
  C   C223      1.0  0.02190  0.36381  0.87736  1.0000
  S   S91       1.0  0.93149  0.37654  0.79071  1.0000
  H   H359      1.0  0.82947  0.42643  0.69495  1.0000
  N   N23       1.0  0.05310  0.43488  0.01066  1.0000
  S   S92       1.0  0.80686  0.32584  0.90767  1.0000
  Fe  Fe47      1.0  0.93638  0.34571  0.85507  1.0000
  C   C224      1.0  0.93608  0.54315  0.88993  1.0000
  H   H360      1.0  0.03357  0.48527  0.98879  1.0000
  H   H361      1.0  0.02851  0.44851  0.84239  1.0000
  H   H362      1.0  0.06579  0.33303  0.90353  1.0000
  C   C225      1.0  0.91817  0.44758  0.70005  1.0000
  S   S93       1.0  0.89858  0.37932  0.89474  1.0000
  H   H363      1.0  0.93636  0.46641  0.68294  1.0000
  C   C226      1.0  0.01159  0.39641  0.86018  1.0000
  H   H364      1.0  0.88435  0.50706  0.67620  1.0000
  H   H365      1.0  0.94178  0.35122  0.69962  1.0000
  C   C227      1.0  0.87913  0.44458  0.63478  1.0000
  H   H366      1.0  0.98400  0.40103  0.85093  1.0000
  S   S94       1.0  0.88642  0.46557  0.82074  1.0000
  C   C228      1.0  0.96222  0.52522  0.91494  1.0000
  C   C229      1.0  0.96520  0.48880  0.91081  1.0000
  C   C230      1.0  0.94180  0.47034  0.88213  1.0000
  C   C231      1.0  0.91572  0.48827  0.85704  1.0000
  C   C232      1.0  0.91304  0.52473  0.86078  1.0000
  H   H367      1.0  0.86884  0.49262  0.73030  1.0000
  H   H368      1.0  0.98549  0.47479  0.92970  1.0000
  H   H369      1.0  0.94392  0.44224  0.87943  1.0000
  H   H370      1.0  0.89276  0.53871  0.84167  1.0000
  H   H371      1.0  0.01905  0.38933  0.00482  1.0000
  C   C233      1.0  0.86773  0.48692  0.69345  1.0000
  S   S95       1.0  0.99151  0.54819  0.95098  1.0000
  H   H372      1.0  0.01966  0.45722  0.06186  1.0000
  C   C234      1.0  0.02322  0.41548  0.98903  1.0000
  C   C235      1.0  0.05570  0.52964  0.85577  1.0000
  N   N24       1.0  0.88070  0.45112  0.68383  1.0000
  H   H373      1.0  0.83937  0.49042  0.68229  1.0000
  H   H374      1.0  0.92030  0.45243  0.73695  1.0000
  H   H375      1.0  0.92870  0.42079  0.69399  1.0000
  Fe  Fe48      1.0  0.89052  0.40716  0.82893  1.0000
  H   H376      1.0  0.97246  0.37955  0.63508  1.0000
  S   S96       1.0  0.99002  0.33040  0.88418  1.0000
  C   C236      1.0  0.05772  0.35825  0.89022  1.0000
  H   H377      1.0  0.99745  0.43017  0.99106  1.0000
  C   C237      1.0  0.94665  0.36704  0.63012  1.0000
  H   H378      1.0  0.06450  0.46477  0.95098  1.0000
  C   C238      1.0  0.85773  0.42536  0.70724  1.0000
  H   H379      1.0  0.02849  0.54137  0.85148  1.0000
  C   C239      1.0  0.89550  0.33554  0.66070  1.0000
  C   C240      1.0  0.05820  0.46874  0.98725  1.0000
  H   H380      1.0  0.04048  0.41628  0.07705  1.0000
  H   H381      1.0  0.05468  0.51280  0.88637  1.0000
  C   C241      1.0  0.87997  0.33460  0.61762  1.0000
  C   C242      1.0  0.04457  0.44132  0.05848  1.0000
  H   H382      1.0  0.88757  0.41738  0.62677  1.0000
  S   S97       1.0  0.87162  0.31813  0.70652  1.0000
  H   H383      1.0  0.85141  0.44788  0.62116  1.0000
  C   C243      1.0  0.07266  0.41780  0.86829  1.0000
  H   H384      1.0  0.89713  0.46262  0.61594  1.0000
  C   C244      1.0  0.83483  0.74853  0.44544  1.0000
  H   H385      1.0  0.77821  0.76582  0.39327  1.0000
  H   H386      1.0  0.85506  0.74326  0.41887  1.0000
  H   H387      1.0  0.84769  0.74239  0.47845  1.0000
  H   H388      1.0  0.82920  0.77716  0.44477  1.0000
  H   H389      1.0  0.80411  0.73284  0.36583  1.0000
  C   C245      1.0  0.77605  0.73475  0.47458  1.0000
  C   C246      1.0  0.78539  0.73752  0.39427  1.0000
  H   H390      1.0  0.82367  0.68172  0.46992  1.0000
  H   H391      1.0  0.78679  0.67344  0.43192  1.0000
  H   H392      1.0  0.61358  0.79016  0.52143  1.0000
  C   C247      1.0  0.81103  0.69004  0.43753  1.0000
  H   H393      1.0  0.78753  0.72776  0.50813  1.0000
  H   H394      1.0  0.76038  0.72242  0.38738  1.0000
  H   H395      1.0  0.83043  0.68397  0.41019  1.0000
  H   H396      1.0  0.75072  0.71959  0.46992  1.0000
  N   N25       1.0  0.80180  0.72771  0.43799  1.0000
  H   H397      1.0  0.76851  0.76297  0.47574  1.0000
  C   C248      1.0  0.84065  0.79838  0.33449  1.0000
  Fe  Fe49      1.0  0.98278  0.63383  0.38769  1.0000
  S   S98       1.0  0.01512  0.62284  0.32596  1.0000
  H   H398      1.0  0.90340  0.73502  0.31557  1.0000
  Fe  Fe50      1.0  0.96923  0.70933  0.36121  1.0000
  Fe  Fe51      1.0  0.97220  0.65299  0.28950  1.0000
  S   S99       1.0  0.95158  0.62801  0.22556  1.0000
  S   S100      1.0  0.01176  0.68376  0.40369  1.0000
  S   S101      1.0  0.93741  0.65999  0.35051  1.0000
  C   C249      1.0  0.89089  0.75774  0.33051  1.0000
  C   C250      1.0  0.90904  0.57884  0.41581  1.0000
  H   H399      1.0  0.90983  0.60307  0.39727  1.0000
  C   C251      1.0  0.06385  0.76886  0.36302  1.0000
  H   H400      1.0  0.97120  0.70037  0.20915  1.0000
  H   H401      1.0  0.95565  0.60584  0.13325  1.0000
  C   C252      1.0  0.96292  0.65085  0.17612  1.0000
  C   C253      1.0  0.89186  0.80510  0.38472  1.0000
  C   C254      1.0  0.97192  0.68642  0.17761  1.0000
  Fe  Fe52      1.0  0.04020  0.67519  0.33857  1.0000
  H   H402      1.0  0.01861  0.76934  0.43303  1.0000
  S   S102      1.0  0.94906  0.76062  0.38805  1.0000
  S   S103      1.0  0.97901  0.59197  0.44086  1.0000
  H   H403      1.0  0.85626  0.56480  0.39131  1.0000
  S   S104      1.0  0.00011  0.70492  0.29696  1.0000
  H   H404      1.0  0.81784  0.80411  0.58071  1.0000
  C   C255      1.0  0.03035  0.79517  0.42346  1.0000
  C   C256      1.0  0.85728  0.76933  0.31470  1.0000
  C   C257      1.0  0.90813  0.77559  0.36567  1.0000
  C   C258      1.0  0.96269  0.63334  0.13463  1.0000
  C   C259      1.0  0.98106  0.70431  0.13801  1.0000
  N   N26       1.0  0.06643  0.79102  0.40372  1.0000
  H   H405      1.0  0.84389  0.75545  0.28760  1.0000
  H   H406      1.0  0.01122  0.80751  0.39915  1.0000
  H   H407      1.0  0.98778  0.73189  0.13945  1.0000
  H   H408      1.0  0.04502  0.78013  0.33757  1.0000
  C   C260      1.0  0.93861  0.56839  0.44184  1.0000
  H   H409      1.0  0.05382  0.74222  0.37132  1.0000
  H   H410      1.0  0.70376  0.81046  0.58575  1.0000
  S   S105      1.0  0.79717  0.81053  0.31741  1.0000
  C   C261      1.0  0.84002  0.78551  0.88815  1.0000
  H   H411      1.0  0.06567  0.67219  0.04507  1.0000
  H   H412      1.0  0.89588  0.76277  0.00365  1.0000
  H   H413      1.0  0.79955  0.76796  0.84123  1.0000
  C   C262      1.0  0.86476  0.76845  0.74640  1.0000
  H   H414      1.0  0.83870  0.76286  0.04432  1.0000
  Fe  Fe53      1.0  0.02550  0.66449  0.89657  1.0000
  S   S106      1.0  0.98272  0.62818  0.87187  1.0000
  S   S107      1.0  0.94144  0.64214  0.96771  1.0000
  Fe  Fe54      1.0  0.98436  0.60623  0.94167  1.0000
  H   H415      1.0  0.04957  0.59166  0.89599  1.0000
  Fe  Fe55      1.0  0.94423  0.66763  0.89956  1.0000
  H   H416      1.0  0.82851  0.71038  0.82816  1.0000
  S   S108      1.0  0.02979  0.64025  0.96495  1.0000
  H   H417      1.0  0.93315  0.57117  0.89342  1.0000
  H   H418      1.0  0.85837  0.76115  0.71095  1.0000
  H   H419      1.0  0.06686  0.73516  0.89340  1.0000
  H   H420      1.0  0.83143  0.68744  0.00789  1.0000
  C   C263      1.0  0.97213  0.65117  0.09498  1.0000
  C   C264      1.0  0.84084  0.72901  0.85100  1.0000
  Fe  Fe56      1.0  0.98720  0.67837  0.98418  1.0000
  H   H421      1.0  0.86400  0.67201  0.07803  1.0000
  H   H422      1.0  0.90551  0.67191  0.04765  1.0000
  C   C265      1.0  0.87205  0.77688  0.91063  1.0000
  S   S109      1.0  0.98720  0.70653  0.91764  1.0000
  H   H423      1.0  0.05752  0.59265  0.81431  1.0000
  H   H424      1.0  0.92824  0.73697  0.76055  1.0000
  N   N27       1.0  0.87362  0.71829  0.03823  1.0000
  C   C266      1.0  0.98125  0.68671  0.09670  1.0000
  H   H425      1.0  0.84350  0.72599  0.97680  1.0000
  H   H426      1.0  0.97237  0.63733  0.06323  1.0000
  S   S110      1.0  0.89440  0.68088  0.85999  1.0000
  C   C267      1.0  0.84895  0.74038  0.06469  1.0000
  H   H427      1.0  0.86362  0.74411  0.76692  1.0000
  H   H428      1.0  0.88426  0.79567  0.93331  1.0000
  C   C268      1.0  0.92859  0.76034  0.73789  1.0000
  H   H429      1.0  0.91407  0.73845  0.91895  1.0000
  N   N28       1.0  0.90027  0.78563  0.75018  1.0000
  C   C269      1.0  0.87325  0.72064  0.87266  1.0000
  S   S111      1.0  0.99199  0.70997  0.04757  1.0000
  H   H430      1.0  0.92488  0.75079  0.70275  1.0000
  H   H431      1.0  0.87249  0.68851  0.97655  1.0000
  H   H432      1.0  0.95579  0.77233  0.74053  1.0000
  C   C270      1.0  0.88654  0.68886  0.06645  1.0000
  H   H433      1.0  0.82524  0.72514  0.07636  1.0000
  C   C271      1.0  0.85444  0.70443  0.99821  1.0000
  C   C272      1.0  0.82452  0.76160  0.85819  1.0000
  C   C273      1.0  0.88886  0.74458  0.90260  1.0000
  C   C274      1.0  0.90462  0.73959  0.02362  1.0000
  H   H434      1.0  0.86263  0.75138  0.09504  1.0000
  H   H435      1.0  0.90118  0.69840  0.09695  1.0000
  H   H436      1.0  0.90677  0.77489  0.82070  1.0000
  H   H437      1.0  0.05787  0.71975  0.98738  1.0000
  H   H438      1.0  0.07168  0.70409  0.08836  1.0000
  H   H439      1.0  0.84283  0.78604  0.75802  1.0000
  H   H440      1.0  0.92060  0.74932  0.05292  1.0000
  H   H441      1.0  0.92320  0.72407  0.00228  1.0000
  H   H442      1.0  0.07566  0.56318  0.93108  1.0000
  C   C275      1.0  0.90614  0.79746  0.79705  1.0000
  H   H443      1.0  0.06174  0.75019  0.03300  1.0000
  C   C276      1.0  0.07622  0.57894  0.89951  1.0000
  S   S112      1.0  0.07530  0.66583  0.85518  1.0000
  H   H444      1.0  0.89662  0.80826  0.68381  1.0000
  Fe  Fe57      1.0  0.71537  0.84659  0.43962  1.0000
  S   S113      1.0  0.72108  0.90364  0.45417  1.0000
  H   H445      1.0  0.60952  0.92131  0.23024  1.0000
  C   C277      1.0  0.68119  0.00659  0.29313  1.0000
  S   S114      1.0  0.78235  0.90524  0.37408  1.0000
  C   C278      1.0  0.67027  0.87168  0.57622  1.0000
  Fe  Fe58      1.0  0.78012  0.89360  0.44840  1.0000
  S   S115      1.0  0.81561  0.91698  0.50196  1.0000
  Fe  Fe59      1.0  0.72224  0.91007  0.37915  1.0000
  S   S116      1.0  0.68410  0.94899  0.34740  1.0000
  S   S117      1.0  0.77412  0.83564  0.43990  1.0000
  S   S118      1.0  0.71147  0.85322  0.36506  1.0000
  C   C279      1.0  0.70359  0.98285  0.31583  1.0000
  H   H446      1.0  0.73606  0.90164  0.57363  1.0000
  H   H447      1.0  0.67027  0.84940  0.26917  1.0000
  H   H448      1.0  0.59948  0.85935  0.21434  1.0000
  C   C280      1.0  0.74085  0.98690  0.31367  1.0000
  H   H449      1.0  0.60176  0.02872  0.35278  1.0000
  H   H450      1.0  0.06332  0.83906  0.36608  1.0000
  C   C281      1.0  0.75569  0.01482  0.28919  1.0000
  H   H451      1.0  0.75832  0.96878  0.33110  1.0000
  H   H452      1.0  0.67707  0.89505  0.28046  1.0000
  C   C282      1.0  0.85807  0.81636  0.36935  1.0000
  C   C283      1.0  0.61884  0.87205  0.32518  1.0000
  C   C284      1.0  0.82152  0.90521  0.59272  1.0000
  C   C285      1.0  0.81927  0.89009  0.54983  1.0000
  H   H453      1.0  0.66250  0.88135  0.22555  1.0000
  H   H454      1.0  0.59052  0.87379  0.33680  1.0000
  H   H455      1.0  0.62561  0.93513  0.28465  1.0000
  H   H456      1.0  0.03108  0.81172  0.45425  1.0000
  C   C286      1.0  0.62653  0.85711  0.44743  1.0000
  H   H457      1.0  0.64758  0.86992  0.42869  1.0000
  H   H458      1.0  0.81918  0.84175  0.51282  1.0000
  H   H459      1.0  0.65433  0.89439  0.58833  1.0000
  H   H460      1.0  0.82248  0.93344  0.59612  1.0000
  N   N29       1.0  0.62164  0.87929  0.27637  1.0000
  H   H461      1.0  0.63483  0.89113  0.34536  1.0000
  C   C287      1.0  0.59105  0.86945  0.44417  1.0000
  C   C288      1.0  0.59933  0.85381  0.25117  1.0000
  C   C289      1.0  0.60741  0.81228  0.49990  1.0000
  Fe  Fe60      1.0  0.77139  0.84762  0.36622  1.0000
  C   C290      1.0  0.72513  0.89536  0.60758  1.0000
  H   H462      1.0  0.63453  0.00036  0.37855  1.0000
  C   C291      1.0  0.61435  0.02111  0.38543  1.0000
  H   H463      1.0  0.58070  0.91886  0.27818  1.0000
  C   C292      1.0  0.60885  0.91523  0.26691  1.0000
  H   H464      1.0  0.84555  0.83898  0.38452  1.0000
  H   H465      1.0  0.65187  0.84870  0.57398  1.0000
  H   H466      1.0  0.65237  0.00317  0.29391  1.0000
  C   C293      1.0  0.81883  0.85359  0.54567  1.0000
  H   H467      1.0  0.62880  0.84537  0.33380  1.0000
  C   C294      1.0  0.81885  0.83231  0.58415  1.0000
  H   H468      1.0  0.78456  0.01796  0.28778  1.0000
  H   H469      1.0  0.60897  0.82651  0.25639  1.0000
  H   H470      1.0  0.90514  0.81900  0.41190  1.0000
  H   H471      1.0  0.59290  0.00905  0.40637  1.0000
  C   C295      1.0  0.63463  0.82839  0.47517  1.0000
  H   H472      1.0  0.68097  0.04767  0.37272  1.0000
  C   C296      1.0  0.73329  0.03912  0.26759  1.0000
  C   C297      1.0  0.72133  0.83397  0.58895  1.0000
  C   C298      1.0  0.69600  0.03484  0.26937  1.0000
  C   C299      1.0  0.65950  0.87608  0.26221  1.0000
  N   N30       1.0  0.63092  0.05157  0.40827  1.0000
  N   N31       1.0  0.70122  0.86443  0.60626  1.0000
  S   S119      1.0  0.67879  0.81291  0.48024  1.0000
  H   H473      1.0  0.67863  0.05274  0.25144  1.0000
  C   C300      1.0  0.64727  0.03997  0.45129  1.0000
  H   H474      1.0  0.62679  0.02842  0.47411  1.0000
  H   H475      1.0  0.58485  0.89177  0.42311  1.0000
  H   H476      1.0  0.66822  0.01961  0.44561  1.0000
  H   H477      1.0  0.73257  0.83942  0.55495  1.0000
  H   H478      1.0  0.67918  0.87760  0.54129  1.0000
  H   H479      1.0  0.74417  0.82704  0.61168  1.0000
  H   H480      1.0  0.77507  0.05925  0.14063  1.0000
  Fe  Fe61      1.0  0.79521  0.91931  0.78606  1.0000
  S   S120      1.0  0.75940  0.89860  0.84017  1.0000
  H   H481      1.0  0.66984  0.95188  0.83118  1.0000
  Fe  Fe62      1.0  0.79550  0.85069  0.73471  1.0000
  C   C301      1.0  0.78746  0.03817  0.80699  1.0000
  H   H482      1.0  0.62345  0.96444  0.82723  1.0000
  Fe  Fe63      1.0  0.72867  0.87415  0.78294  1.0000
  S   S121      1.0  0.66915  0.87890  0.77156  1.0000
  Fe  Fe64      1.0  0.79405  0.85044  0.83662  1.0000
  H   H483      1.0  0.92799  0.82974  0.72118  1.0000
  S   S122      1.0  0.76180  0.89894  0.72889  1.0000
  H   H484      1.0  0.81281  0.04450  0.82310  1.0000
  C   C302      1.0  0.78236  0.00508  0.78771  1.0000
  C   C303      1.0  0.69056  0.00362  0.88684  1.0000
  S   S123      1.0  0.81975  0.82614  0.89812  1.0000
  S   S124      1.0  0.81682  0.97394  0.79097  1.0000
  C   C304      1.0  0.74963  0.99701  0.76665  1.0000
  C   C305      1.0  0.64525  0.87884  0.82226  1.0000
  S   S125      1.0  0.83243  0.87333  0.78682  1.0000
  N   N32       1.0  0.65349  0.99105  0.87899  1.0000
  H   H485      1.0  0.74565  0.97163  0.75139  1.0000
  H   H486      1.0  0.71090  0.85049  0.67565  1.0000
  C   C306      1.0  0.72208  0.02201  0.76488  1.0000
  C   C307      1.0  0.66169  0.86769  0.86225  1.0000
  H   H487      1.0  0.62939  0.03400  0.91443  1.0000
  C   C308      1.0  0.59127  0.89347  0.86386  1.0000
  H   H488      1.0  0.64560  0.97684  0.94843  1.0000
  H   H489      1.0  0.66969  0.83382  0.65252  1.0000
  H   H490      1.0  0.71038  0.98188  0.88418  1.0000
  H   H491      1.0  0.65554  0.86028  0.93379  1.0000
  H   H492      1.0  0.69354  0.01561  0.92083  1.0000
  C   C309      1.0  0.64274  0.86895  0.90289  1.0000
  H   H493      1.0  0.68891  0.85784  0.86185  1.0000
  H   H494      1.0  0.69690  0.01578  0.74835  1.0000
  C   C310      1.0  0.60771  0.88225  0.90386  1.0000
  C   C311      1.0  0.65103  0.97445  0.83412  1.0000
  C   C312      1.0  0.60986  0.89127  0.82298  1.0000
  H   H495      1.0  0.74848  0.89079  0.63031  1.0000
  C   C313      1.0  0.62832  0.02094  0.88091  1.0000
  H   H496      1.0  0.69822  0.02378  0.86159  1.0000
  H   H497      1.0  0.82251  0.89580  0.66436  1.0000
  H   H498      1.0  0.61621  0.95529  0.90927  1.0000
  C   C314      1.0  0.64406  0.96522  0.91408  1.0000
  H   H499      1.0  0.66229  0.94213  0.91336  1.0000
  H   H500      1.0  0.65770  0.99339  0.80692  1.0000
  H   H501      1.0  0.71092  0.91898  0.62023  1.0000
  H   H502      1.0  0.63477  0.04094  0.85477  1.0000
  H   H503      1.0  0.60004  0.01236  0.87496  1.0000
  C   C315      1.0  0.82137  0.88392  0.63133  1.0000
  H   H504      1.0  0.59709  0.89988  0.79205  1.0000
  S   S126      1.0  0.75972  0.82372  0.78435  1.0000
  C   C316      1.0  0.68827  0.85668  0.65222  1.0000
  H   H505      1.0  0.67365  0.87935  0.66695  1.0000
  H   H506      1.0  0.75654  0.04493  0.01831  1.0000
  H   H507      1.0  0.88055  0.83567  0.72784  1.0000
  S   S127      1.0  0.81450  0.82058  0.67445  1.0000
  C   C317      1.0  0.90158  0.81612  0.71944  1.0000
  H   H508      1.0  0.88428  0.81523  0.80842  1.0000
  C   C318      1.0  0.75359  0.04671  0.05556  1.0000
  H   H509      1.0  0.72438  0.04457  0.06288  1.0000
  C   C319      1.0  0.81913  0.84749  0.62699  1.0000
  S   S128      1.0  0.58594  0.88646  0.95580  1.0000
  H   H510      1.0  0.76690  0.02342  0.07086  1.0000
  C   C320      1.0  0.72671  0.05455  0.78581  1.0000
  H   H511      1.0  0.82204  0.05861  0.08092  1.0000
  H   H512      1.0  0.93199  0.81182  0.80091  1.0000
