data_image0
_chemical_formula_structural       CSHFeH3FeHFeNH3C2H3CH3SH4C2SHNH2CSNC4SHFeC3H4SC2SHC2H4FeSH3SCHC2SC2HCHC2H2CHCH2CH4SHCHFeHS2HSCHCHSCHCH3C2H2CSCFeHCNHCS2C2H5CSH2C2HSH2SH2NHCSCH3CFeH2C4H8FeCHNC2H2CH2CFeC2HCH2CHSCSHFeHSC2FeC2H2SCHS2C2H3CHCSCSFeSFeH2FeH2C2NHC2H3CH4CH2NHCHCH2SNH3C2H4FeH4C2H2CH2C2H2SCS2H2C2HNH4S2CSC3H6CH2CHCHCH3SHFeSH4SHSHSHC4NCH2FeC3H2C5H2SFeCFeHCHCFeH2S2C6HSHSCH4NHCH2FeHS2C2HC2H2FeC4HC2H5S4C5H5NHC5SFeHFeCH2SHCHCHCH2CH11C2H6CFeHCHFeSFeH2C3H2S2NSH4C2H3SH7CHNFeSCHCHC2H4CHSH2FeHC3HFeH2CH3C2SC2SHSCSH4CH2FeHCSC2H3CFe2SH3S2HFeC6H3FeH3S2H4NH5SNC4H4C2H2S2H2C2H2CFeCH3CH6FeH2SHFeS2FeS2CFeH2C7H6CFeC3SH2NH2CH2CSC2H2SCSCH2CNH4CH5FeSCSH2SCH2S2C2H3C2H2CFeSH2SHCHNCH2FeH5C3SH6NCH3CHCH2N2CHCSH2CH4CH2C2H3C2H2CH2SHFeS2FeSHCFeC3H2C3HFeHCHC2HFeCHC2FeHNH4CH2C2HSC2SCFeSHSH2C2SHSC2HC2H2FeHCH2CH3CHSCNH3CH7SCHCH3FeSHFeS2FeS2HCHC2HCHSH2C2HCH2CSH3C3HSFeSH3FeHSCFeH2CSH2SC6H5SNHSH3FeC2HFeSHCH4CH2C2SNH3SCHSHCH4FeSNFeS2FeSHC2FeS2HC6H4C3NHC2SC2H3NCH2CFeH3SH3CH7NH6SH3C4H2CHFe2SH2S2H2C2HSCH3CHS2H4CFe2CHNCHCH2C2HFeHC2HCSHFeS2HSHSNC2HCH2CH2CHC3HC6H5CH3CH2SCHCHC2H7CHC3HCN2H4FeH2C2HC2H4S2H2CH2SFeCNHCFeHCSHSHCH2SNHCHFeH2FeS2CFeHCSHCSHSHFeHC2H2CHC6H4SCH2SHSHNC5HCH3CH2C3HC2H4NH5C2HC3H2SH3NH3FeC2HCH
_chemical_formula_sum              "C400 S160 H640 Fe80 N40"
_cell_length_a       30.5216
_cell_length_b       60.4606
_cell_length_c       54.1103
_cell_angle_alpha    87.708
_cell_angle_beta     86.8568
_cell_angle_gamma    122.338

_space_group_name_H-M_alt    "P 1"
_space_group_IT_number       1

loop_
  _space_group_symop_operation_xyz
  'x, y, z'

loop_
  _atom_site_type_symbol
  _atom_site_label
  _atom_site_symmetry_multiplicity
  _atom_site_fract_x
  _atom_site_fract_y
  _atom_site_fract_z
  _atom_site_occupancy
  C   C1        1.0  0.97834  0.04874  0.15368  1.0000
  S   S1        1.0  0.07400  0.13496  0.22442  1.0000
  H   H1        1.0  0.40408  0.25515  0.23455  1.0000
  Fe  Fe1       1.0  0.06019  0.09557  0.23743  1.0000
  H   H2        1.0  0.09038  0.05231  0.17386  1.0000
  H   H3        1.0  0.04317  0.28459  0.12959  1.0000
  H   H4        1.0  0.13701  0.99894  0.15704  1.0000
  Fe  Fe2       1.0  0.07899  0.29387  0.24304  1.0000
  H   H5        1.0  0.06145  0.21541  0.20414  1.0000
  Fe  Fe3       1.0  0.15093  0.15203  0.24087  1.0000
  N   N1        1.0  0.08186  0.31023  0.15813  1.0000
  H   H6        1.0  0.07273  0.02504  0.19558  1.0000
  H   H7        1.0  0.16214  0.03686  0.12715  1.0000
  H   H8        1.0  0.13909  0.05209  0.19075  1.0000
  C   C2        1.0  0.03474  0.18749  0.23610  1.0000
  C   C3        1.0  0.06478  0.01013  0.14889  1.0000
  H   H9        1.0  0.27412  0.25731  0.24198  1.0000
  H   H10       1.0  0.33320  0.22580  0.20911  1.0000
  H   H11       1.0  0.05089  0.02221  0.14059  1.0000
  C   C4        1.0  0.99611  0.04321  0.19596  1.0000
  H   H12       1.0  0.12380  0.34265  0.18054  1.0000
  H   H13       1.0  0.09163  0.27756  0.16179  1.0000
  H   H14       1.0  0.09002  0.43852  0.24976  1.0000
  S   S2        1.0  0.06162  0.26003  0.22023  1.0000
  H   H15       1.0  0.00976  0.30498  0.17318  1.0000
  H   H16       1.0  0.03790  0.17321  0.22610  1.0000
  H   H17       1.0  0.04046  0.36780  0.24540  1.0000
  H   H18       1.0  0.10058  0.31574  0.11859  1.0000
  C   C5        1.0  0.27407  0.20840  0.23992  1.0000
  C   C6        1.0  0.32464  0.22579  0.22879  1.0000
  S   S3        1.0  0.22550  0.18638  0.22167  1.0000
  H   H19       1.0  0.09832  0.99349  0.18531  1.0000
  N   N2        1.0  0.20514  0.25860  0.24747  1.0000
  H   H20       1.0  0.16529  0.02051  0.18146  1.0000
  H   H21       1.0  0.07090  0.99990  0.13375  1.0000
  C   C7        1.0  0.06610  0.30591  0.13255  1.0000
  S   S4        1.0  0.02683  0.05539  0.22320  1.0000
  N   N3        1.0  0.11302  0.02628  0.16114  1.0000
  C   C8        1.0  0.99825  0.37944  0.16736  1.0000
  C   C9        1.0  0.12938  0.00917  0.17174  1.0000
  C   C10       1.0  0.10348  0.03950  0.18118  1.0000
  C   C11       1.0  0.15428  0.04623  0.14262  1.0000
  S   S5        1.0  0.03826  0.31570  0.24319  1.0000
  H   H22       1.0  0.98079  0.06138  0.13821  1.0000
  Fe  Fe4       1.0  0.00195  0.47144  0.14607  1.0000
  C   C12       1.0  0.04794  0.21140  0.22367  1.0000
  C   C13       1.0  0.36477  0.24262  0.24314  1.0000
  C   C14       1.0  0.04379  0.23005  0.23638  1.0000
  H   H23       1.0  0.03278  0.99460  0.16217  1.0000
  H   H24       1.0  0.01099  0.27547  0.17426  1.0000
  H   H25       1.0  0.05084  0.42097  0.15797  1.0000
  H   H26       1.0  0.00809  0.39197  0.22292  1.0000
  S   S6        1.0  0.01954  0.44984  0.11820  1.0000
  C   C15       1.0  0.03487  0.29704  0.17593  1.0000
  C   C16       1.0  0.11408  0.29925  0.16289  1.0000
  S   S7        1.0  0.14039  0.11288  0.25010  1.0000
  H   H27       1.0  0.04146  0.31387  0.12851  1.0000
  C   C17       1.0  0.19701  0.25760  0.22076  1.0000
  C   C18       1.0  0.99186  0.35697  0.17983  1.0000
  H   H28       1.0  0.04548  0.29964  0.19538  1.0000
  H   H29       1.0  0.14277  0.05934  0.13427  1.0000
  H   H30       1.0  0.19140  0.05881  0.15114  1.0000
  H   H31       1.0  0.22126  0.27744  0.21067  1.0000
  Fe  Fe5       1.0  0.11750  0.35193  0.23477  1.0000
  S   S8        1.0  0.13204  0.38496  0.20740  1.0000
  H   H32       1.0  0.20734  0.24446  0.21188  1.0000
  H   H33       1.0  0.36556  0.38015  0.21953  1.0000
  H   H34       1.0  0.08968  0.34784  0.15740  1.0000
  S   S9        1.0  0.15750  0.32984  0.23124  1.0000
  C   C19       1.0  0.35094  0.36615  0.23566  1.0000
  H   H35       1.0  0.28320  0.36832  0.24379  1.0000
  C   C20       1.0  0.07994  0.38249  0.19227  1.0000
  C   C21       1.0  0.03232  0.35854  0.19244  1.0000
  S   S10       1.0  0.44035  0.36606  0.22745  1.0000
  C   C22       1.0  0.04551  0.40353  0.16756  1.0000
  C   C23       1.0  0.08641  0.40497  0.17976  1.0000
  H   H36       1.0  0.02677  0.34110  0.20191  1.0000
  C   C24       1.0  0.11233  0.33872  0.16124  1.0000
  H   H37       1.0  0.15564  0.25007  0.21787  1.0000
  C   C25       1.0  0.30436  0.35948  0.24935  1.0000
  C   C26       1.0  0.37925  0.35527  0.24313  1.0000
  H   H38       1.0  0.14875  0.34931  0.14854  1.0000
  H   H39       1.0  0.12315  0.42360  0.17949  1.0000
  C   C27       1.0  0.99837  0.05947  0.17613  1.0000
  H   H40       1.0  0.14922  0.30817  0.14941  1.0000
  C   C28       1.0  0.99692  0.39625  0.24121  1.0000
  H   H41       1.0  0.12765  0.30286  0.18186  1.0000
  H   H42       1.0  0.28593  0.28977  0.24123  1.0000
  C   C29       1.0  0.08583  0.41909  0.25196  1.0000
  H   H43       1.0  0.21184  0.29578  0.24932  1.0000
  H   H44       1.0  0.99874  0.41505  0.23822  1.0000
  H   H45       1.0  0.01658  0.08031  0.17788  1.0000
  H   H46       1.0  0.09927  0.41568  0.23380  1.0000
  S   S11       1.0  0.47533  0.31193  0.22877  1.0000
  H   H47       1.0  0.18284  0.21824  0.25136  1.0000
  C   C30       1.0  0.26083  0.26949  0.25039  1.0000
  H   H48       1.0  0.14733  0.26767  0.25711  1.0000
  Fe  Fe6       1.0  0.10404  0.11349  0.28680  1.0000
  H   H49       1.0  0.26860  0.27046  0.27031  1.0000
  S   S12       1.0  0.12441  0.10232  0.32256  1.0000
  S   S13       1.0  0.13356  0.35935  0.27465  1.0000
  H   H50       1.0  0.23562  0.11165  0.31507  1.0000
  S   S14       1.0  0.12179  0.15422  0.27886  1.0000
  C   C31       1.0  0.32753  0.15848  0.30975  1.0000
  H   H51       1.0  0.03392  0.42987  0.44981  1.0000
  C   C32       1.0  0.00324  0.34560  0.32502  1.0000
  H   H52       1.0  0.11310  0.42043  0.26557  1.0000
  S   S15       1.0  0.03300  0.41656  0.36616  1.0000
  C   C33       1.0  0.01528  0.40334  0.28408  1.0000
  H   H53       1.0  0.29523  0.22561  0.29938  1.0000
  C   C34       1.0  0.07568  0.07110  0.33644  1.0000
  H   H54       1.0  0.21482  0.15432  0.29908  1.0000
  H   H55       1.0  0.27216  0.11422  0.28662  1.0000
  H   H56       1.0  0.01816  0.41987  0.41902  1.0000
  C   C35       1.0  0.03164  0.04219  0.37408  1.0000
  C   C36       1.0  0.07408  0.06545  0.36195  1.0000
  H   H57       1.0  0.35198  0.18025  0.31033  1.0000
  H   H58       1.0  0.01721  0.09159  0.36121  1.0000
  C   C37       1.0  0.26344  0.20861  0.26537  1.0000
  S   S16       1.0  0.40467  0.26115  0.28754  1.0000
  C   C38       1.0  0.01101  0.20026  0.27382  1.0000
  Fe  Fe7       1.0  0.46998  0.30017  0.26919  1.0000
  H   H59       1.0  0.19597  0.27728  0.27870  1.0000
  C   C39       1.0  0.03623  0.05269  0.32285  1.0000
  N   N4        1.0  0.28094  0.15049  0.29636  1.0000
  H   H60       1.0  0.06919  0.40105  0.45301  1.0000
  C   C40       1.0  0.02829  0.37259  0.26307  1.0000
  S   S17       1.0  0.08818  0.29596  0.28377  1.0000
  S   S18       1.0  0.02342  0.09433  0.27505  1.0000
  C   C41       1.0  0.24926  0.15911  0.30920  1.0000
  C   C42       1.0  0.30349  0.22556  0.27968  1.0000
  H   H61       1.0  0.10440  0.07961  0.37258  1.0000
  H   H62       1.0  0.27224  0.18064  0.31089  1.0000
  H   H63       1.0  0.05072  0.39075  0.42254  1.0000
  H   H64       1.0  0.02546  0.10152  0.32883  1.0000
  H   H65       1.0  0.02805  0.36665  0.44854  1.0000
  C   C43       1.0  0.24959  0.12159  0.29594  1.0000
  S   S19       1.0  0.23219  0.33586  0.29012  1.0000
  H   H66       1.0  0.01024  0.46774  0.50339  1.0000
  H   H67       1.0  0.23412  0.14922  0.32829  1.0000
  C   C44       1.0  0.03659  0.38653  0.44268  1.0000
  C   C45       1.0  0.00344  0.41468  0.43902  1.0000
  H   H68       1.0  0.31653  0.14964  0.32928  1.0000
  S   S20       1.0  0.99667  0.15130  0.27671  1.0000
  H   H69       1.0  0.22465  0.19570  0.27412  1.0000
  H   H70       1.0  0.02502  0.12236  0.35126  1.0000
  S   S21       1.0  0.47357  0.33556  0.28288  1.0000
  H   H71       1.0  0.01602  0.42194  0.28252  1.0000
  H   H72       1.0  0.05400  0.37313  0.27712  1.0000
  N   N5        1.0  0.99009  0.38803  0.44718  1.0000
  H   H73       1.0  0.04157  0.40532  0.29848  1.0000
  C   C46       1.0  0.18937  0.27553  0.25864  1.0000
  S   S22       1.0  0.99101  0.31858  0.30845  1.0000
  C   C47       1.0  0.35439  0.24231  0.26869  1.0000
  H   H74       1.0  0.41696  0.38776  0.31665  1.0000
  H   H75       1.0  0.35243  0.15231  0.30060  1.0000
  H   H76       1.0  0.02194  0.23869  0.27149  1.0000
  C   C48       1.0  0.28688  0.34248  0.27095  1.0000
  Fe  Fe8       1.0  0.16502  0.33320  0.27199  1.0000
  H   H77       1.0  0.32265  0.18460  0.27024  1.0000
  H   H78       1.0  0.02912  0.03864  0.39403  1.0000
  C   C49       1.0  0.00680  0.10150  0.34706  1.0000
  C   C50       1.0  0.05380  0.36509  0.32973  1.0000
  C   C51       1.0  0.06239  0.38658  0.34270  1.0000
  C   C52       1.0  0.02064  0.38893  0.35069  1.0000
  H   H79       1.0  0.03765  0.05665  0.30307  1.0000
  H   H80       1.0  0.99607  0.19588  0.29318  1.0000
  H   H81       1.0  0.08621  0.36341  0.32374  1.0000
  H   H82       1.0  0.10157  0.40152  0.34641  1.0000
  H   H83       1.0  0.38014  0.32778  0.26928  1.0000
  H   H84       1.0  0.31989  0.15609  0.26009  1.0000
  H   H85       1.0  0.30085  0.31780  0.29465  1.0000
  H   H86       1.0  0.21420  0.11500  0.28594  1.0000
  Fe  Fe9       1.0  0.05581  0.32183  0.28300  1.0000
  C   C53       1.0  0.31451  0.33115  0.27806  1.0000
  H   H87       1.0  0.17959  0.23163  0.28001  1.0000
  N   N6        1.0  0.03154  0.39783  0.26007  1.0000
  C   C54       1.0  0.35981  0.33702  0.26384  1.0000
  C   C55       1.0  0.29735  0.16281  0.27061  1.0000
  H   H88       1.0  0.00234  0.39698  0.48527  1.0000
  H   H89       1.0  0.98803  0.35598  0.26939  1.0000
  C   C56       1.0  0.99120  0.02418  0.36069  1.0000
  H   H90       1.0  0.41720  0.39213  0.28354  1.0000
  H   H91       1.0  0.99688  0.98043  0.50494  1.0000
  C   C57       1.0  0.99407  0.02925  0.33495  1.0000
  Fe  Fe10      1.0  0.04443  0.13513  0.26339  1.0000
  C   C58       1.0  0.02580  0.22455  0.26158  1.0000
  C   C59       1.0  0.17330  0.23177  0.25996  1.0000
  H   H92       1.0  0.13099  0.22329  0.25870  1.0000
  C   C60       1.0  0.01561  0.18171  0.26115  1.0000
  H   H93       1.0  0.26324  0.15808  0.26018  1.0000
  H   H94       1.0  0.42928  0.36842  0.29665  1.0000
  C   C61       1.0  0.43671  0.38838  0.29849  1.0000
  H   H95       1.0  0.11717  0.01693  0.71307  1.0000
  S   S23       1.0  0.39579  0.04934  0.70920  1.0000
  C   C62       1.0  0.19124  0.02847  0.69415  1.0000
  S   S24       1.0  0.98057  0.45055  0.55502  1.0000
  H   H96       1.0  0.37670  0.46285  0.75576  1.0000
  Fe  Fe11      1.0  0.31190  0.03286  0.70303  1.0000
  H   H97       1.0  0.21174  0.03446  0.71066  1.0000
  S   S25       1.0  0.28540  0.04372  0.66931  1.0000
  C   C63       1.0  0.13767  0.01323  0.65137  1.0000
  C   C64       1.0  0.13777  0.01869  0.69545  1.0000
  Fe  Fe12      1.0  0.37084  0.00741  0.71784  1.0000
  C   C65       1.0  0.46633  0.99211  0.71787  1.0000
  C   C66       1.0  0.21832  0.03124  0.67135  1.0000
  H   H98       1.0  0.42807  0.98864  0.75375  1.0000
  H   H99       1.0  0.43948  0.10300  0.72691  1.0000
  S   S26       1.0  0.42246  0.99509  0.70044  1.0000
  C   C67       1.0  0.11074  0.01065  0.67416  1.0000
  H   H100      1.0  0.01457  0.38739  0.70826  1.0000
  S   S27       1.0  0.04312  0.99668  0.67667  1.0000
  S   S28       1.0  0.04034  0.43365  0.67261  1.0000
  C   C68       1.0  0.46068  0.98942  0.74387  1.0000
  C   C69       1.0  0.09670  0.46258  0.68023  1.0000
  H   H101      1.0  0.11714  0.00731  0.63482  1.0000
  H   H102      1.0  0.11504  0.44170  0.70663  1.0000
  H   H103      1.0  0.01262  0.42348  0.72716  1.0000
  C   C70       1.0  0.46927  0.11600  0.73841  1.0000
  H   H104      1.0  0.21243  0.02610  0.63224  1.0000
  C   C71       1.0  0.12673  0.46070  0.69792  1.0000
  S   S29       1.0  0.28860  0.03512  0.74244  1.0000
  C   C72       1.0  0.19155  0.02388  0.64993  1.0000
  S   S30       1.0  0.99831  0.46906  0.62113  1.0000
  Fe  Fe13      1.0  0.98623  0.43661  0.64777  1.0000
  S   S31       1.0  0.28899  0.99101  0.70812  1.0000
  Fe  Fe14      1.0  0.27065  0.99407  0.74803  1.0000
  H   H105      1.0  0.01920  0.39109  0.75364  1.0000
  H   H106      1.0  0.98861  0.01884  0.70563  1.0000
  Fe  Fe15      1.0  0.37024  0.04736  0.74924  1.0000
  H   H107      1.0  0.97854  0.23043  0.72280  1.0000
  H   H108      1.0  0.22371  0.03814  0.84968  1.0000
  C   C73       1.0  0.27579  0.05464  0.80469  1.0000
  C   C74       1.0  0.12939  0.99818  0.79649  1.0000
  N   N7        1.0  0.28084  0.03846  0.82416  1.0000
  H   H109      1.0  0.26964  0.06950  0.81278  1.0000
  C   C75       1.0  0.28935  0.01922  0.81248  1.0000
  C   C76       1.0  0.32573  0.05570  0.83815  1.0000
  H   H110      1.0  0.24226  0.04236  0.79378  1.0000
  H   H111      1.0  0.09209  0.46271  0.90957  1.0000
  H   H112      1.0  0.32598  0.02925  0.79994  1.0000
  C   C77       1.0  0.08403  0.45301  0.92871  1.0000
  H   H113      1.0  0.18744  0.00623  0.76693  1.0000
  H   H114      1.0  0.09362  0.45077  0.97790  1.0000
  H   H115      1.0  0.29218  0.00623  0.82657  1.0000
  H   H116      1.0  0.31140  0.06539  0.79137  1.0000
  C   C78       1.0  0.23273  0.02436  0.84126  1.0000
  H   H117      1.0  0.23577  0.01257  0.85660  1.0000
  H   H118      1.0  0.19848  0.01045  0.83146  1.0000
  N   N8        1.0  0.07679  0.46824  0.94740  1.0000
  H   H119      1.0  0.99758  0.45268  0.94012  1.0000
  C   C79       1.0  0.06264  0.45382  0.97221  1.0000
  H   H120      1.0  0.13406  0.01718  0.79367  1.0000
  C   C80       1.0  0.34397  0.42799  0.79550  1.0000
  H   H121      1.0  0.34756  0.42102  0.81418  1.0000
  H   H122      1.0  0.32054  0.07039  0.84732  1.0000
  S   S32       1.0  0.41803  0.07648  0.77630  1.0000
  N   N9        1.0  0.35521  0.45500  0.79522  1.0000
  H   H123      1.0  0.05579  0.46450  0.98671  1.0000
  H   H124      1.0  0.32565  0.47594  0.81363  1.0000
  H   H125      1.0  0.11704  0.45077  0.93233  1.0000
  C   C81       1.0  0.13555  0.45997  0.83647  1.0000
  C   C82       1.0  0.10034  0.46444  0.84958  1.0000
  H   H126      1.0  0.12424  0.44010  0.83330  1.0000
  H   H127      1.0  0.06215  0.44801  0.85623  1.0000
  H   H128      1.0  0.30372  0.41396  0.79052  1.0000
  H   H129      1.0  0.25702  0.00632  0.80115  1.0000
  Fe  Fe16      1.0  0.98970  0.46109  0.87865  1.0000
  H   H130      1.0  0.41541  0.46695  0.82011  1.0000
  H   H131      1.0  0.33135  0.04417  0.85275  1.0000
  H   H132      1.0  0.30928  0.45055  0.76473  1.0000
  H   H133      1.0  0.43824  0.47397  0.78766  1.0000
  C   C83       1.0  0.31821  0.45578  0.81342  1.0000
  C   C84       1.0  0.16003  0.99211  0.78151  1.0000
  H   H134      1.0  0.37140  0.42685  0.78195  1.0000
  H   H135      1.0  0.02597  0.43409  0.97246  1.0000
  C   C85       1.0  0.46767  0.10785  0.76319  1.0000
  H   H136      1.0  0.32089  0.44957  0.83260  1.0000
  H   H137      1.0  0.36255  0.06679  0.82564  1.0000
  C   C86       1.0  0.03461  0.47191  0.94095  1.0000
  C   C87       1.0  0.40902  0.47306  0.80168  1.0000
  H   H138      1.0  0.04859  0.43291  0.92879  1.0000
  H   H139      1.0  0.27717  0.44275  0.80890  1.0000
  S   S33       1.0  0.05910  0.98873  0.83562  1.0000
  C   C88       1.0  0.34965  0.46327  0.77015  1.0000
  S   S34       1.0  0.22839  0.47502  0.81070  1.0000
  S   S35       1.0  0.35054  0.00631  0.75841  1.0000
  H   H140      1.0  0.07885  0.68136  0.25455  1.0000
  H   H141      1.0  0.14620  0.63375  0.16677  1.0000
  C   C89       1.0  0.16529  0.62763  0.17993  1.0000
  C   C90       1.0  0.00868  0.54691  0.18966  1.0000
  H   H142      1.0  0.26519  0.65822  0.16155  1.0000
  N   N10       1.0  0.19697  0.61915  0.16685  1.0000
  H   H143      1.0  0.45148  0.76607  0.20502  1.0000
  H   H144      1.0  0.13396  0.61155  0.19294  1.0000
  H   H145      1.0  0.28991  0.78863  0.24958  1.0000
  H   H146      1.0  0.18938  0.64450  0.19103  1.0000
  S   S36       1.0  0.03633  0.58554  0.22178  1.0000
  S   S37       1.0  0.06565  0.50304  0.16673  1.0000
  C   C91       1.0  0.04214  0.56126  0.20763  1.0000
  S   S38       1.0  0.17324  0.61302  0.24591  1.0000
  C   C92       1.0  0.05351  0.52405  0.18315  1.0000
  C   C93       1.0  0.08591  0.53787  0.20159  1.0000
  C   C94       1.0  0.07984  0.55614  0.21396  1.0000
  H   H147      1.0  0.18900  0.59326  0.19762  1.0000
  H   H148      1.0  0.11597  0.53446  0.20627  1.0000
  H   H149      1.0  0.10433  0.56611  0.22843  1.0000
  H   H150      1.0  0.22356  0.64889  0.13665  1.0000
  H   H151      1.0  0.34658  0.76436  0.22615  1.0000
  H   H152      1.0  0.14625  0.60325  0.13752  1.0000
  C   C95       1.0  0.23929  0.64149  0.15055  1.0000
  H   H153      1.0  0.24451  0.62629  0.19717  1.0000
  H   H154      1.0  0.13061  0.58032  0.16357  1.0000
  C   C96       1.0  0.16358  0.59724  0.15181  1.0000
  H   H155      1.0  0.26397  0.63583  0.14028  1.0000
  C   C97       1.0  0.21979  0.61033  0.18520  1.0000
  H   H156      1.0  0.19368  0.86443  0.14042  1.0000
  C   C98       1.0  0.34290  0.70604  0.22352  1.0000
  H   H157      1.0  0.20726  0.86071  0.17173  1.0000
  H   H158      1.0  0.37032  0.89464  0.22606  1.0000
  H   H159      1.0  0.26989  0.91044  0.13657  1.0000
  S   S39       1.0  0.12519  0.87073  0.25128  1.0000
  H   H160      1.0  0.24456  0.60413  0.17599  1.0000
  Fe  Fe17      1.0  0.08057  0.84230  0.22321  1.0000
  S   S40       1.0  0.14570  0.65800  0.23659  1.0000
  H   H161      1.0  0.28264  0.90685  0.16807  1.0000
  H   H162      1.0  0.15068  0.88428  0.19586  1.0000
  H   H163      1.0  0.27004  0.76883  0.22367  1.0000
  H   H164      1.0  0.27412  0.93299  0.15846  1.0000
  S   S41       1.0  0.26486  0.88037  0.23949  1.0000
  H   H165      1.0  0.42034  0.87505  0.23901  1.0000
  S   S42       1.0  0.13610  0.82904  0.21791  1.0000
  H   H166      1.0  0.14392  0.85359  0.16550  1.0000
  S   S43       1.0  0.28355  0.68232  0.21251  1.0000
  H   H167      1.0  0.18574  0.58980  0.14214  1.0000
  C   C99       1.0  0.04135  0.87388  0.18091  1.0000
  C   C100      1.0  0.06867  0.89731  0.19249  1.0000
  C   C101      1.0  0.06838  0.91943  0.18363  1.0000
  C   C102      1.0  0.03988  0.91804  0.16356  1.0000
  N   N11       1.0  0.20356  0.89474  0.16343  1.0000
  C   C103      1.0  0.29997  0.86625  0.24863  1.0000
  H   H168      1.0  0.09050  0.89850  0.20801  1.0000
  H   H169      1.0  0.09013  0.93764  0.19235  1.0000
  Fe  Fe18      1.0  0.10135  0.61404  0.24417  1.0000
  C   C104      1.0  0.01417  0.52824  0.17750  1.0000
  C   C105      1.0  0.17480  0.90237  0.14773  1.0000
  C   C106      1.0  0.26008  0.91204  0.15626  1.0000
  H   H170      1.0  0.21399  0.89177  0.20216  1.0000
  H   H171      1.0  0.13195  0.88895  0.15210  1.0000
  C   C107      1.0  0.18648  0.86718  0.16009  1.0000
  C   C108      1.0  0.19280  0.89729  0.18976  1.0000
  C   C109      1.0  0.35201  0.87746  0.23915  1.0000
  C   C110      1.0  0.42523  0.74832  0.21675  1.0000
  C   C111      1.0  0.37753  0.72912  0.20846  1.0000
  H   H172      1.0  0.18466  0.92261  0.15059  1.0000
  H   H173      1.0  0.36729  0.73223  0.19039  1.0000
  S   S44       1.0  0.04547  0.84659  0.18908  1.0000
  Fe  Fe19      1.0  0.08768  0.79808  0.24865  1.0000
  C   C112      1.0  0.35634  0.70213  0.24686  1.0000
  Fe  Fe20      1.0  0.21694  0.65690  0.24166  1.0000
  H   H174      1.0  0.18325  0.90150  0.12765  1.0000
  C   C113      1.0  0.38038  0.86641  0.24646  1.0000
  H   H175      1.0  0.20454  0.91772  0.19306  1.0000
  C   C114      1.0  0.43933  0.74412  0.23983  1.0000
  Fe  Fe21      1.0  0.17740  0.85477  0.24810  1.0000
  H   H176      1.0  0.04816  0.70716  0.23342  1.0000
  H   H177      1.0  0.21226  0.71567  0.25348  1.0000
  S   S45       1.0  0.02846  0.80909  0.25156  1.0000
  S   S46       1.0  0.05865  0.75585  0.24257  1.0000
  C   C115      1.0  0.07238  0.71500  0.24863  1.0000
  C   C116      1.0  0.01166  0.89445  0.15244  1.0000
  C   C117      1.0  0.01285  0.87255  0.16093  1.0000
  C   C118      1.0  0.34075  0.76375  0.24669  1.0000
  C   C119      1.0  0.40490  0.72092  0.25478  1.0000
  C   C120      1.0  0.25434  0.72509  0.24745  1.0000
  H   H178      1.0  0.25824  0.72479  0.22691  1.0000
  S   S47       1.0  0.99890  0.97231  0.09773  1.0000
  H   H179      1.0  0.98890  0.51761  0.16332  1.0000
  S   S48       1.0  0.04187  0.94628  0.15210  1.0000
  C   C121      1.0  0.26679  0.76806  0.24430  1.0000
  H   H180      1.0  0.22521  0.75990  0.25069  1.0000
  H   H181      1.0  0.98978  0.89321  0.13692  1.0000
  H   H182      1.0  0.99184  0.85453  0.15182  1.0000
  H   H183      1.0  0.36539  0.78419  0.25201  1.0000
  N   N12       1.0  0.28536  0.75207  0.25526  1.0000
  H   H184      1.0  0.35601  0.75234  0.25501  1.0000
  C   C122      1.0  0.08558  0.73950  0.25648  1.0000
  H   H185      1.0  0.26716  0.71251  0.25558  1.0000
  H   H186      1.0  0.97895  0.55050  0.18482  1.0000
  Fe  Fe22      1.0  0.97970  0.94039  0.12708  1.0000
  H   H187      1.0  0.12774  0.53425  0.32965  1.0000
  S   S49       1.0  0.08884  0.61545  0.28523  1.0000
  S   S50       1.0  0.16966  0.58815  0.31217  1.0000
  C   C123      1.0  0.11074  0.56457  0.32936  1.0000
  C   C124      1.0  0.07380  0.57064  0.33631  1.0000
  H   H188      1.0  0.23698  0.83542  0.27315  1.0000
  C   C125      1.0  0.04982  0.51927  0.34614  1.0000
  C   C126      1.0  0.09912  0.53899  0.33483  1.0000
  H   H189      1.0  0.08300  0.59046  0.33291  1.0000
  H   H190      1.0  0.04052  0.49940  0.34967  1.0000
  Fe  Fe23      1.0  0.16320  0.61646  0.28665  1.0000
  C   C127      1.0  0.27671  0.84410  0.26558  1.0000
  C   C128      1.0  0.08971  0.70037  0.26056  1.0000
  C   C129      1.0  0.99170  0.90010  0.44569  1.0000
  C   C130      1.0  0.27964  0.75131  0.28264  1.0000
  H   H191      1.0  0.29287  0.73920  0.29152  1.0000
  C   C131      1.0  0.01231  0.52522  0.35225  1.0000
  C   C132      1.0  0.11671  0.74948  0.27621  1.0000
  H   H192      1.0  0.98764  0.91832  0.28295  1.0000
  H   H193      1.0  0.15540  0.74187  0.30439  1.0000
  H   H194      1.0  0.99082  0.72075  0.28709  1.0000
  H   H195      1.0  0.03044  0.78377  0.31444  1.0000
  H   H196      1.0  0.12763  0.76847  0.28223  1.0000
  S   S51       1.0  0.02668  0.83154  0.31438  1.0000
  S   S52       1.0  0.21511  0.66052  0.28265  1.0000
  S   S53       1.0  0.39050  0.83005  0.27427  1.0000
  S   S54       1.0  0.04638  0.93043  0.36212  1.0000
  C   C133      1.0  0.04591  0.94051  0.46465  1.0000
  C   C134      1.0  0.03295  0.85935  0.32728  1.0000
  C   C135      1.0  0.07512  0.88476  0.31988  1.0000
  C   C136      1.0  0.07923  0.90641  0.33093  1.0000
  C   C137      1.0  0.04053  0.90286  0.34890  1.0000
  H   H197      1.0  0.41575  0.71746  0.27257  1.0000
  H   H198      1.0  0.02815  0.95006  0.45503  1.0000
  H   H199      1.0  0.10500  0.88770  0.30597  1.0000
  H   H200      1.0  0.11228  0.92601  0.32538  1.0000
  H   H201      1.0  0.11733  0.94839  0.42771  1.0000
  N   N13       1.0  0.04585  0.92052  0.44975  1.0000
  H   H202      1.0  0.99004  0.71388  0.31966  1.0000
  C   C138      1.0  0.99478  0.85578  0.34555  1.0000
  C   C139      1.0  0.35696  0.84440  0.26366  1.0000
  C   C140      1.0  0.02736  0.76503  0.31062  1.0000
  C   C141      1.0  0.99815  0.87747  0.35610  1.0000
  C   C142      1.0  0.02484  0.55105  0.34777  1.0000
  S   S55       1.0  0.13859  0.69126  0.29719  1.0000
  Fe  Fe24      1.0  0.07665  0.83623  0.27962  1.0000
  H   H203      1.0  0.99622  0.55583  0.35279  1.0000
  Fe  Fe25      1.0  0.14126  0.65944  0.27791  1.0000
  C   C143      1.0  0.13265  0.73446  0.28865  1.0000
  H   H204      1.0  0.99442  0.89501  0.30118  1.0000
  H   H205      1.0  0.46212  0.84054  0.35138  1.0000
  S   S56       1.0  0.13262  0.82265  0.27892  1.0000
  H   H206      1.0  0.41479  0.86308  0.35798  1.0000
  C   C144      1.0  0.11911  0.70986  0.28087  1.0000
  H   H207      1.0  0.28695  0.81652  0.28670  1.0000
  C   C145      1.0  0.02401  0.53743  0.27670  1.0000
  H   H208      1.0  0.05958  0.94285  0.41503  1.0000
  C   C146      1.0  0.06958  0.90832  0.46319  1.0000
  H   H209      1.0  0.30280  0.77141  0.28913  1.0000
  H   H210      1.0  0.98985  0.88471  0.43435  1.0000
  C   C147      1.0  0.43082  0.87328  0.33908  1.0000
  H   H211      1.0  0.04748  0.89860  0.48154  1.0000
  H   H212      1.0  0.23827  0.74253  0.28978  1.0000
  H   H213      1.0  0.04539  0.53064  0.26531  1.0000
  H   H214      1.0  0.44785  0.83829  0.31950  1.0000
  H   H215      1.0  0.11043  0.92320  0.46670  1.0000
  H   H216      1.0  0.40188  0.86121  0.32585  1.0000
  H   H217      1.0  0.04917  0.76836  0.29233  1.0000
  H   H218      1.0  0.08606  0.95627  0.46819  1.0000
  H   H219      1.0  0.43363  0.89242  0.33893  1.0000
  H   H220      1.0  0.02309  0.93165  0.48302  1.0000
  H   H221      1.0  0.03400  0.55675  0.26797  1.0000
  C   C148      1.0  0.30524  0.83343  0.27326  1.0000
  C   C149      1.0  0.07602  0.93311  0.42549  1.0000
  H   H222      1.0  0.07565  0.91852  0.41340  1.0000
  H   H223      1.0  0.07016  0.89315  0.45243  1.0000
  H   H224      1.0  0.03957  0.54092  0.29516  1.0000
  H   H225      1.0  0.04764  0.76097  0.32486  1.0000
  H   H226      1.0  0.33006  0.68426  0.25853  1.0000
  H   H227      1.0  0.47419  0.87836  0.29287  1.0000
  C   C150      1.0  0.47620  0.85109  0.33255  1.0000
  Fe  Fe26      1.0  0.46874  0.83947  0.25735  1.0000
  H   H228      1.0  0.34589  0.65059  0.71461  1.0000
  C   C151      1.0  0.34224  0.63870  0.69874  1.0000
  H   H229      1.0  0.35281  0.58644  0.68914  1.0000
  Fe  Fe27      1.0  0.28791  0.53112  0.73038  1.0000
  S   S57       1.0  0.24623  0.53648  0.69979  1.0000
  Fe  Fe28      1.0  0.37636  0.52449  0.74514  1.0000
  H   H230      1.0  0.37060  0.65232  0.68317  1.0000
  H   H231      1.0  0.06455  0.90736  0.68261  1.0000
  C   C152      1.0  0.17223  0.48331  0.70426  1.0000
  C   C153      1.0  0.18831  0.50792  0.69274  1.0000
  C   C154      1.0  0.15808  0.50984  0.67516  1.0000
  H   H232      1.0  0.31902  0.58434  0.73225  1.0000
  H   H233      1.0  0.17030  0.52881  0.66617  1.0000
  S   S58       1.0  0.99392  0.96382  0.55566  1.0000
  S   S59       1.0  0.37466  0.55836  0.72845  1.0000
  N   N14       1.0  0.35162  0.61783  0.70588  1.0000
  S   S60       1.0  0.29036  0.49610  0.74324  1.0000
  H   H234      1.0  0.30634  0.59280  0.67806  1.0000
  H   H235      1.0  0.30241  0.63023  0.69263  1.0000
  H   H236      1.0  0.03924  0.92767  0.68775  1.0000
  H   H237      1.0  0.43498  0.64340  0.69895  1.0000
  C   C155      1.0  0.40473  0.62982  0.71393  1.0000
  C   C156      1.0  0.34627  0.60248  0.68437  1.0000
  H   H238      1.0  0.37457  0.61500  0.66835  1.0000
  H   H239      1.0  0.41319  0.61462  0.71935  1.0000
  H   H240      1.0  0.14563  0.97441  0.72441  1.0000
  S   S61       1.0  0.43566  0.51634  0.72876  1.0000
  H   H241      1.0  0.08650  0.94590  0.73815  1.0000
  H   H242      1.0  0.12041  0.91800  0.73077  1.0000
  H   H243      1.0  0.14619  0.91762  0.70014  1.0000
  H   H244      1.0  0.31615  0.61098  0.74327  1.0000
  H   H245      1.0  0.99011  0.50375  0.55860  1.0000
  H   H246      1.0  0.40976  0.64107  0.73050  1.0000
  H   H247      1.0  0.18075  0.94588  0.71748  1.0000
  C   C157      1.0  0.10711  0.95750  0.72018  1.0000
  H   H248      1.0  0.03744  0.90692  0.71305  1.0000
  N   N15       1.0  0.11324  0.94137  0.70217  1.0000
  Fe  Fe29      1.0  0.00037  0.96763  0.64864  1.0000
  S   S62       1.0  0.02949  0.94946  0.62248  1.0000
  C   C158      1.0  0.14127  0.93015  0.71306  1.0000
  H   H249      1.0  0.12236  0.96610  0.67015  1.0000
  C   C159      1.0  0.14324  0.95797  0.67918  1.0000
  H   H250      1.0  0.14978  0.94664  0.66538  1.0000
  C   C160      1.0  0.06137  0.91990  0.69621  1.0000
  C   C161      1.0  0.31305  0.60027  0.72652  1.0000
  H   H251      1.0  0.27246  0.59053  0.72110  1.0000
  H   H252      1.0  0.18212  0.97492  0.68297  1.0000
  H   H253      1.0  0.08933  0.48885  0.65532  1.0000
  H   H254      1.0  0.08454  0.96555  0.71289  1.0000
  C   C162      1.0  0.11220  0.48723  0.66900  1.0000
  H   H255      1.0  0.19511  0.48163  0.71787  1.0000
  S   S63       1.0  0.07220  0.49597  0.87159  1.0000
  H   H256      1.0  0.11279  0.93020  0.80668  1.0000
  H   H257      1.0  0.00051  0.66973  0.76021  1.0000
  Fe  Fe30      1.0  0.36076  0.56508  0.76763  1.0000
  H   H258      1.0  0.02741  0.48297  0.95481  1.0000
  C   C163      1.0  0.16427  0.51117  0.84478  1.0000
  C   C164      1.0  0.19901  0.50676  0.83106  1.0000
  C   C165      1.0  0.08611  0.95504  0.81842  1.0000
  H   H259      1.0  0.17568  0.53102  0.84809  1.0000
  Fe  Fe31      1.0  0.28279  0.50738  0.78161  1.0000
  H   H260      1.0  0.01489  0.95447  0.98342  1.0000
  H   H261      1.0  0.23710  0.52318  0.82403  1.0000
  C   C166      1.0  0.98808  0.65436  0.77578  1.0000
  H   H262      1.0  0.05791  0.94071  0.83280  1.0000
  H   H263      1.0  0.41792  0.49342  0.80248  1.0000
  H   H264      1.0  0.12120  0.50630  0.96134  1.0000
  C   C167      1.0  0.15511  0.96786  0.78555  1.0000
  C   C168      1.0  0.47043  0.62084  0.76859  1.0000
  S   S64       1.0  0.36895  0.53306  0.78461  1.0000
  C   C169      1.0  0.11725  0.94913  0.80364  1.0000
  C   C170      1.0  0.12552  0.49422  0.94760  1.0000
  S   S65       1.0  0.40387  0.60742  0.77602  1.0000
  H   H265      1.0  0.00162  0.66459  0.79303  1.0000
  S   S66       1.0  0.19674  0.96070  0.76893  1.0000
  C   C171      1.0  0.11476  0.49004  0.85399  1.0000
  S   S67       1.0  0.27376  0.54026  0.76861  1.0000
  H   H266      1.0  0.00889  0.64414  0.77212  1.0000
  H   H267      1.0  0.13679  0.50539  0.92900  1.0000
  H   H268      1.0  0.04402  0.48303  0.92254  1.0000
  H   H269      1.0  0.15837  0.49230  0.95243  1.0000
  C   C172      1.0  0.18479  0.48111  0.82700  1.0000
  H   H270      1.0  0.46149  0.58312  0.76703  1.0000
  H   H271      1.0  0.47057  0.53904  0.77570  1.0000
  Fe  Fe32      1.0  0.98138  0.95395  0.85136  1.0000
  H   H272      1.0  0.35882  0.48371  0.76924  1.0000
  C   C173      1.0  0.09300  0.97982  0.81527  1.0000
  S   S68       1.0  0.96585  0.46518  0.05537  1.0000
  C   C174      1.0  0.94742  0.44707  0.02879  1.0000
  C   C175      1.0  0.95681  0.02191  0.15096  1.0000
  H   H273      1.0  0.84013  0.42938  0.04069  1.0000
  H   H274      1.0  0.81698  0.39762  0.22804  1.0000
  H   H275      1.0  0.93472  0.41129  0.04635  1.0000
  C   C176      1.0  0.97270  0.01629  0.19346  1.0000
  Fe  Fe33      1.0  0.56205  0.33282  0.23067  1.0000
  Fe  Fe34      1.0  0.96000  0.45067  0.09577  1.0000
  S   S69       1.0  0.61765  0.33010  0.20340  1.0000
  H   H276      1.0  0.71804  0.34333  0.22365  1.0000
  H   H277      1.0  0.85277  0.00805  0.15027  1.0000
  H   H278      1.0  0.79391  0.00774  0.15395  1.0000
  S   S70       1.0  0.57090  0.37061  0.24039  1.0000
  S   S71       1.0  0.81117  0.43614  0.15172  1.0000
  H   H279      1.0  0.78118  0.44560  0.04401  1.0000
  Fe  Fe35      1.0  0.95091  0.41380  0.13897  1.0000
  C   C177      1.0  0.75703  0.40632  0.16511  1.0000
  C   C178      1.0  0.71437  0.40616  0.17633  1.0000
  C   C179      1.0  0.67104  0.38278  0.18775  1.0000
  C   C180      1.0  0.66976  0.35934  0.18767  1.0000
  C   C181      1.0  0.71181  0.35935  0.17573  1.0000
  C   C182      1.0  0.75571  0.38286  0.16474  1.0000
  H   H280      1.0  0.63847  0.38291  0.19639  1.0000
  H   H281      1.0  0.71085  0.34121  0.17542  1.0000
  H   H282      1.0  0.78841  0.38280  0.15601  1.0000
  Fe  Fe36      1.0  0.88527  0.43763  0.14152  1.0000
  H   H283      1.0  0.91024  0.38748  0.00801  1.0000
  H   H284      1.0  0.71505  0.42424  0.17646  1.0000
  H   H285      1.0  0.75753  0.39201  0.21750  1.0000
  S   S72       1.0  0.94675  0.37656  0.15150  1.0000
  S   S73       1.0  0.93679  0.43529  0.16803  1.0000
  H   H286      1.0  0.73191  0.38762  0.08958  1.0000
  H   H287      1.0  0.86008  0.46575  0.06712  1.0000
  H   H288      1.0  0.93632  0.98507  0.16952  1.0000
  H   H289      1.0  0.71885  0.32916  0.25306  1.0000
  N   N16       1.0  0.74802  0.37042  0.25196  1.0000
  H   H290      1.0  0.78718  0.39646  0.05041  1.0000
  H   H291      1.0  0.84482  0.41187  0.06673  1.0000
  H   H292      1.0  0.82030  0.45909  0.09587  1.0000
  H   H293      1.0  0.86304  0.44750  0.09294  1.0000
  H   H294      1.0  0.74606  0.41408  0.10855  1.0000
  S   S74       1.0  0.89264  0.41265  0.11423  1.0000
  N   N17       1.0  0.79415  0.42592  0.07395  1.0000
  C   C183      1.0  0.75944  0.43107  0.06032  1.0000
  C   C184      1.0  0.76383  0.40665  0.09545  1.0000
  C   C185      1.0  0.83606  0.45070  0.08279  1.0000
  C   C186      1.0  0.81739  0.41539  0.05722  1.0000
  H   H295      1.0  0.72737  0.41278  0.05334  1.0000
  H   H296      1.0  0.95531  0.33831  0.17978  1.0000
  H   H297      1.0  0.78887  0.40249  0.10634  1.0000
  H   H298      1.0  0.97071  0.00360  0.20877  1.0000
  C   C187      1.0  0.93390  0.42100  0.02930  1.0000
  C   C188      1.0  0.81337  0.99768  0.16043  1.0000
  H   H299      1.0  0.95571  0.38035  0.24674  1.0000
  H   H300      1.0  0.78450  0.41188  0.24285  1.0000
  S   S75       1.0  0.94943  0.47578  0.12203  1.0000
  S   S76       1.0  0.93429  0.00884  0.12241  1.0000
  H   H301      1.0  0.67452  0.36386  0.24265  1.0000
  H   H302      1.0  0.81886  0.00061  0.18047  1.0000
  C   C189      1.0  0.77824  0.39405  0.23436  1.0000
  C   C190      1.0  0.95334  0.00573  0.17110  1.0000
  H   H303      1.0  0.74139  0.43908  0.07246  1.0000
  H   H304      1.0  0.77874  0.34990  0.23370  1.0000
  C   C191      1.0  0.74080  0.34723  0.24007  1.0000
  Fe  Fe37      1.0  0.48351  0.34833  0.24251  1.0000
  C   C192      1.0  0.92001  0.40755  0.00754  1.0000
  H   H305      1.0  0.49952  0.41394  0.25673  1.0000
  H   H306      1.0  0.88371  0.07845  0.37174  1.0000
  H   H307      1.0  0.95365  0.10141  0.30866  1.0000
  C   C193      1.0  0.69653  0.36622  0.25912  1.0000
  H   H308      1.0  0.56045  0.41616  0.31494  1.0000
  H   H309      1.0  0.54363  0.45005  0.29883  1.0000
  H   H310      1.0  0.78064  0.39081  0.28439  1.0000
  H   H311      1.0  0.95987  0.37281  0.41255  1.0000
  H   H312      1.0  0.55978  0.42364  0.26992  1.0000
  H   H313      1.0  0.96602  0.45035  0.46513  1.0000
  Fe  Fe38      1.0  0.96591  0.42191  0.37410  1.0000
  H   H314      1.0  0.93760  0.34831  0.43817  1.0000
  H   H315      1.0  0.48394  0.43472  0.31870  1.0000
  S   S77       1.0  0.61098  0.38481  0.30575  1.0000
  H   H316      1.0  0.91206  0.36898  0.43631  1.0000
  Fe  Fe39      1.0  0.89280  0.41821  0.41717  1.0000
  S   S78       1.0  0.88927  0.38887  0.39175  1.0000
  S   S79       1.0  0.86570  0.40266  0.45787  1.0000
  Fe  Fe40      1.0  0.85405  0.40315  0.36517  1.0000
  S   S80       1.0  0.78988  0.37264  0.34385  1.0000
  S   S81       1.0  0.85026  0.42958  0.39196  1.0000
  C   C194      1.0  0.89766  0.41689  0.48465  1.0000
  Fe  Fe41      1.0  0.93024  0.45995  0.37388  1.0000
  H   H317      1.0  0.96255  0.01557  0.32456  1.0000
  H   H318      1.0  0.51172  0.38215  0.31406  1.0000
  C   C195      1.0  0.50139  0.43447  0.30017  1.0000
  C   C196      1.0  0.65817  0.38081  0.31886  1.0000
  C   C197      1.0  0.70228  0.40252  0.32734  1.0000
  C   C198      1.0  0.74220  0.40008  0.33611  1.0000
  C   C199      1.0  0.73796  0.37586  0.33646  1.0000
  C   C200      1.0  0.69309  0.35401  0.32873  1.0000
  C   C201      1.0  0.65325  0.35644  0.32005  1.0000
  H   H319      1.0  0.70608  0.42138  0.32668  1.0000
  H   H320      1.0  0.77665  0.41701  0.34210  1.0000
  H   H321      1.0  0.68938  0.33516  0.32923  1.0000
  H   H322      1.0  0.61883  0.33946  0.31415  1.0000
  H   H323      1.0  0.93668  0.38317  0.47768  1.0000
  H   H324      1.0  0.89521  0.09269  0.32700  1.0000
  C   C202      1.0  0.97010  0.36951  0.34589  1.0000
  Fe  Fe42      1.0  0.56013  0.35465  0.27987  1.0000
  C   C203      1.0  0.94703  0.44003  0.48306  1.0000
  C   C204      1.0  0.96143  0.34780  0.33329  1.0000
  C   C205      1.0  0.93786  0.10184  0.32754  1.0000
  S   S82       1.0  0.93110  0.43420  0.34532  1.0000
  H   H325      1.0  0.93484  0.04949  0.35534  1.0000
  H   H326      1.0  0.93763  0.37114  0.35192  1.0000
  N   N18       1.0  0.49317  0.40844  0.29667  1.0000
  H   H327      1.0  0.96201  0.36249  0.48087  1.0000
  H   H328      1.0  0.95534  0.12293  0.33078  1.0000
  C   C206      1.0  0.77625  0.37411  0.27432  1.0000
  H   H329      1.0  0.92220  0.33274  0.32978  1.0000
  H   H330      1.0  0.81581  0.37801  0.26961  1.0000
  C   C207      1.0  0.51700  0.40908  0.27190  1.0000
  S   S83       1.0  0.93233  0.99910  0.37670  1.0000
  C   C208      1.0  0.94809  0.36866  0.43292  1.0000
  C   C209      1.0  0.97195  0.44989  0.50480  1.0000
  H   H331      1.0  0.94517  0.05947  0.32278  1.0000
  H   H332      1.0  0.75523  0.35636  0.28774  1.0000
  S   S84       1.0  0.55610  0.31788  0.27027  1.0000
  C   C210      1.0  0.92763  0.06059  0.34092  1.0000
  S   S85       1.0  0.97246  0.45076  0.40109  1.0000
  C   C211      1.0  0.51758  0.40181  0.31606  1.0000
  H   H333      1.0  0.93524  0.07834  0.38613  1.0000
  H   H334      1.0  0.96878  0.41620  0.44148  1.0000
  C   C212      1.0  0.92679  0.08853  0.37130  1.0000
  N   N19       1.0  0.94975  0.08812  0.34669  1.0000
  H   H335      1.0  0.67224  0.34816  0.27185  1.0000
  H   H336      1.0  0.88478  0.04996  0.33994  1.0000
  H   H337      1.0  0.51097  0.38970  0.26852  1.0000
  H   H338      1.0  0.70003  0.38299  0.26870  1.0000
  C   C213      1.0  0.97212  0.38238  0.47394  1.0000
  H   H339      1.0  0.50102  0.40135  0.33504  1.0000
  H   H340      1.0  0.94259  0.10901  0.37624  1.0000
  H   H341      1.0  0.97519  0.38722  0.29129  1.0000
  H   H342      1.0  0.91342  0.47802  0.29350  1.0000
  H   H343      1.0  0.48325  0.43994  0.28583  1.0000
  Fe  Fe43      1.0  0.77860  0.25759  0.74518  1.0000
  S   S86       1.0  0.84425  0.28758  0.71763  1.0000
  C   C214      1.0  0.75027  0.11997  0.73592  1.0000
  S   S87       1.0  0.73619  0.21505  0.73816  1.0000
  H   H344      1.0  0.63332  0.07401  0.72554  1.0000
  H   H345      1.0  0.84211  0.17322  0.73115  1.0000
  S   S88       1.0  0.75459  0.10218  0.71218  1.0000
  C   C215      1.0  0.81728  0.98914  0.63988  1.0000
  H   H346      1.0  0.95337  0.41380  0.71366  1.0000
  H   H347      1.0  0.76632  0.30089  0.72490  1.0000
  S   S89       1.0  0.68620  0.03084  0.70288  1.0000
  S   S90       1.0  0.71605  0.99211  0.73136  1.0000
  C   C216      1.0  0.83377  0.30989  0.70134  1.0000
  C   C217      1.0  0.73244  0.13654  0.73063  1.0000
  H   H348      1.0  0.85350  0.22576  0.71520  1.0000
  H   H349      1.0  0.74911  0.33026  0.69994  1.0000
  H   H350      1.0  0.71853  0.13680  0.71272  1.0000
  C   C218      1.0  0.54682  0.15874  0.74358  1.0000
  C   C219      1.0  0.89566  0.36561  0.73790  1.0000
  H   H351      1.0  0.57524  0.04964  0.71259  1.0000
  H   H352      1.0  0.71001  0.26671  0.63915  1.0000
  C   C220      1.0  0.69600  0.27253  0.65554  1.0000
  Fe  Fe44      1.0  0.74388  0.01897  0.69643  1.0000
  S   S91       1.0  0.76753  0.01174  0.65904  1.0000
  H   H353      1.0  0.73070  0.29000  0.66214  1.0000
  H   H354      1.0  0.67032  0.27902  0.64905  1.0000
  S   S92       1.0  0.59493  0.19086  0.73124  1.0000
  H   H355      1.0  0.60210  0.21108  0.68016  1.0000
  C   C221      1.0  0.86797  0.32560  0.68075  1.0000
  H   H356      1.0  0.51239  0.99437  0.68511  1.0000
  N   N20       1.0  0.66857  0.25078  0.67533  1.0000
  C   C222      1.0  0.62380  0.22776  0.66556  1.0000
  H   H357      1.0  0.59565  0.23249  0.65888  1.0000
  H   H358      1.0  0.62893  0.24327  0.71173  1.0000
  Fe  Fe45      1.0  0.74830  0.06395  0.72211  1.0000
  H   H359      1.0  0.85023  0.46276  0.72786  1.0000
  H   H360      1.0  0.95557  0.37816  0.69479  1.0000
  H   H361      1.0  0.63656  0.22060  0.64982  1.0000
  H   H362      1.0  0.68498  0.22685  0.69845  1.0000
  H   H363      1.0  0.56023  0.08431  0.69763  1.0000
  C   C223      1.0  0.97134  0.37511  0.71180  1.0000
  C   C224      1.0  0.70478  0.24353  0.68387  1.0000
  C   C225      1.0  0.64957  0.25921  0.69641  1.0000
  S   S93       1.0  0.80811  0.05403  0.71283  1.0000
  H   H364      1.0  0.73848  0.26018  0.69192  1.0000
  H   H365      1.0  0.72055  0.23746  0.66839  1.0000
  H   H366      1.0  0.87297  0.19273  0.70240  1.0000
  H   H367      1.0  0.48801  0.06667  0.74509  1.0000
  H   H368      1.0  0.95645  0.41658  0.74667  1.0000
  H   H369      1.0  0.88211  0.34446  0.74086  1.0000
  N   N21       1.0  0.56513  0.07504  0.73572  1.0000
  C   C226      1.0  0.81583  0.34423  0.67363  1.0000
  H   H370      1.0  0.62186  0.26465  0.69069  1.0000
  H   H371      1.0  0.68216  0.27652  0.70428  1.0000
  H   H372      1.0  0.82325  0.98216  0.71453  1.0000
  C   C227      1.0  0.57592  0.09427  0.71481  1.0000
  H   H373      1.0  0.83514  0.38605  0.50958  1.0000
  C   C228      1.0  0.82149  0.46540  0.67276  1.0000
  H   H374      1.0  0.71946  0.16572  0.74393  1.0000
  H   H375      1.0  0.90117  0.98615  0.67345  1.0000
  N   N22       1.0  0.90492  0.99635  0.71122  1.0000
  N   N23       1.0  0.95308  0.38243  0.73403  1.0000
  C   C229      1.0  0.50812  0.99257  0.70521  1.0000
  H   H376      1.0  0.86198  0.00960  0.69204  1.0000
  C   C230      1.0  0.94763  0.43694  0.52833  1.0000
  S   S94       1.0  0.72660  0.47931  0.71550  1.0000
  H   H377      1.0  0.86204  0.47417  0.59535  1.0000
  H   H378      1.0  0.62874  0.10313  0.75535  1.0000
  C   C231      1.0  0.86185  0.00084  0.71058  1.0000
  H   H379      1.0  0.95902  0.35410  0.71370  1.0000
  H   H380      1.0  0.61852  0.10856  0.71058  1.0000
  H   H381      1.0  0.95772  0.03067  0.68676  1.0000
  H   H382      1.0  0.90083  0.32412  0.67511  1.0000
  C   C232      1.0  0.59029  0.06054  0.72938  1.0000
  H   H383      1.0  0.55768  0.10564  0.71907  1.0000
  H   H384      1.0  0.88164  0.45468  0.55970  1.0000
  C   C233      1.0  0.87333  0.40398  0.50818  1.0000
  C   C234      1.0  0.87961  0.18993  0.72199  1.0000
  H   H385      1.0  0.83936  0.00692  0.62757  1.0000
  H   H386      1.0  0.94478  0.23986  0.70302  1.0000
  H   H387      1.0  0.82117  0.20586  0.74366  1.0000
  C   C235      1.0  0.78232  0.32897  0.69456  1.0000
  C   C236      1.0  0.50861  0.14147  0.72868  1.0000
  H   H388      1.0  0.86458  0.01443  0.72462  1.0000
  H   H389      1.0  0.58293  0.04581  0.74474  1.0000
  C   C237      1.0  0.79167  0.31210  0.70855  1.0000
  H   H390      1.0  0.57616  0.99076  0.70834  1.0000
  H   H391      1.0  0.87880  0.40386  0.54792  1.0000
  S   S95       1.0  0.94498  0.40562  0.62115  1.0000
  H   H392      1.0  0.74799  0.44256  0.69515  1.0000
  Fe  Fe46      1.0  0.87307  0.40177  0.63940  1.0000
  S   S96       1.0  0.91388  0.43101  0.66726  1.0000
  S   S97       1.0  0.80138  0.36382  0.65543  1.0000
  Fe  Fe47      1.0  0.92162  0.46058  0.63821  1.0000
  S   S98       1.0  0.87377  0.43088  0.61181  1.0000
  H   H393      1.0  0.88514  0.35449  0.65080  1.0000
  C   C238      1.0  0.95526  0.02158  0.70551  1.0000
  Fe  Fe48      1.0  0.66480  0.00774  0.73975  1.0000
  C   C239      1.0  0.85925  0.34289  0.66702  1.0000
  C   C240      1.0  0.89799  0.41401  0.52995  1.0000
  C   C241      1.0  0.77958  0.46211  0.68831  1.0000
  H   H394      1.0  0.82208  0.44843  0.66765  1.0000
  H   H395      1.0  0.87732  0.36775  0.72148  1.0000
  C   C242      1.0  0.54457  0.99076  0.71836  1.0000
  C   C243      1.0  0.50826  0.05638  0.74045  1.0000
  C   C244      1.0  0.77944  0.98645  0.65775  1.0000
  H   H396      1.0  0.96099  0.03590  0.71928  1.0000
  Fe  Fe49      1.0  0.94996  0.43763  0.59582  1.0000
  H   H397      1.0  0.50906  0.14786  0.70965  1.0000
  C   C245      1.0  0.73365  0.15323  0.74817  1.0000
  H   H398      1.0  0.49132  0.04540  0.72390  1.0000
  C   C246      1.0  0.53912  0.98809  0.74431  1.0000
  C   C247      1.0  0.96943  0.41027  0.73031  1.0000
  H   H399      1.0  0.90785  0.18363  0.72182  1.0000
  Fe  Fe50      1.0  0.66427  0.21292  0.75350  1.0000
  C   C248      1.0  0.90345  0.98500  0.73620  1.0000
  H   H400      1.0  0.78925  0.46956  0.75298  1.0000
  C   C249      1.0  0.94847  0.23552  0.72273  1.0000
  C   C250      1.0  0.85956  0.22169  0.73453  1.0000
  Fe  Fe51      1.0  0.77678  0.02795  0.74833  1.0000
  H   H401      1.0  0.90742  0.99831  0.75078  1.0000
  N   N24       1.0  0.89806  0.21401  0.73510  1.0000
  H   H402      1.0  0.96331  0.25397  0.73218  1.0000
  H   H403      1.0  0.49846  0.04164  0.75621  1.0000
  H   H404      1.0  0.87174  0.23962  0.74449  1.0000
  H   H405      1.0  0.88037  0.37061  0.75444  1.0000
  C   C251      1.0  0.89101  0.47244  0.54788  1.0000
  H   H406      1.0  0.85483  0.46798  0.53962  1.0000
  H   H407      1.0  0.91964  0.47522  0.53244  1.0000
  C   C252      1.0  0.97587  0.37876  0.75604  1.0000
  C   C253      1.0  0.49686  0.98723  0.75707  1.0000
  H   H408      1.0  0.93563  0.98152  0.73737  1.0000
  S   S99       1.0  0.70574  0.25641  0.75684  1.0000
  C   C254      1.0  0.85861  0.34896  0.83296  1.0000
  C   C255      1.0  0.82064  0.33680  0.85310  1.0000
  S   S100      1.0  0.67097  0.20337  0.79308  1.0000
  C   C256      1.0  0.77610  0.31168  0.85148  1.0000
  Fe  Fe52      1.0  0.71962  0.24716  0.79511  1.0000
  S   S101      1.0  0.71276  0.26779  0.82749  1.0000
  H   H409      1.0  0.95596  0.47944  0.00598  1.0000
  S   S102      1.0  0.79500  0.25067  0.78363  1.0000
  H   H410      1.0  0.86038  0.47876  0.79413  1.0000
  H   H411      1.0  0.72363  0.98699  0.85246  1.0000
  C   C257      1.0  0.79628  0.38989  0.82731  1.0000
  C   C258      1.0  0.77098  0.13705  0.77636  1.0000
  S   S103      1.0  0.76642  0.17883  0.79065  1.0000
  H   H412      1.0  0.78705  0.13766  0.79384  1.0000
  S   S104      1.0  0.83117  0.02761  0.77482  1.0000
  C   C259      1.0  0.85208  0.33591  0.81134  1.0000
  C   C260      1.0  0.93158  0.44581  0.98483  1.0000
  H   H413      1.0  0.75210  0.35581  0.86778  1.0000
  C   C261      1.0  0.71326  0.38601  0.82844  1.0000
  C   C262      1.0  0.85851  0.99874  0.80242  1.0000
  H   H414      1.0  0.74684  0.30218  0.86710  1.0000
  H   H415      1.0  0.90618  0.47412  0.77671  1.0000
  Fe  Fe53      1.0  0.74520  0.20771  0.77790  1.0000
  H   H416      1.0  0.81783  0.38060  0.83261  1.0000
  C   C263      1.0  0.76949  0.29872  0.82974  1.0000
  H   H417      1.0  0.57425  0.16347  0.77994  1.0000
  H   H418      1.0  0.80398  0.39478  0.80689  1.0000
  C   C264      1.0  0.78217  0.47373  0.83951  1.0000
  H   H419      1.0  0.50491  0.11887  0.79720  1.0000
  H   H420      1.0  0.78232  0.10699  0.76318  1.0000
  H   H421      1.0  0.57799  0.07501  0.77437  1.0000
  C   C265      1.0  0.71835  0.34806  0.82209  1.0000
  H   H422      1.0  0.88590  0.01712  0.80981  1.0000
  S   S105      1.0  0.58534  0.98625  0.76088  1.0000
  C   C266      1.0  0.82692  0.99823  0.78432  1.0000
  N   N25       1.0  0.73998  0.37245  0.83498  1.0000
  H   H423      1.0  0.72284  0.35216  0.80158  1.0000
  H   H424      1.0  0.69011  0.35262  0.86860  1.0000
  H   H425      1.0  0.56782  0.10024  0.76337  1.0000
  C   C267      1.0  0.50600  0.12502  0.77800  1.0000
  H   H426      1.0  0.67326  0.00769  0.84094  1.0000
  H   H427      1.0  0.80253  0.30115  0.79279  1.0000
  H   H428      1.0  0.72868  0.40446  0.83801  1.0000
  H   H429      1.0  0.67620  0.33407  0.82789  1.0000
  H   H430      1.0  0.67069  0.37343  0.83401  1.0000
  H   H431      1.0  0.92980  0.45536  0.96793  1.0000
  H   H432      1.0  0.73845  0.33766  0.82624  1.0000
  S   S106      1.0  0.90397  0.40260  0.95801  1.0000
  C   C268      1.0  0.80757  0.31092  0.80967  1.0000
  H   H433      1.0  0.82588  0.34661  0.86998  1.0000
  C   C269      1.0  0.54560  0.15032  0.76819  1.0000
  H   H434      1.0  0.71859  0.39144  0.80812  1.0000
  H   H435      1.0  0.74778  0.38390  0.87240  1.0000
  H   H436      1.0  0.86738  0.19235  0.77088  1.0000
  Fe  Fe54      1.0  0.91234  0.41952  0.91832  1.0000
  S   S107      1.0  0.93075  0.45994  0.90662  1.0000
  H   H437      1.0  0.81381  0.40864  0.83638  1.0000
  Fe  Fe55      1.0  0.91562  0.40596  0.86401  1.0000
  S   S108      1.0  0.93528  0.44554  0.84873  1.0000
  S   S109      1.0  0.91349  0.38091  0.83361  1.0000
  Fe  Fe56      1.0  0.87456  0.44024  0.87766  1.0000
  S   S110      1.0  0.80845  0.44414  0.86667  1.0000
  S   S111      1.0  0.85116  0.39941  0.89140  1.0000
  H   H438      1.0  0.88140  0.34516  0.79579  1.0000
  C   C270      1.0  0.67764  0.00333  0.82151  1.0000
  H   H439      1.0  0.74263  0.45695  0.84293  1.0000
  C   C271      1.0  0.73211  0.36589  0.86212  1.0000
  C   C272      1.0  0.91920  0.41994  0.98515  1.0000
  H   H440      1.0  0.71399  0.02082  0.81223  1.0000
  C   C273      1.0  0.75471  0.15428  0.77070  1.0000
  H   H441      1.0  0.96401  0.35792  0.75952  1.0000
  S   S112      1.0  0.72363  0.04168  0.75947  1.0000
  H   H442      1.0  0.64452  0.00129  0.81174  1.0000
  H   H443      1.0  0.71880  0.99084  0.78419  1.0000
  C   C274      1.0  0.76826  0.11968  0.75907  1.0000
  C   C275      1.0  0.90453  0.20888  0.76118  1.0000
  H   H444      1.0  0.91667  0.22630  0.77194  1.0000
  C   C276      1.0  0.82290  0.47292  0.84933  1.0000
  H   H445      1.0  0.83744  0.45257  0.77403  1.0000
  H   H446      1.0  0.49222  0.98497  0.77714  1.0000
  C   C277      1.0  0.86896  0.47329  0.77591  1.0000
  S   S113      1.0  0.97473  0.42196  0.89197  1.0000
  H   H447      1.0  0.76223  0.00085  0.82327  1.0000
  H   H448      1.0  0.96321  0.38433  0.77315  1.0000
  H   H449      1.0  0.93396  0.20348  0.76241  1.0000
  C   C278      1.0  0.72556  0.98351  0.83251  1.0000
  C   C279      1.0  0.58584  0.08898  0.75819  1.0000
  C   C280      1.0  0.94608  0.45935  0.00647  1.0000
  H   H450      1.0  0.81458  0.95900  0.18575  1.0000
  S   S114      1.0  0.48361  0.82289  0.22379  1.0000
  Fe  Fe57      1.0  0.94357  0.94018  0.07478  1.0000
  S   S115      1.0  0.60073  0.84412  0.24332  1.0000
  H   H451      1.0  0.96900  0.50759  0.24150  1.0000
  H   H452      1.0  0.54473  0.80034  0.16969  1.0000
  H   H453      1.0  0.73199  0.95809  0.18955  1.0000
  Fe  Fe58      1.0  0.56376  0.85998  0.21977  1.0000
  H   H454      1.0  0.59272  0.82856  0.18397  1.0000
  S   S116      1.0  0.60100  0.88170  0.18208  1.0000
  C   C281      1.0  0.56985  0.80673  0.18537  1.0000
  Fe  Fe59      1.0  0.51947  0.80829  0.24938  1.0000
  H   H455      1.0  0.59635  0.75882  0.18662  1.0000
  H   H456      1.0  0.75928  0.97582  0.12118  1.0000
  C   C282      1.0  0.63841  0.80616  0.16154  1.0000
  S   S117      1.0  0.78838  0.87578  0.13590  1.0000
  H   H457      1.0  0.54665  0.75990  0.17122  1.0000
  H   H458      1.0  0.72145  0.88947  0.11374  1.0000
  S   S118      1.0  0.92992  0.90810  0.10308  1.0000
  C   C283      1.0  0.74241  0.88191  0.14898  1.0000
  C   C284      1.0  0.71275  0.88698  0.13370  1.0000
  C   C285      1.0  0.67002  0.88736  0.14411  1.0000
  C   C286      1.0  0.65670  0.88266  0.16982  1.0000
  C   C287      1.0  0.68787  0.87883  0.18519  1.0000
  C   C288      1.0  0.73028  0.87816  0.17477  1.0000
  H   H459      1.0  0.64630  0.89054  0.13212  1.0000
  H   H460      1.0  0.67924  0.87625  0.20507  1.0000
  H   H461      1.0  0.75314  0.87420  0.18664  1.0000
  H   H462      1.0  0.86607  0.91957  0.02513  1.0000
  H   H463      1.0  0.66063  0.82705  0.20566  1.0000
  S   S119      1.0  0.54508  0.87810  0.25077  1.0000
  N   N26       1.0  0.60409  0.79637  0.18499  1.0000
  H   H464      1.0  0.61131  0.79803  0.22430  1.0000
  S   S120      1.0  0.91295  0.94095  0.14559  1.0000
  H   H465      1.0  0.66272  0.79793  0.20656  1.0000
  H   H466      1.0  0.66259  0.82800  0.15939  1.0000
  H   H467      1.0  0.54563  0.75938  0.20441  1.0000
  Fe  Fe60      1.0  0.92897  0.97087  0.11488  1.0000
  C   C289      1.0  0.77917  0.96659  0.12912  1.0000
  C   C290      1.0  0.63613  0.80524  0.20630  1.0000
  H   H468      1.0  0.61560  0.79961  0.14507  1.0000
  Fe  Fe61      1.0  0.86433  0.91145  0.11938  1.0000
  S   S121      1.0  0.87433  0.94138  0.08965  1.0000
  H   H469      1.0  0.54397  0.79994  0.20292  1.0000
  C   C291      1.0  0.57182  0.76734  0.18683  1.0000
  H   H470      1.0  0.78748  0.93544  0.16291  1.0000
  H   H471      1.0  0.70621  0.93568  0.16591  1.0000
  H   H472      1.0  0.70944  0.96604  0.16259  1.0000
  H   H473      1.0  0.81846  0.97605  0.11877  1.0000
  C   C292      1.0  0.73046  0.95683  0.16911  1.0000
  H   H474      1.0  0.75702  0.94553  0.12518  1.0000
  H   H475      1.0  0.90584  0.49891  0.25479  1.0000
  C   C293      1.0  0.80965  0.95681  0.16559  1.0000
  C   C294      1.0  0.94825  0.51400  0.25395  1.0000
  S   S122      1.0  0.50091  0.76694  0.24951  1.0000
  N   N27       1.0  0.78314  0.96948  0.15607  1.0000
  H   H476      1.0  0.66575  0.79928  0.16079  1.0000
  H   H477      1.0  0.95461  0.53249  0.24487  1.0000
  H   H478      1.0  0.84899  0.96558  0.15568  1.0000
  S   S123      1.0  0.97563  0.94343  0.03469  1.0000
  C   C295      1.0  0.88936  0.92530  0.00751  1.0000
  H   H479      1.0  0.87022  0.85297  0.27344  1.0000
  S   S124      1.0  0.97450  0.95319  0.40755  1.0000
  H   H480      1.0  0.96810  0.75177  0.27212  1.0000
  C   C296      1.0  0.89410  0.86511  0.32001  1.0000
  H   H481      1.0  0.91423  0.85443  0.32227  1.0000
  H   H482      1.0  0.85175  0.85020  0.31970  1.0000
  H   H483      1.0  0.92982  0.70178  0.30568  1.0000
  H   H484      1.0  0.90648  0.73355  0.29033  1.0000
  Fe  Fe62      1.0  0.57665  0.85957  0.27483  1.0000
  S   S125      1.0  0.62243  0.88418  0.30533  1.0000
  N   N28       1.0  0.48196  0.87698  0.33205  1.0000
  Fe  Fe63      1.0  0.89933  0.91696  0.42336  1.0000
  S   S126      1.0  0.90236  0.89136  0.39498  1.0000
  S   S127      1.0  0.88051  0.90033  0.46383  1.0000
  Fe  Fe64      1.0  0.85802  0.90314  0.37183  1.0000
  S   S128      1.0  0.79937  0.87258  0.34830  1.0000
  H   H485      1.0  0.96843  0.87445  0.37011  1.0000
  C   C297      1.0  0.91101  0.91845  0.48929  1.0000
  C   C298      1.0  0.88519  0.89582  0.29432  1.0000
  Fe  Fe65      1.0  0.92397  0.95995  0.38375  1.0000
  S   S129      1.0  0.94797  0.50057  0.36315  1.0000
  S   S130      1.0  0.49927  0.82201  0.28328  1.0000
  H   H486      1.0  0.95241  0.95640  0.46881  1.0000
  C   C299      1.0  0.67255  0.88121  0.31646  1.0000
  C   C300      1.0  0.70525  0.89900  0.33292  1.0000
  C   C301      1.0  0.74476  0.89679  0.34257  1.0000
  C   C302      1.0  0.75134  0.87654  0.33603  1.0000
  C   C303      1.0  0.71882  0.85883  0.31946  1.0000
  C   C304      1.0  0.67967  0.86121  0.30960  1.0000
  H   H487      1.0  0.70001  0.91454  0.33829  1.0000
  H   H488      1.0  0.76963  0.91054  0.35532  1.0000
  H   H489      1.0  0.72356  0.84305  0.31442  1.0000
  H   H490      1.0  0.65449  0.84732  0.29705  1.0000
  C   C305      1.0  0.95600  0.49294  0.29092  1.0000
  C   C306      1.0  0.94812  0.74940  0.29082  1.0000
  C   C307      1.0  0.97060  0.71880  0.30560  1.0000
  N   N29       1.0  0.91531  0.88335  0.29731  1.0000
  H   H491      1.0  0.50529  0.90973  0.30558  1.0000
  C   C308      1.0  0.97054  0.90379  0.29945  1.0000
  C   C309      1.0  0.91141  0.86863  0.27550  1.0000
  S   S131      1.0  0.92998  0.93836  0.35242  1.0000
  C   C310      1.0  0.94447  0.73975  0.33490  1.0000
  C   C311      1.0  0.94514  0.94574  0.48666  1.0000
  H   H492      1.0  0.95297  0.53053  0.31346  1.0000
  H   H493      1.0  0.89779  0.51427  0.29586  1.0000
  H   H494      1.0  0.51405  0.85315  0.32715  1.0000
  N   N30       1.0  0.96724  0.51808  0.27894  1.0000
  C   C312      1.0  0.94081  0.52806  0.29424  1.0000
  H   H495      1.0  0.89850  0.87575  0.33696  1.0000
  H   H496      1.0  0.52553  0.91300  0.34969  1.0000
  C   C313      1.0  0.50119  0.89029  0.30677  1.0000
  Fe  Fe66      1.0  0.97354  0.92812  0.37759  1.0000
  H   H497      1.0  0.50666  0.88377  0.36898  1.0000
  H   H498      1.0  0.97502  0.48474  0.27982  1.0000
  H   H499      1.0  0.84309  0.88091  0.29317  1.0000
  S   S132      1.0  0.84812  0.92535  0.40164  1.0000
  H   H500      1.0  0.54009  0.89375  0.30102  1.0000
  H   H501      1.0  0.90282  0.72351  0.33550  1.0000
  H   H502      1.0  0.88731  0.90708  0.31046  1.0000
  C   C314      1.0  0.51974  0.89320  0.34968  1.0000
  H   H503      1.0  0.94571  0.75799  0.33906  1.0000
  H   H504      1.0  0.96228  0.83615  0.35150  1.0000
  H   H505      1.0  0.92710  0.88179  0.25802  1.0000
  H   H506      1.0  0.95007  0.54752  0.28626  1.0000
  H   H507      1.0  0.96206  0.73510  0.35015  1.0000
  H   H508      1.0  0.97049  0.49552  0.30971  1.0000
  H   H509      1.0  0.55860  0.89611  0.34469  1.0000
  N   N31       1.0  0.97256  0.74320  0.31051  1.0000
  H   H510      1.0  0.89978  0.90964  0.27734  1.0000
  H   H511      1.0  0.95012  0.76808  0.29363  1.0000
  H   H512      1.0  0.97519  0.91482  0.31615  1.0000
  H   H513      1.0  0.96744  0.89029  0.46357  1.0000
  H   H514      1.0  0.93382  0.85900  0.27717  1.0000
  H   H515      1.0  0.97267  0.90870  0.43574  1.0000
  S   S133      1.0  0.91543  0.49558  0.64427  1.0000
  H   H516      1.0  0.74012  0.62830  0.70704  1.0000
  H   H517      1.0  0.87499  0.88384  0.51491  1.0000
  H   H518      1.0  0.58679  0.51095  0.74271  1.0000
  C   C315      1.0  0.86215  0.49062  0.66365  1.0000
  C   C316      1.0  0.66286  0.57961  0.69975  1.0000
  C   C317      1.0  0.81930  0.50919  0.68605  1.0000
  C   C318      1.0  0.86082  0.51247  0.67025  1.0000
  H   H519      1.0  0.81845  0.52615  0.69084  1.0000
  H   H520      1.0  0.89208  0.53201  0.66317  1.0000
  C   C319      1.0  0.56170  0.51720  0.74991  1.0000
  H   H521      1.0  0.75370  0.88026  0.57257  1.0000
  Fe  Fe67      1.0  0.73866  0.51389  0.73575  1.0000
  Fe  Fe68      1.0  0.78111  0.57226  0.73661  1.0000
  S   S134      1.0  0.82017  0.60985  0.71196  1.0000
  H   H522      1.0  0.93108  0.97409  0.69267  1.0000
  H   H523      1.0  0.70267  0.63029  0.68368  1.0000
  S   S135      1.0  0.81844  0.54893  0.73887  1.0000
  S   S136      1.0  0.70287  0.53776  0.72960  1.0000
  H   H524      1.0  0.70066  0.58158  0.70259  1.0000
  H   H525      1.0  0.87203  0.60877  0.75579  1.0000
  C   C320      1.0  0.83618  0.63947  0.72441  1.0000
  C   C321      1.0  0.65825  0.59482  0.73976  1.0000
  H   H526      1.0  0.70056  0.64138  0.71378  1.0000
  S   S137      1.0  0.95077  0.97089  0.62157  1.0000
  C   C322      1.0  0.82670  0.96898  0.63782  1.0000
  H   H527      1.0  0.85601  0.97142  0.62398  1.0000
  H   H528      1.0  0.57415  0.57723  0.71466  1.0000
  H   H529      1.0  0.88571  0.94099  0.56939  1.0000
  C   C323      1.0  0.70220  0.62598  0.70390  1.0000
  H   H530      1.0  0.63106  0.55924  0.70661  1.0000
  S   S138      1.0  0.64297  0.65364  0.75043  1.0000
  S   S139      1.0  0.97103  0.87923  0.65465  1.0000
  H   H531      1.0  0.97623  0.51762  0.58461  1.0000
  H   H532      1.0  0.66134  0.58192  0.67937  1.0000
  H   H533      1.0  0.85462  0.94056  0.59853  1.0000
  H   H534      1.0  0.86356  0.96289  0.57297  1.0000
  C   C324      1.0  0.60850  0.59687  0.70759  1.0000
  Fe  Fe69      1.0  0.96040  0.91109  0.63941  1.0000
  Fe  Fe70      1.0  0.97317  0.94881  0.59657  1.0000
  C   C325      1.0  0.48776  0.52180  0.74567  1.0000
  H   H535      1.0  0.95064  0.48322  0.58551  1.0000
  N   N32       1.0  0.65795  0.59933  0.71274  1.0000
  C   C326      1.0  0.87292  0.49145  0.58239  1.0000
  H   H536      1.0  0.82241  0.89318  0.56958  1.0000
  C   C327      1.0  0.79199  0.89612  0.57810  1.0000
  H   H537      1.0  0.81179  0.94514  0.53669  1.0000
  H   H538      1.0  0.88666  0.49629  0.71543  1.0000
  C   C328      1.0  0.52134  0.51435  0.73627  1.0000
  C   C329      1.0  0.80842  0.64011  0.74558  1.0000
  H   H539      1.0  0.86610  0.96588  0.74110  1.0000
  Fe  Fe71      1.0  0.77004  0.75428  0.73811  1.0000
  H   H540      1.0  0.83433  0.92336  0.53353  1.0000
  C   C330      1.0  0.57679  0.64175  0.75671  1.0000
  C   C331      1.0  0.76200  0.92562  0.58243  1.0000
  H   H541      1.0  0.69308  0.59454  0.74416  1.0000
  C   C332      1.0  0.82135  0.66438  0.75425  1.0000
  S   S140      1.0  0.93521  0.92932  0.66714  1.0000
  H   H542      1.0  0.91774  0.53216  0.74319  1.0000
  Fe  Fe72      1.0  0.88776  0.93089  0.63799  1.0000
  S   S141      1.0  0.80597  0.91944  0.64971  1.0000
  S   S142      1.0  0.90631  0.90871  0.61146  1.0000
  H   H543      1.0  0.60633  0.59955  0.68734  1.0000
  S   S143      1.0  0.76796  0.78597  0.71589  1.0000
  H   H544      1.0  0.76041  0.92327  0.60308  1.0000
  S   S144      1.0  0.77020  0.71902  0.72635  1.0000
  N   N33       1.0  0.80277  0.92244  0.57039  1.0000
  C   C333      1.0  0.92601  0.91858  0.53330  1.0000
  C   C334      1.0  0.82259  0.48973  0.75539  1.0000
  H   H545      1.0  0.78582  0.83344  0.74068  1.0000
  C   C335      1.0  0.88259  0.48284  0.73132  1.0000
  H   H546      1.0  0.91921  0.48294  0.73063  1.0000
  H   H547      1.0  0.72117  0.96116  0.68726  1.0000
  C   C336      1.0  0.79721  0.94566  0.65318  1.0000
  H   H548      1.0  0.89902  0.66269  0.69598  1.0000
  H   H549      1.0  0.65810  0.61034  0.75008  1.0000
  C   C337      1.0  0.85391  0.94266  0.57812  1.0000
  H   H550      1.0  0.92451  0.70519  0.71251  1.0000
  C   C338      1.0  0.75928  0.94293  0.67108  1.0000
  C   C339      1.0  0.89189  0.68708  0.72168  1.0000
  C   C340      1.0  0.75093  0.96347  0.67364  1.0000
  H   H551      1.0  0.73614  0.92486  0.68291  1.0000
  C   C341      1.0  0.91508  0.85356  0.67218  1.0000
  C   C342      1.0  0.86859  0.85296  0.67333  1.0000
  C   C343      1.0  0.82379  0.83209  0.68684  1.0000
  C   C344      1.0  0.82526  0.81180  0.69940  1.0000
  C   C345      1.0  0.87201  0.81265  0.69879  1.0000
  C   C346      1.0  0.91686  0.83349  0.68509  1.0000
  H   H552      1.0  0.86681  0.86829  0.66338  1.0000
  H   H553      1.0  0.78769  0.83150  0.68728  1.0000
  H   H554      1.0  0.87340  0.79705  0.70845  1.0000
  H   H555      1.0  0.88705  0.88554  0.74643  1.0000
  H   H556      1.0  0.91892  0.90794  0.55114  1.0000
  C   C347      1.0  0.89934  0.97800  0.69255  1.0000
  H   H557      1.0  0.77694  0.62203  0.75518  1.0000
  H   H558      1.0  0.51561  0.50594  0.71853  1.0000
  H   H559      1.0  0.76948  0.94549  0.57748  1.0000
  C   C348      1.0  0.86353  0.68791  0.74240  1.0000
  H   H560      1.0  0.72276  0.91080  0.57696  1.0000
  H   H561      1.0  0.62355  0.57568  0.74732  1.0000
  S   S145      1.0  0.88390  0.71833  0.75419  1.0000
  C   C349      1.0  0.80355  0.92543  0.54308  1.0000
  H   H562      1.0  0.93286  0.61109  0.75090  1.0000
  C   C350      1.0  0.87755  0.66302  0.71241  1.0000
  H   H563      1.0  0.89087  0.51612  0.53700  1.0000
  C   C351      1.0  0.92565  0.51898  0.54563  1.0000
  C   C352      1.0  0.77848  0.48399  0.69508  1.0000
  H   H564      1.0  0.76569  0.91037  0.53648  1.0000
  H   H565      1.0  0.88800  0.50857  0.59388  1.0000
  H   H566      1.0  0.79086  0.86125  0.75438  1.0000
  H   H567      1.0  0.79123  0.89332  0.59867  1.0000
  H   H568      1.0  0.95277  0.83388  0.68422  1.0000
  H   H569      1.0  0.60441  0.61199  0.71658  1.0000
  H   H570      1.0  0.94184  0.53697  0.55592  1.0000
  C   C353      1.0  0.95949  0.50046  0.57316  1.0000
  H   H571      1.0  0.86157  0.95878  0.69599  1.0000
  C   C354      1.0  0.96081  0.94584  0.53057  1.0000
  C   C355      1.0  0.91493  0.62262  0.75485  1.0000
  C   C356      1.0  0.88453  0.86671  0.75075  1.0000
  H   H572      1.0  0.83663  0.48792  0.57496  1.0000
  C   C357      1.0  0.90131  0.90498  0.51273  1.0000
  N   N34       1.0  0.91221  0.49582  0.56227  1.0000
  N   N35       1.0  0.87230  0.49100  0.75522  1.0000
  H   H573      1.0  0.88162  0.85761  0.73289  1.0000
  H   H574      1.0  0.92592  0.63705  0.73859  1.0000
  H   H575      1.0  0.82385  0.50279  0.73997  1.0000
  H   H576      1.0  0.95538  0.52282  0.53031  1.0000
  Fe  Fe73      1.0  0.70357  0.69578  0.75553  1.0000
  H   H577      1.0  0.58608  0.67965  0.75704  1.0000
  H   H578      1.0  0.83400  0.81431  0.75647  1.0000
  C   C358      1.0  0.97019  0.95932  0.50717  1.0000
  C   C359      1.0  0.86534  0.92016  0.98508  1.0000
  H   H579      1.0  0.87841  0.87968  0.91395  1.0000
  C   C360      1.0  0.91593  0.61573  0.79900  1.0000
  C   C361      1.0  0.84285  0.51833  0.82146  1.0000
  H   H580      1.0  0.72946  0.96626  0.83129  1.0000
  H   H581      1.0  0.81363  0.49603  0.77298  1.0000
  H   H582      1.0  0.90548  0.49440  0.85265  1.0000
  H   H583      1.0  0.75615  0.82947  0.77141  1.0000
  S   S146      1.0  0.85643  0.54673  0.80355  1.0000
  S   S147      1.0  0.61757  0.53049  0.79104  1.0000
  H   H584      1.0  0.90868  0.52495  0.77620  1.0000
  H   H585      1.0  0.68512  0.95627  0.79300  1.0000
  C   C362      1.0  0.88370  0.51755  0.83130  1.0000
  H   H586      1.0  0.92308  0.53454  0.82829  1.0000
  H   H587      1.0  0.57940  0.68314  0.80544  1.0000
  S   S148      1.0  0.76484  0.56967  0.77771  1.0000
  Fe  Fe74      1.0  0.79436  0.54267  0.77965  1.0000
  C   C363      1.0  0.53518  0.53508  0.78242  1.0000
  N   N36       1.0  0.83952  0.84896  0.76882  1.0000
  H   H588      1.0  0.54059  0.54320  0.80028  1.0000
  C   C364      1.0  0.63155  0.95686  0.83386  1.0000
  Fe  Fe75      1.0  0.68795  0.53362  0.77110  1.0000
  H   H589      1.0  0.80374  0.81015  0.78712  1.0000
  C   C365      1.0  0.49545  0.53269  0.76855  1.0000
  S   S149      1.0  0.69794  0.73010  0.76424  1.0000
  H   H590      1.0  0.87308  0.60119  0.80113  1.0000
  S   S150      1.0  0.71604  0.50627  0.77690  1.0000
  H   H591      1.0  0.49183  0.66110  0.76836  1.0000
  C   C366      1.0  0.87383  0.49482  0.84506  1.0000
  H   H592      1.0  0.54120  0.66909  0.84903  1.0000
  H   H593      1.0  0.91667  0.66054  0.80006  1.0000
  S   S151      1.0  0.96823  0.92465  0.88241  1.0000
  N   N37       1.0  0.93102  0.63571  0.77812  1.0000
  H   H594      1.0  0.76023  0.49679  0.81851  1.0000
  C   C367      1.0  0.48836  0.60414  0.76509  1.0000
  H   H595      1.0  0.87340  0.82779  0.78193  1.0000
  Fe  Fe76      1.0  0.89697  0.92506  0.89441  1.0000
  H   H596      1.0  0.76008  0.93267  0.77663  1.0000
  H   H597      1.0  0.97250  0.94605  0.94392  1.0000
  Fe  Fe77      1.0  0.91696  0.89459  0.85692  1.0000
  S   S152      1.0  0.93629  0.92383  0.82494  1.0000
  S   S153      1.0  0.92597  0.86048  0.85146  1.0000
  C   C368      1.0  0.87540  0.83453  0.95438  1.0000
  Fe  Fe78      1.0  0.86834  0.92507  0.84071  1.0000
  H   H598      1.0  0.58297  0.63350  0.80936  1.0000
  C   C369      1.0  0.97304  0.94484  0.98395  1.0000
  S   S154      1.0  0.84464  0.89281  0.87059  1.0000
  H   H599      1.0  0.84901  0.81669  0.94483  1.0000
  C   C370      1.0  0.78762  0.95112  0.78385  1.0000
  S   S155      1.0  0.75259  0.70058  0.78668  1.0000
  H   H600      1.0  0.91514  0.66519  0.76725  1.0000
  S   S156      1.0  0.73666  0.74886  0.82933  1.0000
  H   H601      1.0  0.91296  0.88418  0.96581  1.0000
  Fe  Fe79      1.0  0.75369  0.73730  0.79271  1.0000
  H   H602      1.0  0.86196  0.63663  0.78484  1.0000
  C   C371      1.0  0.94910  0.94003  0.96152  1.0000
  C   C372      1.0  0.54140  0.61455  0.75940  1.0000
  H   H603      1.0  0.60438  0.69062  0.85957  1.0000
  H   H604      1.0  0.64202  0.70470  0.81623  1.0000
  C   C373      1.0  0.68322  0.97405  0.79455  1.0000
  H   H605      1.0  0.66849  0.66231  0.82420  1.0000
  C   C374      1.0  0.87235  0.82995  0.84507  1.0000
  C   C375      1.0  0.82109  0.82281  0.85140  1.0000
  C   C376      1.0  0.77932  0.79773  0.84685  1.0000
  C   C377      1.0  0.78879  0.78005  0.83545  1.0000
  C   C378      1.0  0.84002  0.78742  0.82885  1.0000
  C   C379      1.0  0.88164  0.81216  0.83392  1.0000
  H   H606      1.0  0.81363  0.83640  0.86012  1.0000
  H   H607      1.0  0.73970  0.79211  0.85195  1.0000
  H   H608      1.0  0.84771  0.77380  0.82035  1.0000
  H   H609      1.0  0.92124  0.81754  0.82913  1.0000
  S   S157      1.0  0.91444  0.95734  0.86542  1.0000
  C   C380      1.0  0.50571  0.64812  0.76592  1.0000
  H   H610      1.0  0.76824  0.97378  0.76044  1.0000
  H   H611      1.0  0.67950  0.68755  0.84408  1.0000
  S   S158      1.0  0.86236  0.91928  0.93442  1.0000
  H   H612      1.0  0.82347  0.91047  0.98565  1.0000
  S   S159      1.0  0.81160  0.92202  0.81369  1.0000
  H   H613      1.0  0.95458  0.89997  0.93776  1.0000
  N   N38       1.0  0.60186  0.66495  0.83259  1.0000
  C   C381      1.0  0.85466  0.97554  0.81126  1.0000
  C   C382      1.0  0.61475  0.68423  0.81145  1.0000
  C   C383      1.0  0.65012  0.66716  0.83962  1.0000
  C   C384      1.0  0.81878  0.95160  0.80222  1.0000
  C   C385      1.0  0.79211  0.49630  0.82557  1.0000
  H   H614      1.0  0.88106  0.86627  0.80069  1.0000
  C   C386      1.0  0.89499  0.92742  0.96199  1.0000
  H   H615      1.0  0.63181  0.93852  0.83344  1.0000
  H   H616      1.0  0.83607  0.86345  0.94149  1.0000
  H   H617      1.0  0.63368  0.68076  0.79523  1.0000
  C   C387      1.0  0.56535  0.63817  0.82528  1.0000
  H   H618      1.0  0.79968  0.66493  0.77047  1.0000
  H   H619      1.0  0.64920  0.97087  0.78491  1.0000
  C   C388      1.0  0.57753  0.67044  0.85383  1.0000
  C   C389      1.0  0.79203  0.97440  0.77475  1.0000
  C   C390      1.0  0.93518  0.88161  0.95037  1.0000
  H   H620      1.0  0.81157  0.84876  0.80627  1.0000
  C   C391      1.0  0.86039  0.86155  0.92666  1.0000
  C   C392      1.0  0.55894  0.65860  0.75965  1.0000
  H   H621      1.0  0.55421  0.62301  0.84082  1.0000
  H   H622      1.0  0.96626  0.88009  0.95849  1.0000
  H   H623      1.0  0.64239  0.65358  0.85610  1.0000
  H   H624      1.0  0.90473  0.83158  0.96260  1.0000
  N   N39       1.0  0.90069  0.85839  0.93700  1.0000
  H   H625      1.0  0.85172  0.83585  0.96998  1.0000
  H   H626      1.0  0.87915  0.97621  0.82526  1.0000
  H   H627      1.0  0.52895  0.63600  0.81929  1.0000
  H   H628      1.0  0.59628  0.95330  0.82513  1.0000
  H   H629      1.0  0.83421  0.84479  0.91587  1.0000
  C   C393      1.0  0.83763  0.82424  0.77383  1.0000
  C   C394      1.0  0.84489  0.86168  0.79223  1.0000
  H   H630      1.0  0.56728  0.65630  0.87022  1.0000
  C   C395      1.0  0.56831  0.52728  0.77317  1.0000
  C   C396      1.0  0.90510  0.65014  0.78280  1.0000
  C   C397      1.0  0.93167  0.85594  0.91656  1.0000
  H   H631      1.0  0.95166  0.87375  0.90322  1.0000
  H   H632      1.0  0.84638  0.88044  0.78924  1.0000
  S   S160      1.0  0.82576  0.76328  0.76713  1.0000
  H   H633      1.0  0.62721  0.96022  0.85366  1.0000
  H   H634      1.0  0.90674  0.83901  0.90562  1.0000
  H   H635      1.0  0.92710  0.62478  0.81694  1.0000
  N   N40       1.0  0.67948  0.97942  0.82067  1.0000
  H   H636      1.0  0.93467  0.60438  0.79612  1.0000
  H   H637      1.0  0.92180  0.87149  0.75803  1.0000
  H   H638      1.0  0.95326  0.52006  0.75790  1.0000
  Fe  Fe80      1.0  0.81908  0.72559  0.75807  1.0000
  C   C398      1.0  0.91496  0.51824  0.75825  1.0000
  C   C399      1.0  0.94340  0.93758  0.00707  1.0000
  H   H639      1.0  0.96223  0.85326  0.92359  1.0000
  C   C400      1.0  0.79096  0.84307  0.75838  1.0000
  H   H640      1.0  0.55493  0.60137  0.75736  1.0000
