data_image0
_chemical_formula_structural       HC3H3SCSHSHSNH2FeS2FeSHFeCFeS3HS2CHC2HCH4CH2CSHFeNHC2HCH3CHSHC6H4C6H5NHFeH4SC6H10CHC2H4SHNH4CHCHCH2SC2H2CH2CH2CSH3C2HC2SHCH2CH2NC2H2FeNH7NHC2HCH4C2H2SHNCH2CHC2H2CH6CNH2C3H4CH5SH2N2H2SHFe2SHSCHFe2S2FeSH2S2FeS3FeSFeS2FeS2FeS2FeSFeS3FeS2FeS2FeSFeS4FeS2H2FeSFeSH2FeS2FeS2FeSFeS3FeS2FeS2FeSFeS3CH2CHSHFeHNFeS2HFeHS3H3C7H4C6H4C6H2CHC3SC7H4C6H4CH2C4H5C7H4C6H4C6H4C6H2NHC6H4C6H6C2H2FeH2NC6H6C4H3FeCHCSHSC2HFeH6CHCHSH3NC4H13NC4HFeH9C2H5NC4H13C3S2HSH3NH4SH2CHCNH5CH2C2HCH7FeC3H3C2HCH2FeC2H4NHSCH3FeH2NCHNCHCH2CH5CH2CHC2HSNCHCH3CH2CH2CHC2H3CH2SHCFe2HC3H2NFeNHCSCHCNH4SHC2HCSH2CHNSH4CSH2CHCFeCS2H2CH3FeHCH2SHS2HC2H2SH3CSC2FeHCH4C2H3C3H2SNH5CHCH3C3H5C2HC3HCH7CHCH2CSH3CSH4SCH2CH7SC2H8CH3FeC2HC2H2SCSFeS2FeSFeS3FeS2FeS2FeSFeS3FeS2FeS2FeSFeS5FeSFeSC2SC3H2FeSHSH4CH4FeS2FeSHCSHFeSFeS2FeCS2FeS2FeS2FeSFeS3FeS2FeS2FeSFeS4FeS2FeS2C6H4CHC3H2C6H4C6H4C6H6C6H4C6H4CH2C2H2NH3CFeH2C6H4C6H7SHSC7H4C6H4CNC2HC6H4C6H7CNC4H4CH7C2SC2HC2HCH2CH6CHSH7CFeHSFeNC3H15C2FeNC4H12NC4H13CHFeSH2CH2SCS2H2CNC4H12NC3H7NH7C2HCHFeCH2C2HCH2CH3SC2HFeHCSCH2NH4FeHCNC2HCNFeH5CH3SCH3CHC2HNH2CFeC2H2SFeSC2HNCH4SCHFeSCH7NCH2C2H3CHNFeCH2NHCH2CNH7CH2FeHCSH5SHCH2CH2SH2FeNSH2CH2CHCHCHCFeCH3CH2CH2CH4CHCH3CH5CFeSHFeS2FeSFeS3CH2SHNH3CH3SCSH2NCH2CH2C3SC4H2CH2C2FeH5SC6H4CHC4HNH3CHNC2SH2C5HC2HC4H6NH5CHC2SHCHFeHCHCHFeH3NH3NCH2SHC2H7CH2C2NCHSHSCHCHSH6SHCSC2H6C2H4CHCHCHCSH2CH2CHC2S2HC2H4FeH2FeCHSC2HCH2SC2H2C2HC2H3CH4C2H3NHCHC3H2CH7NH2NH8SH6C2HCSHCFeS4FeS2FeSFeSFeS3FeS2FeS2FeSFeS3FeS2FeS2FeSFeS3FeSCFeS2FeSFeHS2HCHFeCSH4SFeS2FeS2FeSFeS3FeS2FeCSH3CS3H3FeH2FeS2FeS2FeSFeS3FeHSFeS2Fe2S4HCH4C2HCH2C2SHC6H4C6H4C6H5CH2C4HC2H2FeH2C2HNC6H4C7H3C6H4C6H4CH3FeHC2H3CH4NC2HC6H4C6H4C2HSC2FeCHC6H4C6H4C6H8C6H4C6H4C6H4C3H2FeCFeNH3NCSH2CHSHCH3CNC4H10NC4H13C2N2C4H13FeHCH2CH7C2NC4H11CHC2H4NC4H4SCH6S2H3CH2NFeC3NFeHSNC4H12NC4H12NC4H12SH2CHCHFeCNH4CH2CH3NC2HCNC4H11CH8SH3C2NH2SH4SH2CHSCH4CH3CH4CH2SCH2SH2CH3CSCFeHCH3C2HCH5SH3SH3CHCHCS2H3C2H3SCHCH2NCH8FeHSHFeHSFeS2FeS2FeS2FeSFeS3FeS2FeSFeSFeS3FeS2FeS2FeSFeS3FeS2FeS2FeSFeS3FeS2FeS2FeHFeS3HCH3CHC2FeHCFeS2FeS2FeSFeS3FeS2FeSHSFeSHSFeSFeS4H2SFeHSH2CSCH2NH3SHSC4H3C3H2C6H4C6H4C6H3C6H4SCHCFeCSHSH3C6H5C3H3CH2C6H4C6H4C6H4C3HC7H2FeHC6H4C6H4C6H4C6H4C6H4CHC2HCHCHC3HC6H7CH2CFeH2CH2SH5SHC2H2C2H6FeH2C2H5C2H5C2H6NC4H12SH4NH6NCH2C2HCHC3H3CH5C2HNCH2CH3NHNC4HNH2SHCH2C2H4C2HC2H2CHCH2CNCSH3SHCNH2C2HFeH2SNCH2NHCHNC4H12NC4H9FeS2CSHNH3FeC2HSH6SH2CH4CHCH4N2H4NH3C2H2CH4NH8C2HC2FeCHC3H2NH4CH2FeSCH6CHCHCH2CHSH2CH2CSH2C3H5CH7CH2CSHSHCH4C2H3S2FeH4CNH3CH4CH4C3H3FeS2FeS2FeSFeS3FeSHFeSCFeSFeS5Fe2S2FeSCFeS2FeSFeHS2FeSFeS2FeS3CSCH2CFeS2FeS2FeSFeS3FeS2FeS2FeSFeS3FeS2FeS2FeCFeS4FeSFeS2FeS2FeH3FeS4CSFeHCH4SHSC2H3C2H2CH2C6H4C6H4C6H4C6H4C6H7CFeC2FeC6H4C6H5C6H4CSC6H2C6H4C6H4C6H4C6H6NC2H5NC4H12NC4H14NC4H12SH3C2H6S2H7SHCHNC4H14CH2CHCH3C2NCSHCHNC4H12CHSH2C2H2CH2CH3CH2NH6CH2CH2CH2CHC3SH3FeCHSHS2C2SH2C2HCH2NH2C2FeSFeHFeH5NHCHSHNC2HNCHCH2CHSHC2H3C2H2CH9SCH2CNCH4SHFeCH2C3H3CHSH3CSH3CHC2H3CH4CHCFeHCNCHC2NHCH3CHNCHSHFeCHNHSCH3CHCNC2H4CH4CNHNH3CH2C2HSCHC3H2CHCHNH3CHCFeH3C2H2C3H3C3H3CHCH4CHNH3FeC2HSH2NCH3SH2C2H4SHFeS2HFeS2FeS2FeHCHS2CH2FeH2CHCSH2CH3C3HCHCHC6H4CH4NC5HCH2FeSNH5SCHCH2CHCH2C2FeH5CHCHCH3C2H3C2H5NC3NC2H2SNCHNH2CH4C2HSCH3CFeHCH2SHCH2SFeSCH2C2HCHNHC2H4SH3FeSHCNH3FeH5CH2CH3CFeSCHSFeHCH3SH2NH2FeS2HSFeS3HCSHCSNHSC4H5C2HC3HCH2C3FeSC3H4NHCH3FeH4NCHSHC2H2CHCSHC5H3CSH4CH4CSNC6FeHCH4C2H2CHC2H3FeHSHC2SHCHC2H2C2HSHFeH2FeS2FeS4HS2FeSFeS2H2SFeS2FeH2SCFeS2FeS2FeSFeS3FeS2FeS2FeSFeS3FeS2H5FeSHSFeSFeS2FeS3FeS2FeS2FeSFeS3FeS2FeS2FeSFeS5HFeSH3SC5H2C6H4C6H4C6H4C7H5C6H4C6H8CHC6H4C6H4C6H4C6H4SC2H2C6H4C3HSC2HC6H5NC2FeNCHC2SH6C2H4NC4H12NC4H12NHC3NH3CHNCH2CH3NC2NC2NH6CHC3H7C2H3FeHFeH4SHCH8CHCHSH3CHNC4H13CH2NC4H12SH2C2HNH2CHCNH2CH6FeCH4CHFe2H2CFeHCHSFeHFeCHCHSHNCH3CH3SCH3C2H4CH2C3HCHSH5CH3CHC3HFeH3C3H2CHNHS2CHCHC2SHC2H6CHCH3CH3CHCNHCH5FeH2CH2SH9SCFeCSHCS2H2CH2SH2CH3SHCSC2H3FeHSFeS2HFeS3FeS2FeSHFeSFeS3FeS2FeS2FeSFeS3FeS2FeS2FeSFeS3CHSH2SFeS2FeS2FeSFeS3HSC2SCFeHFeH2CFeS2FeS2FeSFeS3FeS2HSFeSFeS4FeSFeS3HCHSCHCHNH6SCFeHC3H2C4H6CH3C2H4C6H4CH2CHC4H2C6H4C6H4C6H4C2HCHCHC2HC6H4C6H4C6H4C6H4C4HC6H2CHC6H4C6H4CHSC2H5C6HFeH2CHNH3C2HCNCH5SHN2C4H15NH4SCHFeCH4C2H3SHCNC4H12NC4H12NC4H5C2H4NH3SHNC2S2HFeCHSCH3SNH2C2NH3CH3CSH2FeSHCH9CHCFeCH4CFeH2CSC2H7SHCH2SHFeH2CH2C2SH2C3HC2HNHNCFeH7CHCHC3H2CH4C2H4CHFeH7CH4CSH2CH6CHCSCH2SCH2CH2CH4FeH4CFeC3H3CHCH6CH2CH4C2HFeCH3CSH3C2HCSNHCH5C3H2CH4SCNH3CH3CHCH3CH6NCH4CH2C2HCH3CHCHCH2CH2CFeS2FeS2FeSFeCS2H3CHSH2CH2CH2SFeS2FeH2SHFeS2FeS2FeSFeS3FeHSFeHS3CH2SHCHFeS2FeS2FeSFeS3HSNFeS2FeSFeS3FeS2FeS2HFeS3FeS2FeS2FeSFeS3HSC2S3CSHCNHSH2CH4C2HCH4CHC6H4C6H4C6H4CHC2HC6H2CHC6H4C6H4C6H5CHCHC6H6FeSNH2C2H5C3H2C3HNCH3SH2C3HCH2C6H4C6H5CH4CNHCHC6H2CHC6H6CNHFeC2HFeC6H3C2H3NC4H16SH6CHCH2SNC4H12NH2C3H8SH2NC5NCH4SH4SC3H5CNHCH3N2C4H12NC4H7SCH6CHSH3CHCHCH3SC3H4CFeCHCH4SH4C5H3CSCHC2HSHNH3CHCFeCFeCH3NC2SH7FeHCSH6C2HFeCHNC3FeSFeHCH2CH3FeC2H2CH4CH6CHSHFeSCHCN2CH7C2HCH2SHCH2CH5CH2CFeSHFeSHSHCHFeHCH8CHCHC2NH2FeH4SNHCH3CSH7CH5CHC2H2CHFeH
_chemical_formula_sum              "H3072 C1920 S768 N192 Fe384"
_cell_length_a       79.3307
_cell_length_b       79.5725
_cell_length_c       79.6907
_cell_angle_alpha    74.4725
_cell_angle_beta     74.5007
_cell_angle_gamma    74.5889

_space_group_name_H-M_alt    "P 1"
_space_group_IT_number       1

loop_
  _space_group_symop_operation_xyz
  'x, y, z'

loop_
  _atom_site_type_symbol
  _atom_site_label
  _atom_site_symmetry_multiplicity
  _atom_site_fract_x
  _atom_site_fract_y
  _atom_site_fract_z
  _atom_site_occupancy
  H   H1        1.0  0.09949  0.38424  0.02213  1.0000
  C   C1        1.0  0.00880  0.17097  0.47933  1.0000
  C   C2        1.0  0.02123  0.10477  0.31741  1.0000
  C   C3        1.0  0.23491  0.46244  0.03602  1.0000
  H   H2        1.0  0.11218  0.44198  0.12425  1.0000
  H   H3        1.0  0.03691  0.28749  0.16244  1.0000
  H   H4        1.0  0.05974  0.48585  0.19133  1.0000
  S   S1        1.0  0.13747  0.01151  0.28010  1.0000
  C   C4        1.0  0.15323  0.99900  0.23176  1.0000
  S   S2        1.0  0.01099  0.43397  0.13181  1.0000
  H   H5        1.0  0.01521  0.45993  0.05632  1.0000
  S   S3        1.0  0.16709  0.00056  0.49311  1.0000
  H   H6        1.0  0.10724  0.39852  0.03109  1.0000
  S   S4        1.0  0.07750  0.38162  0.99566  1.0000
  N   N1        1.0  0.00381  0.10551  0.33016  1.0000
  H   H7        1.0  0.03255  0.09838  0.32433  1.0000
  H   H8        1.0  0.23925  0.00101  0.19565  1.0000
  Fe  Fe1       1.0  0.06586  0.33582  0.05393  1.0000
  S   S5        1.0  0.08895  0.34890  0.03899  1.0000
  S   S6        1.0  0.06929  0.30623  0.05840  1.0000
  Fe  Fe2       1.0  0.04015  0.37039  0.05802  1.0000
  S   S7        1.0  0.06064  0.38667  0.04323  1.0000
  H   H9        1.0  0.14565  0.00221  0.35849  1.0000
  Fe  Fe3       1.0  0.06904  0.36835  0.02424  1.0000
  C   C5        1.0  0.21232  0.48949  0.03703  1.0000
  Fe  Fe4       1.0  0.07875  0.36618  0.05912  1.0000
  S   S8        1.0  0.09760  0.37596  0.06877  1.0000
  S   S9        1.0  0.04660  0.35389  0.03737  1.0000
  S   S10       1.0  0.05768  0.35116  0.07568  1.0000
  H   H10       1.0  0.13572  0.37004  0.99979  1.0000
  S   S11       1.0  0.03492  0.46462  0.11375  1.0000
  S   S12       1.0  0.06448  0.41914  0.13012  1.0000
  C   C6        1.0  0.01908  0.31232  0.05641  1.0000
  H   H11       1.0  0.00667  0.01444  0.36744  1.0000
  C   C7        1.0  0.01092  0.00191  0.37697  1.0000
  C   C8        1.0  0.02748  0.42805  0.04814  1.0000
  H   H12       1.0  0.03845  0.33517  0.15667  1.0000
  C   C9        1.0  0.01025  0.19603  0.40538  1.0000
  H   H13       1.0  0.18199  0.48912  0.00272  1.0000
  H   H14       1.0  0.01695  0.04364  0.35115  1.0000
  H   H15       1.0  0.04872  0.14145  0.47702  1.0000
  H   H16       1.0  0.01649  0.30829  0.18128  1.0000
  C   C10       1.0  0.06059  0.49290  0.17758  1.0000
  H   H17       1.0  0.00812  0.04979  0.45382  1.0000
  H   H18       1.0  0.02314  0.11837  0.31000  1.0000
  C   C11       1.0  0.15455  0.00765  0.37941  1.0000
  S   S13       1.0  0.01645  0.05011  0.31345  1.0000
  H   H19       1.0  0.01822  0.30528  0.04643  1.0000
  Fe  Fe5       1.0  0.02345  0.47601  0.13835  1.0000
  N   N2        1.0  0.17823  0.04340  0.44125  1.0000
  H   H20       1.0  0.01288  0.43320  0.04864  1.0000
  C   C12       1.0  0.04889  0.49123  0.16782  1.0000
  C   C13       1.0  0.01211  0.31679  0.16900  1.0000
  H   H21       1.0  0.20017  0.02405  0.45068  1.0000
  C   C14       1.0  0.18295  0.03855  0.42366  1.0000
  H   H22       1.0  0.06448  0.45743  0.16184  1.0000
  H   H23       1.0  0.13308  0.41211  0.01332  1.0000
  H   H24       1.0  0.20629  0.99887  0.23888  1.0000
  C   C15       1.0  0.03631  0.17591  0.41480  1.0000
  H   H25       1.0  0.21603  0.01195  0.19857  1.0000
  S   S14       1.0  0.02235  0.14727  0.45644  1.0000
  H   H26       1.0  0.12032  0.37669  0.02933  1.0000
  C   C16       1.0  0.08759  0.38802  0.08570  1.0000
  C   C17       1.0  0.09866  0.39376  0.09302  1.0000
  C   C18       1.0  0.09129  0.40337  0.10654  1.0000
  C   C19       1.0  0.07275  0.40779  0.11253  1.0000
  C   C20       1.0  0.06150  0.40232  0.10508  1.0000
  C   C21       1.0  0.06897  0.39212  0.09185  1.0000
  H   H27       1.0  0.11303  0.39049  0.08844  1.0000
  H   H28       1.0  0.10005  0.40735  0.11238  1.0000
  H   H29       1.0  0.04718  0.40536  0.10999  1.0000
  H   H30       1.0  0.06038  0.38732  0.08654  1.0000
  C   C22       1.0  0.03578  0.27797  0.10863  1.0000
  C   C23       1.0  0.04961  0.26822  0.09780  1.0000
  C   C24       1.0  0.05990  0.27704  0.08249  1.0000
  C   C25       1.0  0.05675  0.29568  0.07818  1.0000
  C   C26       1.0  0.04326  0.30551  0.08929  1.0000
  C   C27       1.0  0.03263  0.29665  0.10438  1.0000
  H   H31       1.0  0.05219  0.25378  0.10107  1.0000
  H   H32       1.0  0.07035  0.26939  0.07396  1.0000
  H   H33       1.0  0.04085  0.31989  0.08606  1.0000
  H   H34       1.0  0.02114  0.30201  0.06868  1.0000
  H   H35       1.0  0.00737  0.33078  0.17092  1.0000
  N   N3        1.0  0.23170  0.48213  0.03199  1.0000
  H   H36       1.0  0.03474  0.43204  0.03418  1.0000
  Fe  Fe6       1.0  0.00708  0.46181  0.11535  1.0000
  H   H37       1.0  0.10415  0.42206  0.00362  1.0000
  H   H38       1.0  0.23638  0.48376  0.05686  1.0000
  H   H39       1.0  0.15121  0.00532  0.21841  1.0000
  H   H40       1.0  0.16997  0.01895  0.45550  1.0000
  S   S15       1.0  0.01326  0.38379  0.07154  1.0000
  C   C28       1.0  0.06024  0.02065  0.34474  1.0000
  C   C29       1.0  0.04337  0.02844  0.35365  1.0000
  C   C30       1.0  0.02986  0.03770  0.34417  1.0000
  C   C31       1.0  0.03321  0.03931  0.32571  1.0000
  C   C32       1.0  0.05029  0.03218  0.31675  1.0000
  C   C33       1.0  0.06374  0.02285  0.32622  1.0000
  H   H41       1.0  0.04072  0.02715  0.36793  1.0000
  H   H42       1.0  0.06896  0.43666  0.15518  1.0000
  H   H43       1.0  0.05310  0.03368  0.30242  1.0000
  H   H44       1.0  0.07683  0.01747  0.31913  1.0000
  H   H45       1.0  0.14638  0.02099  0.37854  1.0000
  H   H46       1.0  0.15247  0.03637  0.44780  1.0000
  H   H47       1.0  0.06834  0.47379  0.13079  1.0000
  H   H48       1.0  0.01390  0.11013  0.35070  1.0000
  H   H49       1.0  0.02067  0.29203  0.14909  1.0000
  H   H50       1.0  0.02914  0.00091  0.34331  1.0000
  C   C34       1.0  0.01526  0.19386  0.43452  1.0000
  H   H51       1.0  0.13791  0.02174  0.24286  1.0000
  C   C35       1.0  0.00291  0.11593  0.34329  1.0000
  C   C36       1.0  0.03424  0.20773  0.40827  1.0000
  H   H52       1.0  0.06069  0.43259  0.04577  1.0000
  H   H53       1.0  0.04288  0.29516  0.13869  1.0000
  H   H54       1.0  0.14642  0.39028  0.01164  1.0000
  H   H55       1.0  0.08697  0.47684  0.14996  1.0000
  S   S16       1.0  0.12723  0.00319  0.33187  1.0000
  H   H56       1.0  0.03725  0.45962  0.04279  1.0000
  N   N4        1.0  0.03353  0.43466  0.06071  1.0000
  H   H57       1.0  0.08840  0.46773  0.11487  1.0000
  H   H58       1.0  0.04475  0.20606  0.41581  1.0000
  H   H59       1.0  0.02953  0.41328  0.05153  1.0000
  H   H60       1.0  0.01536  0.34121  0.13859  1.0000
  C   C37       1.0  0.15401  0.99695  0.36817  1.0000
  H   H61       1.0  0.22772  0.45768  0.02853  1.0000
  C   C38       1.0  0.03204  0.29674  0.15072  1.0000
  H   H62       1.0  0.18075  0.07061  0.43015  1.0000
  C   C39       1.0  0.00181  0.08723  0.33959  1.0000
  H   H63       1.0  0.19132  0.04219  0.46208  1.0000
  H   H64       1.0  0.01683  0.34218  0.06731  1.0000
  S   S17       1.0  0.07633  0.00742  0.35707  1.0000
  C   C40       1.0  0.23816  0.48869  0.01272  1.0000
  C   C41       1.0  0.07539  0.44632  0.15772  1.0000
  H   H65       1.0  0.07259  0.45341  0.12347  1.0000
  H   H66       1.0  0.02522  0.19148  0.44290  1.0000
  C   C42       1.0  0.24137  0.48790  0.04223  1.0000
  H   H67       1.0  0.04640  0.17304  0.42314  1.0000
  H   H68       1.0  0.24939  0.45642  0.03231  1.0000
  C   C43       1.0  0.11162  0.38853  0.02250  1.0000
  H   H69       1.0  0.04351  0.17516  0.40089  1.0000
  H   H70       1.0  0.05781  0.43263  0.06897  1.0000
  C   C44       1.0  0.01041  0.17964  0.49195  1.0000
  S   S18       1.0  0.02782  0.44938  0.15701  1.0000
  H   H71       1.0  0.05328  0.32022  0.14312  1.0000
  H   H72       1.0  0.02193  0.00370  0.38211  1.0000
  H   H73       1.0  0.01249  0.37733  0.03765  1.0000
  C   C45       1.0  0.05299  0.42803  0.05939  1.0000
  C   C46       1.0  0.20068  0.00840  0.48739  1.0000
  H   H74       1.0  0.20500  0.04570  0.44005  1.0000
  C   C47       1.0  0.13685  0.40162  0.00535  1.0000
  C   C48       1.0  0.22668  0.00366  0.20579  1.0000
  S   S19       1.0  0.02287  0.26652  0.12753  1.0000
  H   H75       1.0  0.03899  0.48310  0.17412  1.0000
  C   C49       1.0  0.04210  0.32110  0.15500  1.0000
  H   H76       1.0  0.16052  0.03705  0.46668  1.0000
  H   H77       1.0  0.08184  0.43949  0.16924  1.0000
  C   C50       1.0  0.10222  0.43757  0.13636  1.0000
  H   H78       1.0  0.23021  0.45708  0.05048  1.0000
  H   H79       1.0  0.05647  0.41325  0.06255  1.0000
  N   N5        1.0  0.00286  0.32629  0.06006  1.0000
  C   C51       1.0  0.19439  0.03865  0.44882  1.0000
  C   C52       1.0  0.14577  0.00830  0.24554  1.0000
  H   H80       1.0  0.03083  0.32673  0.12480  1.0000
  H   H81       1.0  0.01625  0.19551  0.39116  1.0000
  Fe  Fe7       1.0  0.03766  0.43801  0.13240  1.0000
  N   N6        1.0  0.08843  0.45286  0.14176  1.0000
  H   H82       1.0  0.22656  0.01419  0.48457  1.0000
  H   H83       1.0  0.16722  0.06685  0.45229  1.0000
  H   H84       1.0  0.10954  0.43012  0.14714  1.0000
  H   H85       1.0  0.10404  0.45859  0.15710  1.0000
  H   H86       1.0  0.23146  0.48427  0.00453  1.0000
  H   H87       1.0  0.03309  0.45990  0.06607  1.0000
  H   H88       1.0  0.02222  0.30420  0.11286  1.0000
  N   N7        1.0  0.12095  0.39587  0.00436  1.0000
  H   H89       1.0  0.04731  0.31260  0.16686  1.0000
  C   C53       1.0  0.16467  0.03359  0.45332  1.0000
  C   C54       1.0  0.21229  0.01814  0.48939  1.0000
  H   H90       1.0  0.17110  0.04213  0.41745  1.0000
  C   C55       1.0  0.17088  0.06279  0.43922  1.0000
  H   H91       1.0  0.01249  0.08040  0.34724  1.0000
  H   H92       1.0  0.22885  0.01177  0.21414  1.0000
  H   H93       1.0  0.18814  0.02392  0.42478  1.0000
  H   H94       1.0  0.20703  0.48510  0.05157  1.0000
  C   C56       1.0  0.07907  0.46236  0.12706  1.0000
  C   C57       1.0  0.16500  0.00072  0.39233  1.0000
  H   H95       1.0  0.19339  0.04542  0.41423  1.0000
  H   H96       1.0  0.15861  0.06679  0.43361  1.0000
  S   S20       1.0  0.16307  0.01230  0.40883  1.0000
  H   H97       1.0  0.02534  0.22109  0.40881  1.0000
  N   N8        1.0  0.02660  0.31542  0.15297  1.0000
  C   C58       1.0  0.02270  0.15728  0.47372  1.0000
  H   H98       1.0  0.10692  0.47045  0.13420  1.0000
  H   H99       1.0  0.04096  0.20778  0.39408  1.0000
  C   C59       1.0  0.02402  0.42820  0.07907  1.0000
  H   H100      1.0  0.02894  0.16484  0.41988  1.0000
  C   C60       1.0  0.02014  0.32709  0.13712  1.0000
  C   C61       1.0  0.02965  0.45437  0.05625  1.0000
  H   H101      1.0  0.01192  0.34539  0.03681  1.0000
  H   H102      1.0  0.20454  0.48540  0.02964  1.0000
  C   C62       1.0  0.09702  0.46518  0.14592  1.0000
  H   H103      1.0  0.00255  0.07897  0.33009  1.0000
  H   H104      1.0  0.02229  0.09681  0.30744  1.0000
  H   H105      1.0  0.00866  0.32293  0.13502  1.0000
  H   H106      1.0  0.03137  0.31797  0.05116  1.0000
  H   H107      1.0  0.09613  0.42796  0.13326  1.0000
  H   H108      1.0  0.07666  0.34437  0.00036  1.0000
  C   C63       1.0  0.03789  0.15200  0.48127  1.0000
  N   N9        1.0  0.02402  0.19339  0.41573  1.0000
  H   H109      1.0  0.11719  0.00008  0.38994  1.0000
  H   H110      1.0  0.19362  0.99856  0.22336  1.0000
  C   C64       1.0  0.00502  0.33582  0.07270  1.0000
  C   C65       1.0  0.14804  0.00010  0.26288  1.0000
  C   C66       1.0  0.18223  0.01314  0.49387  1.0000
  H   H111      1.0  0.00694  0.32659  0.08557  1.0000
  H   H112      1.0  0.02711  0.41336  0.08294  1.0000
  H   H113      1.0  0.02771  0.43343  0.08895  1.0000
  H   H114      1.0  0.00591  0.20684  0.43584  1.0000
  C   C67       1.0  0.10867  0.41133  0.99591  1.0000
  H   H115      1.0  0.09656  0.40745  0.99487  1.0000
  H   H116      1.0  0.20607  0.99699  0.48120  1.0000
  H   H117      1.0  0.00736  0.18327  0.44045  1.0000
  H   H118      1.0  0.00223  0.18552  0.41080  1.0000
  H   H119      1.0  0.00374  0.13003  0.33676  1.0000
  S   S21       1.0  0.00186  0.14685  0.41732  1.0000
  H   H120      1.0  0.00927  0.43252  0.08047  1.0000
  H   H121      1.0  0.05783  0.05923  0.56892  1.0000
  N   N10       1.0  0.21312  0.20379  0.63434  1.0000
  N   N11       1.0  0.06444  0.08387  0.56863  1.0000
  H   H122      1.0  0.07586  0.12848  0.61371  1.0000
  H   H123      1.0  0.23381  0.18584  0.64697  1.0000
  S   S22       1.0  0.22776  0.24692  0.56364  1.0000
  H   H124      1.0  0.20431  0.43133  0.86219  1.0000
  Fe  Fe8       1.0  0.19587  0.06717  0.55666  1.0000
  Fe  Fe9       1.0  0.07213  0.01520  0.64758  1.0000
  S   S23       1.0  0.18463  0.05294  0.58404  1.0000
  H   H125      1.0  0.23505  0.40767  0.80297  1.0000
  S   S24       1.0  0.19996  0.09453  0.55316  1.0000
  C   C68       1.0  0.22626  0.06137  0.59211  1.0000
  H   H126      1.0  0.24229  0.35311  0.89968  1.0000
  Fe  Fe10      1.0  0.22523  0.08895  0.66047  1.0000
  Fe  Fe11      1.0  0.19332  0.09365  0.69098  1.0000
  S   S25       1.0  0.19643  0.08906  0.66374  1.0000
  S   S26       1.0  0.16931  0.11354  0.70107  1.0000
  Fe  Fe12      1.0  0.20329  0.06005  0.67598  1.0000
  S   S27       1.0  0.19374  0.04484  0.66104  1.0000
  H   H127      1.0  0.13341  0.43568  0.73958  1.0000
  H   H128      1.0  0.22368  0.04761  0.59679  1.0000
  S   S28       1.0  0.19822  0.06451  0.70393  1.0000
  S   S29       1.0  0.12266  0.48649  0.78865  1.0000
  Fe  Fe13      1.0  0.09298  0.04080  0.62062  1.0000
  S   S30       1.0  0.09238  0.05730  0.63967  1.0000
  S   S31       1.0  0.10465  0.04924  0.59176  1.0000
  S   S32       1.0  0.07012  0.02904  0.66945  1.0000
  Fe  Fe14      1.0  0.06396  0.05434  0.64948  1.0000
  S   S33       1.0  0.04064  0.07583  0.65733  1.0000
  Fe  Fe15      1.0  0.09900  0.03081  0.65807  1.0000
  S   S34       1.0  0.11621  0.02731  0.67801  1.0000
  S   S35       1.0  0.06378  0.04058  0.62853  1.0000
  Fe  Fe16      1.0  0.13636  0.24468  0.62292  1.0000
  S   S36       1.0  0.13478  0.21853  0.61884  1.0000
  S   S37       1.0  0.14686  0.26692  0.60250  1.0000
  Fe  Fe17      1.0  0.12099  0.23703  0.66257  1.0000
  S   S38       1.0  0.11753  0.20964  0.66250  1.0000
  S   S39       1.0  0.11293  0.25402  0.68361  1.0000
  Fe  Fe18      1.0  0.14470  0.20734  0.64419  1.0000
  S   S40       1.0  0.16806  0.18441  0.64200  1.0000
  Fe  Fe19      1.0  0.10770  0.22232  0.63691  1.0000
  S   S41       1.0  0.08385  0.21548  0.63123  1.0000
  S   S42       1.0  0.14901  0.23326  0.64649  1.0000
  S   S43       1.0  0.10834  0.24987  0.63878  1.0000
  Fe  Fe20      1.0  0.07567  0.14146  0.54438  1.0000
  S   S44       1.0  0.04624  0.14314  0.54829  1.0000
  S   S45       1.0  0.09525  0.11795  0.53550  1.0000
  Fe  Fe21      1.0  0.07100  0.17617  0.55550  1.0000
  S   S46       1.0  0.04113  0.18126  0.55983  1.0000
  S   S47       1.0  0.08739  0.19426  0.55847  1.0000
  Fe  Fe22      1.0  0.04441  0.15227  0.57307  1.0000
  S   S48       1.0  0.02475  0.14542  0.59851  1.0000
  Fe  Fe23      1.0  0.04543  0.17174  0.53448  1.0000
  S   S49       1.0  0.02772  0.18609  0.51462  1.0000
  S   S50       1.0  0.07397  0.14775  0.57062  1.0000
  S   S51       1.0  0.07517  0.16943  0.52872  1.0000
  S   S52       1.0  0.11510  0.43785  0.79821  1.0000
  Fe  Fe24      1.0  0.21099  0.41381  0.71042  1.0000
  S   S53       1.0  0.19650  0.42819  0.73235  1.0000
  S   S54       1.0  0.19735  0.41339  0.68943  1.0000
  H   H129      1.0  0.23558  0.13173  0.86528  1.0000
  H   H130      1.0  0.02182  0.01580  0.60755  1.0000
  Fe  Fe25      1.0  0.21025  0.40435  0.74952  1.0000
  S   S55       1.0  0.19409  0.39270  0.77552  1.0000
  Fe  Fe26      1.0  0.22171  0.43788  0.72751  1.0000
  S   S56       1.0  0.22218  0.46576  0.72789  1.0000
  H   H131      1.0  0.19474  0.16182  0.56654  1.0000
  H   H132      1.0  0.22136  0.20369  0.65799  1.0000
  Fe  Fe27      1.0  0.16028  0.29022  0.73981  1.0000
  S   S57       1.0  0.13665  0.31308  0.74102  1.0000
  S   S58       1.0  0.16208  0.26538  0.72970  1.0000
  Fe  Fe28      1.0  0.18142  0.30813  0.75495  1.0000
  S   S59       1.0  0.15945  0.33247  0.75674  1.0000
  S   S60       1.0  0.20722  0.30679  0.76293  1.0000
  Fe  Fe29      1.0  0.14149  0.31282  0.76764  1.0000
  S   S61       1.0  0.11854  0.31682  0.79092  1.0000
  Fe  Fe30      1.0  0.15695  0.33039  0.73011  1.0000
  S   S62       1.0  0.15364  0.35296  0.70657  1.0000
  S   S63       1.0  0.16360  0.28842  0.76761  1.0000
  S   S64       1.0  0.18044  0.30759  0.72715  1.0000
  Fe  Fe31      1.0  0.09758  0.36763  0.87795  1.0000
  S   S65       1.0  0.12590  0.36466  0.86283  1.0000
  S   S66       1.0  0.07701  0.38604  0.86334  1.0000
  Fe  Fe32      1.0  0.10791  0.34381  0.91193  1.0000
  S   S67       1.0  0.13713  0.33895  0.89914  1.0000
  S   S68       1.0  0.09975  0.33090  0.94088  1.0000
  Fe  Fe33      1.0  0.13168  0.36832  0.88745  1.0000
  S   S69       1.0  0.14774  0.38854  0.88538  1.0000
  Fe  Fe34      1.0  0.12809  0.33577  0.87597  1.0000
  S   S70       1.0  0.14293  0.31378  0.86130  1.0000
  S   S71       1.0  0.10310  0.37337  0.90162  1.0000
  S   S72       1.0  0.09919  0.33837  0.88958  1.0000
  C   C69       1.0  0.06531  0.09053  0.54930  1.0000
  H   H133      1.0  0.21193  0.13720  0.55121  1.0000
  H   H134      1.0  0.13703  0.11126  0.66285  1.0000
  C   C70       1.0  0.04651  0.09104  0.57859  1.0000
  H   H135      1.0  0.19723  0.36562  0.80672  1.0000
  S   S73       1.0  0.19303  0.32468  0.83918  1.0000
  H   H136      1.0  0.21155  0.18520  0.65958  1.0000
  Fe  Fe35      1.0  0.18762  0.45374  0.95551  1.0000
  H   H137      1.0  0.20398  0.18542  0.52923  1.0000
  N   N12       1.0  0.18440  0.00995  0.55740  1.0000
  Fe  Fe36      1.0  0.16767  0.43017  0.94657  1.0000
  S   S74       1.0  0.18811  0.42629  0.92183  1.0000
  S   S75       1.0  0.14432  0.41656  0.95316  1.0000
  H   H138      1.0  0.03581  0.08715  0.57477  1.0000
  Fe  Fe37      1.0  0.18732  0.45535  0.91704  1.0000
  H   H139      1.0  0.20476  0.19717  0.61371  1.0000
  S   S76       1.0  0.18813  0.42408  0.96336  1.0000
  S   S77       1.0  0.16526  0.45977  0.94084  1.0000
  S   S78       1.0  0.23459  0.41499  0.74642  1.0000
  H   H140      1.0  0.04364  0.10589  0.57595  1.0000
  H   H141      1.0  0.22570  0.36428  0.77274  1.0000
  H   H142      1.0  0.16598  0.99917  0.58050  1.0000
  C   C71       1.0  0.03806  0.00555  0.62740  1.0000
  C   C72       1.0  0.14331  0.39815  0.90401  1.0000
  C   C73       1.0  0.13484  0.39002  0.92087  1.0000
  C   C74       1.0  0.13424  0.39631  0.93598  1.0000
  C   C75       1.0  0.14202  0.41077  0.93416  1.0000
  C   C76       1.0  0.14874  0.41996  0.91712  1.0000
  C   C77       1.0  0.14936  0.41369  0.90208  1.0000
  H   H143      1.0  0.12937  0.37854  0.92234  1.0000
  H   H144      1.0  0.12837  0.38956  0.94909  1.0000
  H   H145      1.0  0.15369  0.43181  0.91551  1.0000
  H   H146      1.0  0.15506  0.42061  0.88898  1.0000
  C   C78       1.0  0.12494  0.31517  0.81091  1.0000
  C   C79       1.0  0.11348  0.32453  0.82367  1.0000
  C   C80       1.0  0.11883  0.32409  0.83928  1.0000
  C   C81       1.0  0.13546  0.31392  0.84236  1.0000
  C   C82       1.0  0.14656  0.30396  0.82995  1.0000
  C   C83       1.0  0.14150  0.30488  0.81408  1.0000
  H   H147      1.0  0.10060  0.33243  0.82134  1.0000
  H   H148      1.0  0.11006  0.33157  0.84894  1.0000
  H   H149      1.0  0.15940  0.29602  0.83231  1.0000
  H   H150      1.0  0.15040  0.29757  0.80436  1.0000
  C   C84       1.0  0.20360  0.31152  0.78419  1.0000
  C   C85       1.0  0.18626  0.31732  0.79340  1.0000
  C   C86       1.0  0.18343  0.32151  0.81007  1.0000
  C   C87       1.0  0.19780  0.31978  0.81787  1.0000
  C   C88       1.0  0.21523  0.31373  0.80884  1.0000
  C   C89       1.0  0.21812  0.30966  0.79198  1.0000
  H   H151      1.0  0.17493  0.31846  0.78780  1.0000
  H   H152      1.0  0.16999  0.32594  0.81711  1.0000
  C   C90       1.0  0.14752  0.10139  0.66926  1.0000
  H   H153      1.0  0.23157  0.30485  0.78507  1.0000
  C   C91       1.0  0.20500  0.39042  0.79264  1.0000
  C   C92       1.0  0.15105  0.46258  0.72881  1.0000
  C   C93       1.0  0.20504  0.37511  0.80612  1.0000
  S   S79       1.0  0.18694  0.46886  0.88847  1.0000
  C   C94       1.0  0.13501  0.46887  0.89235  1.0000
  C   C95       1.0  0.18393  0.39753  0.69524  1.0000
  C   C96       1.0  0.18004  0.38760  0.71269  1.0000
  C   C97       1.0  0.17041  0.37400  0.71653  1.0000
  C   C98       1.0  0.16449  0.37058  0.70294  1.0000
  C   C99       1.0  0.16779  0.38103  0.68573  1.0000
  C   C100      1.0  0.17753  0.39439  0.68188  1.0000
  H   H154      1.0  0.18458  0.39032  0.72315  1.0000
  H   H155      1.0  0.16756  0.36620  0.72994  1.0000
  H   H156      1.0  0.16312  0.37853  0.67522  1.0000
  H   H157      1.0  0.18036  0.40213  0.66841  1.0000
  C   C101      1.0  0.08722  0.40093  0.84550  1.0000
  C   C102      1.0  0.10113  0.40766  0.84728  1.0000
  C   C103      1.0  0.10945  0.41937  0.83288  1.0000
  C   C104      1.0  0.10435  0.42377  0.81646  1.0000
  C   C105      1.0  0.09072  0.41675  0.81458  1.0000
  C   C106      1.0  0.08191  0.40564  0.82919  1.0000
  H   H158      1.0  0.10550  0.40376  0.85974  1.0000
  H   H159      1.0  0.12010  0.42463  0.83434  1.0000
  H   H160      1.0  0.08669  0.42019  0.80193  1.0000
  H   H161      1.0  0.07123  0.40038  0.82776  1.0000
  C   C107      1.0  0.19629  0.46253  0.75893  1.0000
  H   H162      1.0  0.19737  0.44906  0.75773  1.0000
  H   H163      1.0  0.11520  0.41717  0.98217  1.0000
  C   C108      1.0  0.19515  0.21471  0.63968  1.0000
  C   C109      1.0  0.12367  0.46654  0.75096  1.0000
  C   C110      1.0  0.09434  0.34480  0.95624  1.0000
  C   C111      1.0  0.09697  0.36231  0.95075  1.0000
  H   H164      1.0  0.07925  0.20657  0.52385  1.0000
  H   H165      1.0  0.10273  0.36731  0.93709  1.0000
  H   H166      1.0  0.09367  0.38712  0.95855  1.0000
  H   H167      1.0  0.05733  0.49583  0.86711  1.0000
  H   H168      1.0  0.00599  0.01766  0.65341  1.0000
  C   C112      1.0  0.20206  0.14150  0.54245  1.0000
  C   C113      1.0  0.12765  0.25770  0.69500  1.0000
  C   C114      1.0  0.12292  0.27306  0.70220  1.0000
  C   C115      1.0  0.13382  0.27611  0.71200  1.0000
  C   C116      1.0  0.14922  0.26342  0.71538  1.0000
  C   C117      1.0  0.15403  0.24814  0.70805  1.0000
  C   C118      1.0  0.14348  0.24541  0.69768  1.0000
  H   H169      1.0  0.11064  0.28259  0.70036  1.0000
  H   H170      1.0  0.13002  0.28806  0.71731  1.0000
  H   H171      1.0  0.16589  0.23822  0.71058  1.0000
  H   H172      1.0  0.14724  0.23347  0.69234  1.0000
  C   C119      1.0  0.08494  0.20997  0.61076  1.0000
  C   C120      1.0  0.06940  0.20755  0.60721  1.0000
  C   C121      1.0  0.06994  0.20265  0.59130  1.0000
  C   C122      1.0  0.08609  0.19999  0.57885  1.0000
  C   C123      1.0  0.10152  0.20271  0.58226  1.0000
  C   C124      1.0  0.10099  0.20755  0.59816  1.0000
  H   H173      1.0  0.05687  0.20962  0.61677  1.0000
  H   H174      1.0  0.05783  0.20117  0.58856  1.0000
  H   H175      1.0  0.11401  0.20097  0.57259  1.0000
  H   H176      1.0  0.11303  0.20940  0.60063  1.0000
  C   C125      1.0  0.03722  0.09508  0.64064  1.0000
  C   C126      1.0  0.04979  0.09794  0.62456  1.0000
  C   C127      1.0  0.04631  0.11354  0.61144  1.0000
  C   C128      1.0  0.03018  0.12599  0.61440  1.0000
  C   C129      1.0  0.01782  0.12308  0.63051  1.0000
  C   C130      1.0  0.02137  0.10774  0.64361  1.0000
  H   H177      1.0  0.06213  0.08819  0.62230  1.0000
  H   H178      1.0  0.05595  0.11588  0.59906  1.0000
  H   H179      1.0  0.21891  0.16761  0.54044  1.0000
  H   H180      1.0  0.13379  0.38704  0.97993  1.0000
  C   C131      1.0  0.17193  0.04050  0.66589  1.0000
  C   C132      1.0  0.16383  0.04159  0.65183  1.0000
  C   C133      1.0  0.14668  0.03780  0.65528  1.0000
  C   C134      1.0  0.13766  0.03249  0.67284  1.0000
  C   C135      1.0  0.14583  0.03128  0.68687  1.0000
  C   C136      1.0  0.16284  0.03531  0.68343  1.0000
  H   H181      1.0  0.17083  0.04530  0.63819  1.0000
  H   H182      1.0  0.14055  0.03871  0.64437  1.0000
  N   N13       1.0  0.00795  0.04126  0.66045  1.0000
  H   H183      1.0  0.16913  0.03392  0.69436  1.0000
  C   C137      1.0  0.16890  0.13366  0.68524  1.0000
  C   C138      1.0  0.18313  0.13521  0.67054  1.0000
  C   C139      1.0  0.18265  0.15087  0.65739  1.0000
  C   C140      1.0  0.16796  0.16513  0.65889  1.0000
  C   C141      1.0  0.15372  0.16374  0.67364  1.0000
  C   C142      1.0  0.15418  0.14794  0.68684  1.0000
  H   H184      1.0  0.19460  0.12437  0.66925  1.0000
  H   H185      1.0  0.19368  0.15186  0.64599  1.0000
  H   H186      1.0  0.14238  0.17476  0.67487  1.0000
  H   H187      1.0  0.14317  0.14678  0.69823  1.0000
  C   C143      1.0  0.16195  0.05323  0.58670  1.0000
  C   C144      1.0  0.15307  0.04351  0.60234  1.0000
  C   C145      1.0  0.13531  0.04253  0.60403  1.0000
  C   C146      1.0  0.12655  0.05102  0.58996  1.0000
  C   C147      1.0  0.13533  0.06096  0.57444  1.0000
  C   C148      1.0  0.15294  0.06228  0.57295  1.0000
  H   H188      1.0  0.15998  0.03653  0.61305  1.0000
  H   H189      1.0  0.12854  0.03494  0.61613  1.0000
  H   H190      1.0  0.12847  0.06787  0.56368  1.0000
  H   H191      1.0  0.15938  0.07044  0.56121  1.0000
  H   H192      1.0  0.21664  0.31305  0.72058  1.0000
  H   H193      1.0  0.24332  0.34619  0.69179  1.0000
  C   C149      1.0  0.13136  0.10740  0.52494  1.0000
  C   C150      1.0  0.11732  0.12077  0.53088  1.0000
  H   H194      1.0  0.13092  0.31170  0.65686  1.0000
  H   H195      1.0  0.16560  0.01370  0.54096  1.0000
  Fe  Fe38      1.0  0.24592  0.40215  0.72282  1.0000
  H   H196      1.0  0.12854  0.09552  0.52309  1.0000
  H   H197      1.0  0.14901  0.06496  0.70330  1.0000
  N   N14       1.0  0.05741  0.22931  0.52242  1.0000
  C   C151      1.0  0.20527  0.25147  0.57475  1.0000
  C   C152      1.0  0.19604  0.26926  0.57224  1.0000
  C   C153      1.0  0.17812  0.27377  0.58076  1.0000
  C   C154      1.0  0.16928  0.26054  0.59193  1.0000
  C   C155      1.0  0.17843  0.24264  0.59450  1.0000
  C   C156      1.0  0.19647  0.23808  0.58580  1.0000
  H   H198      1.0  0.20275  0.27963  0.56363  1.0000
  H   H199      1.0  0.17109  0.28757  0.57867  1.0000
  H   H200      1.0  0.17152  0.23233  0.60290  1.0000
  H   H201      1.0  0.20343  0.22427  0.58739  1.0000
  H   H202      1.0  0.20464  0.18043  0.63389  1.0000
  H   H203      1.0  0.04535  0.08608  0.59322  1.0000
  C   C157      1.0  0.22243  0.08989  0.59935  1.0000
  C   C158      1.0  0.22695  0.06285  0.62180  1.0000
  C   C159      1.0  0.22028  0.19425  0.65045  1.0000
  C   C160      1.0  0.08731  0.33828  0.97424  1.0000
  H   H204      1.0  0.22530  0.18340  0.61910  1.0000
  H   H205      1.0  0.15719  0.09463  0.65890  1.0000
  H   H206      1.0  0.19244  0.07958  0.60032  1.0000
  Fe  Fe39      1.0  0.14279  0.48512  0.80435  1.0000
  C   C161      1.0  0.13878  0.13825  0.52928  1.0000
  H   H207      1.0  0.16054  0.08268  0.69896  1.0000
  C   C162      1.0  0.04636  0.21982  0.51750  1.0000
  S   S80       1.0  0.09638  0.47345  0.82756  1.0000
  H   H208      1.0  0.17037  0.15873  0.53402  1.0000
  S   S81       1.0  0.22282  0.38884  0.72800  1.0000
  C   C163      1.0  0.16692  0.46612  0.86670  1.0000
  C   C164      1.0  0.16699  0.46772  0.88371  1.0000
  H   H209      1.0  0.21249  0.48437  0.95027  1.0000
  Fe  Fe40      1.0  0.11866  0.47343  0.83981  1.0000
  H   H210      1.0  0.19134  0.13373  0.54852  1.0000
  H   H211      1.0  0.11929  0.08730  0.67178  1.0000
  H   H212      1.0  0.20438  0.35983  0.72661  1.0000
  H   H213      1.0  0.17770  0.03762  0.54494  1.0000
  H   H214      1.0  0.19597  0.05937  0.61675  1.0000
  H   H215      1.0  0.03294  0.02230  0.66058  1.0000
  C   C165      1.0  0.15107  0.46884  0.89661  1.0000
  H   H216      1.0  0.17946  0.40738  0.86392  1.0000
  C   C166      1.0  0.18166  0.16581  0.52810  1.0000
  H   H217      1.0  0.18282  0.39594  0.89500  1.0000
  S   S82       1.0  0.24711  0.21411  0.90325  1.0000
  H   H218      1.0  0.17217  0.31645  0.96206  1.0000
  H   H219      1.0  0.04967  0.17421  0.61710  1.0000
  H   H220      1.0  0.17812  0.29352  0.85724  1.0000
  N   N15       1.0  0.14149  0.36985  0.80792  1.0000
  C   C167      1.0  0.14472  0.35657  0.79691  1.0000
  C   C168      1.0  0.15359  0.36337  0.82063  1.0000
  C   C169      1.0  0.12271  0.37244  0.81783  1.0000
  C   C170      1.0  0.14495  0.38703  0.79634  1.0000
  H   H221      1.0  0.13548  0.36067  0.78752  1.0000
  H   H222      1.0  0.14263  0.34339  0.80537  1.0000
  H   H223      1.0  0.15868  0.35455  0.78896  1.0000
  H   H224      1.0  0.15085  0.35078  0.83013  1.0000
  H   H225      1.0  0.16784  0.36052  0.81363  1.0000
  H   H226      1.0  0.15214  0.37336  0.82865  1.0000
  H   H227      1.0  0.11985  0.38246  0.82614  1.0000
  H   H228      1.0  0.11959  0.35987  0.82691  1.0000
  H   H229      1.0  0.11316  0.37721  0.80872  1.0000
  H   H230      1.0  0.14265  0.39735  0.80428  1.0000
  H   H231      1.0  0.13599  0.39236  0.78667  1.0000
  H   H232      1.0  0.15901  0.38560  0.78866  1.0000
  H   H233      1.0  0.13406  0.43126  0.76275  1.0000
  N   N16       1.0  0.19829  0.27105  0.86561  1.0000
  C   C171      1.0  0.18396  0.28667  0.86918  1.0000
  C   C172      1.0  0.20611  0.26264  0.88153  1.0000
  C   C173      1.0  0.21235  0.27685  0.85034  1.0000
  C   C174      1.0  0.19067  0.25806  0.86130  1.0000
  H   H234      1.0  0.17276  0.28292  0.88026  1.0000
  Fe  Fe41      1.0  0.22777  0.08457  0.53917  1.0000
  H   H235      1.0  0.21208  0.27207  0.88504  1.0000
  H   H236      1.0  0.19584  0.25823  0.89334  1.0000
  H   H237      1.0  0.21693  0.25072  0.87933  1.0000
  H   H238      1.0  0.22364  0.26551  0.84751  1.0000
  H   H239      1.0  0.21796  0.28713  0.85288  1.0000
  H   H240      1.0  0.20691  0.28296  0.83805  1.0000
  H   H241      1.0  0.20111  0.24612  0.85839  1.0000
  H   H242      1.0  0.18451  0.26412  0.84943  1.0000
  H   H243      1.0  0.18000  0.25342  0.87255  1.0000
  C   C175      1.0  0.20722  0.47332  0.74633  1.0000
  C   C176      1.0  0.22508  0.21553  0.62249  1.0000
  H   H244      1.0  0.19562  0.22522  0.64623  1.0000
  H   H245      1.0  0.18891  0.22139  0.62798  1.0000
  H   H246      1.0  0.22608  0.22579  0.62909  1.0000
  H   H247      1.0  0.22028  0.22259  0.61003  1.0000
  H   H248      1.0  0.23885  0.20775  0.61856  1.0000
  N   N17       1.0  0.11805  0.26169  0.77520  1.0000
  C   C177      1.0  0.13626  0.25040  0.77414  1.0000
  C   C178      1.0  0.11607  0.27555  0.78520  1.0000
  C   C179      1.0  0.10469  0.25055  0.78437  1.0000
  C   C180      1.0  0.11523  0.27033  0.75701  1.0000
  H   H249      1.0  0.14666  0.25848  0.76757  1.0000
  H   H250      1.0  0.13848  0.24020  0.76611  1.0000
  H   H251      1.0  0.13883  0.24338  0.78759  1.0000
  H   H252      1.0  0.12582  0.28430  0.77850  1.0000
  H   H253      1.0  0.10252  0.28443  0.78628  1.0000
  H   H254      1.0  0.11832  0.26966  0.79896  1.0000
  H   H255      1.0  0.10640  0.24389  0.79818  1.0000
  H   H256      1.0  0.10587  0.23995  0.77714  1.0000
  H   H257      1.0  0.09081  0.25869  0.78531  1.0000
  H   H258      1.0  0.10172  0.27913  0.75717  1.0000
  H   H259      1.0  0.11673  0.26031  0.74897  1.0000
  H   H260      1.0  0.12522  0.27870  0.74975  1.0000
  H   H261      1.0  0.23709  0.08946  0.59533  1.0000
  C   C181      1.0  0.20914  0.17074  0.53169  1.0000
  C   C182      1.0  0.22747  0.32073  0.71497  1.0000
  C   C183      1.0  0.23269  0.35032  0.77726  1.0000
  S   S83       1.0  0.16835  0.49508  0.79304  1.0000
  S   S84       1.0  0.24716  0.09134  0.55153  1.0000
  H   H262      1.0  0.24359  0.34706  0.71405  1.0000
  S   S85       1.0  0.23504  0.42610  0.70348  1.0000
  H   H263      1.0  0.20763  0.42338  0.88458  1.0000
  H   H264      1.0  0.07572  0.42856  0.87595  1.0000
  H   H265      1.0  0.18601  0.20636  0.64925  1.0000
  N   N18       1.0  0.21870  0.07176  0.60624  1.0000
  H   H266      1.0  0.18345  0.31564  0.93936  1.0000
  H   H267      1.0  0.06093  0.23476  0.54620  1.0000
  H   H268      1.0  0.18459  0.33311  0.94886  1.0000
  H   H269      1.0  0.17570  0.46079  0.78307  1.0000
  S   S86       1.0  0.18571  0.07324  0.53154  1.0000
  H   H270      1.0  0.21726  0.35853  0.82719  1.0000
  H   H271      1.0  0.13365  0.10568  0.70279  1.0000
  C   C184      1.0  0.18406  0.46914  0.77327  1.0000
  H   H272      1.0  0.13518  0.33206  0.93779  1.0000
  C   C185      1.0  0.21190  0.19069  0.62482  1.0000
  N   N19       1.0  0.22006  0.34015  0.71154  1.0000
  H   H273      1.0  0.17927  0.46464  0.85685  1.0000
  H   H274      1.0  0.18901  0.29680  0.87265  1.0000
  H   H275      1.0  0.05098  0.15478  0.60912  1.0000
  H   H276      1.0  0.21489  0.41469  0.78178  1.0000
  H   H277      1.0  0.03141  0.04156  0.66888  1.0000
  C   C186      1.0  0.21004  0.37843  0.93520  1.0000
  H   H278      1.0  0.07094  0.17416  0.63470  1.0000
  H   H279      1.0  0.05078  0.13552  0.63875  1.0000
  C   C187      1.0  0.08015  0.16296  0.62881  1.0000
  C   C188      1.0  0.05248  0.22824  0.54188  1.0000
  H   H280      1.0  0.24089  0.27329  0.52902  1.0000
  C   C189      1.0  0.12693  0.09789  0.69779  1.0000
  H   H281      1.0  0.21734  0.34096  0.73895  1.0000
  H   H282      1.0  0.08137  0.05841  0.56557  1.0000
  H   H283      1.0  0.09478  0.30791  0.65284  1.0000
  H   H284      1.0  0.09115  0.45337  0.90044  1.0000
  H   H285      1.0  0.15099  0.47013  0.90976  1.0000
  H   H286      1.0  0.11559  0.46623  0.74162  1.0000
  H   H287      1.0  0.13688  0.35617  0.95019  1.0000
  Fe  Fe42      1.0  0.21428  0.06419  0.51869  1.0000
  C   C190      1.0  0.22750  0.38263  0.81673  1.0000
  C   C191      1.0  0.15209  0.45639  0.75992  1.0000
  C   C192      1.0  0.19917  0.07289  0.61170  1.0000
  H   H288      1.0  0.05552  0.08602  0.54472  1.0000
  H   H289      1.0  0.06242  0.10536  0.54573  1.0000
  H   H290      1.0  0.19305  0.08036  0.62258  1.0000
  C   C193      1.0  0.08296  0.13710  0.61703  1.0000
  C   C194      1.0  0.05910  0.16268  0.61199  1.0000
  H   H291      1.0  0.09199  0.14242  0.60449  1.0000
  C   C195      1.0  0.05849  0.14407  0.64138  1.0000
  H   H292      1.0  0.06753  0.16801  0.59907  1.0000
  H   H293      1.0  0.09151  0.12842  0.62638  1.0000
  Fe  Fe43      1.0  0.11841  0.46067  0.80766  1.0000
  C   C196      1.0  0.06783  0.06417  0.57275  1.0000
  C   C197      1.0  0.15413  0.07583  0.69270  1.0000
  H   H294      1.0  0.13917  0.27918  0.65878  1.0000
  H   H295      1.0  0.14909  0.28234  0.63523  1.0000
  H   H296      1.0  0.04858  0.15475  0.64752  1.0000
  H   H297      1.0  0.06635  0.13566  0.65144  1.0000
  N   N20       1.0  0.07019  0.15170  0.62483  1.0000
  H   H298      1.0  0.13973  0.07116  0.66774  1.0000
  S   S87       1.0  0.18429  0.46884  0.97729  1.0000
  C   C198      1.0  0.13634  0.28164  0.64528  1.0000
  H   H299      1.0  0.13197  0.26974  0.64463  1.0000
  H   H300      1.0  0.07599  0.10448  0.57106  1.0000
  H   H301      1.0  0.10083  0.28420  0.65436  1.0000
  Fe  Fe44      1.0  0.20844  0.42267  0.93772  1.0000
  H   H302      1.0  0.06879  0.44982  0.90458  1.0000
  H   H303      1.0  0.16486  0.06954  0.68270  1.0000
  N   N21       1.0  0.13973  0.08837  0.68442  1.0000
  C   C199      1.0  0.09193  0.37347  0.96297  1.0000
  H   H304      1.0  0.06738  0.05866  0.58723  1.0000
  N   N22       1.0  0.14194  0.45558  0.74717  1.0000
  C   C200      1.0  0.23483  0.34989  0.70439  1.0000
  H   H305      1.0  0.17951  0.17998  0.55592  1.0000
  C   C201      1.0  0.14094  0.43686  0.74902  1.0000
  H   H306      1.0  0.19272  0.36081  0.93799  1.0000
  H   H307      1.0  0.15337  0.47027  0.75879  1.0000
  C   C202      1.0  0.10563  0.29593  0.65501  1.0000
  H   H308      1.0  0.10750  0.29367  0.66886  1.0000
  H   H309      1.0  0.10899  0.31279  0.62052  1.0000
  H   H310      1.0  0.08895  0.16907  0.61652  1.0000
  H   H311      1.0  0.08877  0.15516  0.63840  1.0000
  H   H312      1.0  0.20098  0.38556  0.94502  1.0000
  C   C203      1.0  0.14955  0.34819  0.95420  1.0000
  H   H313      1.0  0.04858  0.20549  0.52419  1.0000
  H   H314      1.0  0.07891  0.08593  0.54142  1.0000
  C   C204      1.0  0.20924  0.49043  0.96170  1.0000
  H   H315      1.0  0.07817  0.08456  0.58831  1.0000
  C   C205      1.0  0.20563  0.03269  0.49790  1.0000
  C   C206      1.0  0.07815  0.08969  0.57388  1.0000
  H   H316      1.0  0.08538  0.32469  0.97861  1.0000
  S   S88       1.0  0.20961  0.45174  0.93096  1.0000
  N   N23       1.0  0.12245  0.29793  0.64181  1.0000
  C   C207      1.0  0.11938  0.30063  0.62369  1.0000
  H   H317      1.0  0.18809  0.16205  0.51499  1.0000
  C   C208      1.0  0.13040  0.07835  0.67795  1.0000
  H   H318      1.0  0.19756  0.33884  0.73368  1.0000
  H   H319      1.0  0.01975  0.02445  0.68226  1.0000
  H   H320      1.0  0.09186  0.08473  0.56642  1.0000
  C   C209      1.0  0.24966  0.11367  0.54723  1.0000
  H   H321      1.0  0.17424  0.15821  0.56391  1.0000
  H   H322      1.0  0.20387  0.39309  0.90064  1.0000
  C   C210      1.0  0.12102  0.13623  0.53303  1.0000
  H   H323      1.0  0.21672  0.16727  0.51871  1.0000
  H   H324      1.0  0.11833  0.32597  0.64078  1.0000
  C   C211      1.0  0.08230  0.44763  0.89575  1.0000
  H   H325      1.0  0.08119  0.45543  0.88207  1.0000
  C   C212      1.0  0.14760  0.32411  0.94228  1.0000
  C   C213      1.0  0.20540  0.36432  0.93121  1.0000
  H   H326      1.0  0.03600  0.48876  0.81973  1.0000
  H   H327      1.0  0.10663  0.43354  0.86974  1.0000
  H   H328      1.0  0.10061  0.42394  0.91896  1.0000
  C   C214      1.0  0.05427  0.24822  0.51302  1.0000
  H   H329      1.0  0.19578  0.48738  0.84405  1.0000
  H   H330      1.0  0.15217  0.47664  0.72703  1.0000
  S   S89       1.0  0.21034  0.33807  0.91288  1.0000
  H   H331      1.0  0.11023  0.14660  0.53763  1.0000
  C   C215      1.0  0.24248  0.12821  0.64402  1.0000
  Fe  Fe45      1.0  0.19281  0.09989  0.52670  1.0000
  Fe  Fe46      1.0  0.24571  0.21976  0.56807  1.0000
  H   H332      1.0  0.22432  0.04916  0.62741  1.0000
  C   C216      1.0  0.07736  0.42143  0.88969  1.0000
  C   C217      1.0  0.23814  0.37388  0.91395  1.0000
  C   C218      1.0  0.03925  0.16029  0.49428  1.0000
  H   H333      1.0  0.19874  0.41105  0.84640  1.0000
  H   H334      1.0  0.06386  0.42263  0.89861  1.0000
  N   N24       1.0  0.15931  0.33580  0.94222  1.0000
  Fe  Fe47      1.0  0.23937  0.34994  0.84811  1.0000
  N   N25       1.0  0.24655  0.11423  0.88730  1.0000
  H   H335      1.0  0.11331  0.41203  0.88340  1.0000
  C   C219      1.0  0.10738  0.42630  0.88366  1.0000
  S   S90       1.0  0.10177  0.01425  0.63808  1.0000
  C   C220      1.0  0.16448  0.34613  0.92392  1.0000
  H   H336      1.0  0.23078  0.39785  0.87656  1.0000
  C   C221      1.0  0.09142  0.41882  0.91408  1.0000
  N   N26       1.0  0.08961  0.42851  0.89580  1.0000
  H   H337      1.0  0.21591  0.34038  0.68583  1.0000
  H   H338      1.0  0.15979  0.09929  0.51618  1.0000
  H   H339      1.0  0.23151  0.11471  0.91407  1.0000
  H   H340      1.0  0.11697  0.43155  0.88781  1.0000
  S   S91       1.0  0.24190  0.32650  0.83646  1.0000
  H   H341      1.0  0.11635  0.46165  0.76470  1.0000
  C   C222      1.0  0.08438  0.36711  0.98083  1.0000
  C   C223      1.0  0.12848  0.31341  0.64330  1.0000
  H   H342      1.0  0.15263  0.35425  0.91856  1.0000
  C   C224      1.0  0.17554  0.32475  0.94846  1.0000
  S   S92       1.0  0.24352  0.37610  0.83004  1.0000
  H   H343      1.0  0.07828  0.42002  0.92364  1.0000
  H   H344      1.0  0.09710  0.40439  0.91466  1.0000
  C   C225      1.0  0.23302  0.12346  0.90048  1.0000
  H   H345      1.0  0.23691  0.13552  0.90155  1.0000
  N   N27       1.0  0.19455  0.16089  0.53989  1.0000
  S   S93       1.0  0.24045  0.19211  0.57794  1.0000
  H   H346      1.0  0.24995  0.09301  0.70506  1.0000
  H   H347      1.0  0.22640  0.31198  0.81490  1.0000
  H   H348      1.0  0.15833  0.02216  0.57058  1.0000
  H   H349      1.0  0.18172  0.04899  0.51026  1.0000
  C   C226      1.0  0.18534  0.16543  0.55734  1.0000
  S   S94       1.0  0.22103  0.09163  0.51199  1.0000
  H   H350      1.0  0.20007  0.02642  0.53646  1.0000
  H   H351      1.0  0.19648  0.38886  0.85788  1.0000
  C   C227      1.0  0.18307  0.48640  0.77515  1.0000
  H   H352      1.0  0.12462  0.06811  0.68894  1.0000
  C   C228      1.0  0.22318  0.39718  0.86692  1.0000
  Fe  Fe48      1.0  0.21422  0.32621  0.85234  1.0000
  C   C229      1.0  0.14909  0.10941  0.52126  1.0000
  S   S95       1.0  0.14034  0.45814  0.82158  1.0000
  S   S96       1.0  0.11459  0.46949  0.86937  1.0000
  H   H353      1.0  0.15451  0.42820  0.74636  1.0000
  H   H354      1.0  0.13904  0.02699  0.70048  1.0000
  C   C230      1.0  0.21690  0.35519  0.91826  1.0000
  H   H355      1.0  0.08247  0.40710  0.88923  1.0000
  H   H356      1.0  0.11493  0.37748  0.99245  1.0000
  H   H357      1.0  0.14375  0.46218  0.71882  1.0000
  Fe  Fe49      1.0  0.22712  0.06731  0.69772  1.0000
  H   H358      1.0  0.16131  0.03170  0.50713  1.0000
  C   C231      1.0  0.17754  0.00394  0.54497  1.0000
  H   H359      1.0  0.22635  0.38304  0.86561  1.0000
  H   H360      1.0  0.17588  0.18038  0.52556  1.0000
  S   S97       1.0  0.22411  0.05636  0.54437  1.0000
  H   H361      1.0  0.17287  0.35552  0.92338  1.0000
  S   S98       1.0  0.21111  0.35045  0.86298  1.0000
  S   S99       1.0  0.22158  0.09671  0.68649  1.0000
  H   H362      1.0  0.23656  0.24977  0.90867  1.0000
  C   C232      1.0  0.25059  0.14273  0.52750  1.0000
  C   C233      1.0  0.07652  0.22095  0.51729  1.0000
  H   H363      1.0  0.15435  0.31472  0.93319  1.0000
  H   H364      1.0  0.19462  0.03227  0.55772  1.0000
  S   S100      1.0  0.22257  0.30785  0.87685  1.0000
  H   H365      1.0  0.14119  0.31521  0.63354  1.0000
  H   H366      1.0  0.13187  0.30192  0.61337  1.0000
  H   H367      1.0  0.24910  0.27475  0.55580  1.0000
  C   C234      1.0  0.17038  0.01191  0.57367  1.0000
  S   S101      1.0  0.23269  0.05968  0.67117  1.0000
  C   C235      1.0  0.24553  0.11989  0.62977  1.0000
  C   C236      1.0  0.24760  0.14448  0.64118  1.0000
  Fe  Fe50      1.0  0.22307  0.33246  0.88543  1.0000
  H   H368      1.0  0.14587  0.34086  0.96820  1.0000
  C   C237      1.0  0.22663  0.39861  0.80393  1.0000
  H   H369      1.0  0.00538  0.13272  0.63285  1.0000
  H   H370      1.0  0.14548  0.45141  0.77394  1.0000
  H   H371      1.0  0.23551  0.31630  0.70256  1.0000
  H   H372      1.0  0.19661  0.33864  0.70366  1.0000
  C   C238      1.0  0.22648  0.38317  0.92667  1.0000
  C   C239      1.0  0.19210  0.49314  0.99123  1.0000
  H   H373      1.0  0.18573  0.42721  0.88030  1.0000
  H   H374      1.0  0.20051  0.37784  0.88932  1.0000
  H   H375      1.0  0.11580  0.10744  0.69210  1.0000
  C   C240      1.0  0.19747  0.39210  0.89022  1.0000
  C   C241      1.0  0.20019  0.42218  0.87506  1.0000
  C   C242      1.0  0.23324  0.36011  0.90955  1.0000
  H   H376      1.0  0.12269  0.47001  0.90231  1.0000
  H   H377      1.0  0.14334  0.31611  0.95585  1.0000
  S   S102      1.0  0.23239  0.40089  0.93150  1.0000
  N   N28       1.0  0.20374  0.40357  0.87294  1.0000
  H   H378      1.0  0.24961  0.15145  0.51464  1.0000
  H   H379      1.0  0.15490  0.10900  0.67363  1.0000
  H   H380      1.0  0.01168  0.10562  0.65603  1.0000
  H   H381      1.0  0.11492  0.28907  0.62215  1.0000
  H   H382      1.0  0.22846  0.40516  0.85367  1.0000
  C   C243      1.0  0.02562  0.17432  0.49951  1.0000
  H   H383      1.0  0.22961  0.36460  0.70131  1.0000
  C   C244      1.0  0.15285  0.12472  0.52361  1.0000
  H   H384      1.0  0.02194  0.06020  0.64101  1.0000
  H   H385      1.0  0.00244  0.05756  0.63543  1.0000
  H   H386      1.0  0.12394  0.48071  0.74986  1.0000
  C   C245      1.0  0.19419  0.40272  0.85969  1.0000
  C   C246      1.0  0.21540  0.40248  0.79181  1.0000
  C   C247      1.0  0.13485  0.46795  0.87512  1.0000
  H   H387      1.0  0.24473  0.12063  0.52071  1.0000
  H   H388      1.0  0.04608  0.01558  0.62196  1.0000
  H   H389      1.0  0.02254  0.04060  0.63363  1.0000
  H   H390      1.0  0.22019  0.06772  0.58025  1.0000
  H   H391      1.0  0.22973  0.34194  0.76970  1.0000
  C   C248      1.0  0.01397  0.05031  0.64180  1.0000
  C   C249      1.0  0.15085  0.46637  0.86237  1.0000
  H   H392      1.0  0.16583  0.44803  0.75765  1.0000
  C   C250      1.0  0.21646  0.37110  0.81789  1.0000
  C   C251      1.0  0.24779  0.12528  0.53091  1.0000
  C   C252      1.0  0.18713  0.03764  0.50401  1.0000
  H   H393      1.0  0.12103  0.08841  0.70953  1.0000
  C   C253      1.0  0.19611  0.48518  0.97647  1.0000
  H   H394      1.0  0.24168  0.06187  0.61824  1.0000
  H   H395      1.0  0.16486  0.45465  0.72542  1.0000
  H   H396      1.0  0.20900  0.13752  0.52953  1.0000
  H   H397      1.0  0.15088  0.46546  0.84913  1.0000
  H   H398      1.0  0.21968  0.12780  0.89688  1.0000
  H   H399      1.0  0.21683  0.09821  0.60959  1.0000
  H   H400      1.0  0.08084  0.22177  0.50267  1.0000
  C   C254      1.0  0.18941  0.02732  0.54873  1.0000
  H   H401      1.0  0.05785  0.24951  0.49831  1.0000
  C   C255      1.0  0.20626  0.49048  0.74836  1.0000
  H   H402      1.0  0.15771  0.35772  0.95397  1.0000
  H   H403      1.0  0.17228  0.33726  0.91456  1.0000
  C   C256      1.0  0.20938  0.34520  0.72841  1.0000
  S   S103      1.0  0.17511  0.12683  0.51987  1.0000
  H   H404      1.0  0.21674  0.09687  0.58734  1.0000
  H   H405      1.0  0.14160  0.15017  0.53103  1.0000
  H   H406      1.0  0.23615  0.31674  0.72488  1.0000
  C   C257      1.0  0.02440  0.00556  0.61916  1.0000
  S   S104      1.0  0.24683  0.05555  0.71625  1.0000
  H   H407      1.0  0.22146  0.07037  0.63269  1.0000
  H   H408      1.0  0.24095  0.06045  0.58744  1.0000
  H   H409      1.0  0.04958  0.22032  0.50292  1.0000
  H   H410      1.0  0.03996  0.25489  0.51658  1.0000
  S   S105      1.0  0.24075  0.09882  0.63322  1.0000
  C   C258      1.0  0.17555  0.02787  0.50210  1.0000
  H   H411      1.0  0.03180  0.22544  0.52141  1.0000
  H   H412      1.0  0.05107  0.15610  0.49992  1.0000
  C   C259      1.0  0.02367  0.03199  0.66839  1.0000
  H   H413      1.0  0.20354  0.35949  0.69480  1.0000
  H   H414      1.0  0.22652  0.34596  0.79156  1.0000
  H   H415      1.0  0.00409  0.06480  0.67054  1.0000
  H   H416      1.0  0.05441  0.21416  0.54936  1.0000
  H   H417      1.0  0.08528  0.22730  0.52139  1.0000
  H   H418      1.0  0.22778  0.10227  0.88188  1.0000
  H   H419      1.0  0.06242  0.25574  0.51648  1.0000
  S   S106      1.0  0.22088  0.04409  0.50075  1.0000
  C   C260      1.0  0.20856  0.34482  0.69841  1.0000
  C   C261      1.0  0.08236  0.34941  0.98655  1.0000
  H   H420      1.0  0.14416  0.40725  0.99183  1.0000
  H   H421      1.0  0.03821  0.23461  0.54625  1.0000
  H   H422      1.0  0.17527  0.01623  0.58339  1.0000
  H   H423      1.0  0.16865  0.49070  0.83168  1.0000
  H   H424      1.0  0.23640  0.12205  0.65726  1.0000
  H   H425      1.0  0.06710  0.49352  0.80886  1.0000
  H   H426      1.0  0.18781  0.00237  0.53253  1.0000
  H   H427      1.0  0.24841  0.37396  0.78212  1.0000
  C   C262      1.0  0.24080  0.09844  0.88615  1.0000
  H   H428      1.0  0.24550  0.15074  0.65227  1.0000
  H   H429      1.0  0.25001  0.09406  0.95733  1.0000
  H   H430      1.0  0.23918  0.08887  0.89925  1.0000
  Fe  Fe51      1.0  0.25043  0.30990  0.86151  1.0000
  C   C263      1.0  0.12662  0.38197  0.99366  1.0000
  C   C264      1.0  0.24854  0.12654  0.86964  1.0000
  H   H431      1.0  0.24639  0.27767  0.89163  1.0000
  C   C265      1.0  0.24669  0.24967  0.89650  1.0000
  C   C266      1.0  0.20032  0.99675  0.56221  1.0000
  H   H432      1.0  0.20584  0.00100  0.57152  1.0000
  H   H433      1.0  0.25033  0.35474  0.80003  1.0000
  S   S107      1.0  0.11097  0.93434  0.32560  1.0000
  C   C267      1.0  0.03638  0.57246  0.16048  1.0000
  S   S108      1.0  0.20656  0.93713  0.24483  1.0000
  Fe  Fe52      1.0  0.20300  0.90652  0.21595  1.0000
  S   S109      1.0  0.17937  0.91768  0.23535  1.0000
  S   S110      1.0  0.20085  0.88791  0.20034  1.0000
  Fe  Fe53      1.0  0.18916  0.94314  0.22511  1.0000
  S   S111      1.0  0.17194  0.97011  0.21785  1.0000
  Fe  Fe54      1.0  0.19889  0.91045  0.25313  1.0000
  S   S112      1.0  0.18853  0.89501  0.28024  1.0000
  S   S113      1.0  0.21075  0.93285  0.20353  1.0000
  S   S114      1.0  0.22221  0.89786  0.23419  1.0000
  Fe  Fe55      1.0  0.06145  0.90448  0.41326  1.0000
  S   S115      1.0  0.09073  0.89214  0.40857  1.0000
  S   S116      1.0  0.05124  0.93009  0.39555  1.0000
  Fe  Fe56      1.0  0.05171  0.87601  0.44521  1.0000
  S   S117      1.0  0.08004  0.86074  0.44324  1.0000
  S   S118      1.0  0.02832  0.87005  0.46764  1.0000
  Fe  Fe57      1.0  0.08720  0.88736  0.43816  1.0000
  S   S119      1.0  0.10954  0.88768  0.45057  1.0000
  Fe  Fe58      1.0  0.08159  0.86656  0.41364  1.0000
  S   S120      1.0  0.09871  0.84572  0.39806  1.0000
  S   S121      1.0  0.05873  0.90231  0.44245  1.0000
  S   S122      1.0  0.05235  0.87931  0.41610  1.0000
  Fe  Fe59      1.0  0.11335  0.83358  0.30010  1.0000
  S   S123      1.0  0.12946  0.80573  0.30681  1.0000
  S   S124      1.0  0.09234  0.84886  0.31927  1.0000
  Fe  Fe60      1.0  0.13153  0.83828  0.26082  1.0000
  S   S125      1.0  0.14952  0.81130  0.26455  1.0000
  S   S126      1.0  0.13284  0.85360  0.23267  1.0000
  Fe  Fe61      1.0  0.12481  0.80207  0.28130  1.0000
  S   S127      1.0  0.11898  0.77680  0.27811  1.0000
  Fe  Fe62      1.0  0.15242  0.81768  0.28924  1.0000
  S   S128      1.0  0.17932  0.81357  0.29561  1.0000
  S   S129      1.0  0.10651  0.82881  0.27625  1.0000
  S   S130      1.0  0.13666  0.84573  0.28391  1.0000
  S   S131      1.0  0.20485  0.83107  0.39955  1.0000
  S   S132      1.0  0.19713  0.86894  0.37115  1.0000
  Fe  Fe63      1.0  0.20547  0.85956  0.39723  1.0000
  S   S133      1.0  0.18818  0.87298  0.41923  1.0000
  Fe  Fe64      1.0  0.19859  0.84025  0.37233  1.0000
  S   S134      1.0  0.17372  0.83496  0.36810  1.0000
  C   C268      1.0  0.03468  0.76716  0.18796  1.0000
  C   C269      1.0  0.07321  0.50377  0.16975  1.0000
  S   S135      1.0  0.16624  0.95563  0.47766  1.0000
  C   C270      1.0  0.19185  0.54359  0.27839  1.0000
  C   C271      1.0  0.02423  0.55881  0.19075  1.0000
  C   C272      1.0  0.20096  0.87814  0.31031  1.0000
  H   H434      1.0  0.17974  0.93145  0.37694  1.0000
  H   H435      1.0  0.09987  0.62296  0.09331  1.0000
  Fe  Fe65      1.0  0.14461  0.96574  0.46166  1.0000
  S   S136      1.0  0.11732  0.95950  0.46551  1.0000
  H   H436      1.0  0.12301  0.62450  0.08645  1.0000
  S   S137      1.0  0.16332  0.96358  0.43557  1.0000
  H   H437      1.0  0.21895  0.86811  0.26477  1.0000
  H   H438      1.0  0.19262  0.54612  0.24355  1.0000
  H   H439      1.0  0.19902  0.90672  0.35139  1.0000
  H   H440      1.0  0.22155  0.88569  0.41010  1.0000
  C   C273      1.0  0.05307  0.73817  0.19659  1.0000
  H   H441      1.0  0.13306  0.67530  0.11869  1.0000
  H   H442      1.0  0.03929  0.54059  0.15407  1.0000
  H   H443      1.0  0.23141  0.97286  0.19519  1.0000
  H   H444      1.0  0.13109  0.85049  0.43698  1.0000
  Fe  Fe66      1.0  0.23170  0.62173  0.20287  1.0000
  S   S138      1.0  0.22986  0.60466  0.18540  1.0000
  S   S139      1.0  0.22394  0.65166  0.19418  1.0000
  Fe  Fe67      1.0  0.21732  0.58804  0.21081  1.0000
  S   S140      1.0  0.18945  0.58336  0.21361  1.0000
  H   H445      1.0  0.09287  0.95552  0.27834  1.0000
  C   C274      1.0  0.05071  0.67055  0.01530  1.0000
  S   S141      1.0  0.21805  0.60591  0.22816  1.0000
  H   H446      1.0  0.22936  0.90949  0.41970  1.0000
  Fe  Fe68      1.0  0.14193  0.53495  0.17156  1.0000
  S   S142      1.0  0.16787  0.52874  0.18135  1.0000
  Fe  Fe69      1.0  0.10923  0.56354  0.16544  1.0000
  S   S143      1.0  0.10013  0.54862  0.15062  1.0000
  S   S144      1.0  0.09543  0.59124  0.16924  1.0000
  Fe  Fe70      1.0  0.12887  0.54181  0.13733  1.0000
  C   C275      1.0  0.22440  0.70903  0.14758  1.0000
  S   S145      1.0  0.11389  0.54018  0.18802  1.0000
  S   S146      1.0  0.13747  0.55930  0.14988  1.0000
  Fe  Fe71      1.0  0.06935  0.67732  0.04889  1.0000
  S   S147      1.0  0.09257  0.68894  0.04853  1.0000
  S   S148      1.0  0.05277  0.68546  0.02741  1.0000
  Fe  Fe72      1.0  0.07155  0.65322  0.08507  1.0000
  S   S149      1.0  0.09490  0.66229  0.08788  1.0000
  S   S150      1.0  0.05967  0.63056  0.10360  1.0000
  Fe  Fe73      1.0  0.08053  0.68983  0.07743  1.0000
  S   S151      1.0  0.08394  0.71294  0.08724  1.0000
  Fe  Fe74      1.0  0.10553  0.66083  0.05921  1.0000
  S   S152      1.0  0.13523  0.65017  0.05262  1.0000
  S   S153      1.0  0.05590  0.68095  0.07690  1.0000
  S   S154      1.0  0.08356  0.64908  0.05724  1.0000
  Fe  Fe75      1.0  0.10395  0.72100  0.17558  1.0000
  S   S155      1.0  0.11247  0.74731  0.16571  1.0000
  S   S156      1.0  0.08295  0.71176  0.16775  1.0000
  Fe  Fe76      1.0  0.13131  0.70634  0.19918  1.0000
  S   S157      1.0  0.14245  0.73119  0.19104  1.0000
  S   S158      1.0  0.14122  0.68169  0.21841  1.0000
  Fe  Fe77      1.0  0.11366  0.74552  0.19422  1.0000
  S   S159      1.0  0.10227  0.77024  0.20624  1.0000
  Fe  Fe78      1.0  0.14037  0.73076  0.16361  1.0000
  S   S160      1.0  0.16142  0.73613  0.13875  1.0000
  S   S161      1.0  0.10257  0.72057  0.20432  1.0000
  S   S162      1.0  0.13171  0.70461  0.17150  1.0000
  S   S163      1.0  0.21536  0.66401  0.12738  1.0000
  Fe  Fe79      1.0  0.21133  0.53940  0.03812  1.0000
  S   S164      1.0  0.19450  0.54080  0.01910  1.0000
  S   S165      1.0  0.20987  0.51971  0.06421  1.0000
  Fe  Fe80      1.0  0.22850  0.56975  0.01488  1.0000
  S   S166      1.0  0.20439  0.56874  0.03719  1.0000
  S   S167      1.0  0.23669  0.53990  0.01739  1.0000
  C   C276      1.0  0.17723  0.71652  0.13565  1.0000
  C   C277      1.0  0.17738  0.70131  0.14932  1.0000
  C   C278      1.0  0.18928  0.68532  0.14668  1.0000
  C   C279      1.0  0.20117  0.68446  0.13031  1.0000
  C   C280      1.0  0.20137  0.69978  0.11668  1.0000
  C   C281      1.0  0.18936  0.71583  0.11934  1.0000
  H   H447      1.0  0.16846  0.70194  0.16203  1.0000
  H   H448      1.0  0.18946  0.67367  0.15743  1.0000
  H   H449      1.0  0.21060  0.69927  0.10405  1.0000
  H   H450      1.0  0.18936  0.72763  0.10873  1.0000
  C   C282      1.0  0.14199  0.63197  0.04225  1.0000
  H   H451      1.0  0.07540  0.74899  0.16560  1.0000
  C   C283      1.0  0.03552  0.67423  0.00792  1.0000
  C   C284      1.0  0.16527  0.60715  0.03377  1.0000
  C   C285      1.0  0.15901  0.62123  0.04274  1.0000
  H   H452      1.0  0.17854  0.59924  0.03392  1.0000
  H   H453      1.0  0.16740  0.62382  0.05006  1.0000
  C   C286      1.0  0.08382  0.71206  0.10972  1.0000
  C   C287      1.0  0.07859  0.69817  0.12356  1.0000
  C   C288      1.0  0.07843  0.69817  0.14130  1.0000
  C   C289      1.0  0.08401  0.71175  0.14528  1.0000
  C   C290      1.0  0.08948  0.72550  0.13142  1.0000
  C   C291      1.0  0.08919  0.72574  0.11376  1.0000
  H   H454      1.0  0.07431  0.68762  0.12064  1.0000
  H   H455      1.0  0.07398  0.68758  0.15196  1.0000
  H   H456      1.0  0.09352  0.73618  0.13434  1.0000
  H   H457      1.0  0.09309  0.73662  0.10314  1.0000
  C   C292      1.0  0.08430  0.60280  0.15195  1.0000
  C   C293      1.0  0.07519  0.59400  0.14540  1.0000
  C   C294      1.0  0.06718  0.60287  0.13088  1.0000
  C   C295      1.0  0.06856  0.62048  0.12263  1.0000
  C   C296      1.0  0.07743  0.62943  0.12931  1.0000
  C   C297      1.0  0.08513  0.62064  0.14413  1.0000
  H   H458      1.0  0.07424  0.58039  0.15161  1.0000
  H   H459      1.0  0.06028  0.59599  0.12571  1.0000
  H   H460      1.0  0.07819  0.64316  0.12321  1.0000
  H   H461      1.0  0.09207  0.62752  0.14927  1.0000
  C   C298      1.0  0.15388  0.53685  0.09653  1.0000
  C   C299      1.0  0.16741  0.52638  0.10539  1.0000
  C   C300      1.0  0.18465  0.52069  0.09552  1.0000
  C   C301      1.0  0.18836  0.52595  0.07689  1.0000
  C   C302      1.0  0.17480  0.53658  0.06821  1.0000
  C   C303      1.0  0.15757  0.54173  0.07795  1.0000
  H   H462      1.0  0.16459  0.52261  0.11979  1.0000
  H   H463      1.0  0.20092  0.97847  0.23855  1.0000
  H   H464      1.0  0.17748  0.54084  0.05396  1.0000
  H   H465      1.0  0.13406  0.68482  0.13648  1.0000
  H   H466      1.0  0.18803  0.54913  0.29064  1.0000
  H   H467      1.0  0.21123  0.63064  0.00779  1.0000
  C   C304      1.0  0.17388  0.54467  0.18932  1.0000
  C   C305      1.0  0.16098  0.55842  0.19606  1.0000
  C   C306      1.0  0.16600  0.57012  0.20343  1.0000
  C   C307      1.0  0.18402  0.56860  0.20363  1.0000
  C   C308      1.0  0.19700  0.55511  0.19657  1.0000
  C   C309      1.0  0.19189  0.54306  0.18966  1.0000
  H   H468      1.0  0.12591  0.72415  0.11676  1.0000
  H   H469      1.0  0.15580  0.58032  0.20909  1.0000
  H   H470      1.0  0.21091  0.55373  0.19666  1.0000
  H   H471      1.0  0.20194  0.53244  0.18451  1.0000
  C   C310      1.0  0.20122  0.66063  0.20200  1.0000
  C   C311      1.0  0.19095  0.65121  0.21681  1.0000
  C   C312      1.0  0.17260  0.65796  0.22216  1.0000
  C   C313      1.0  0.16446  0.67429  0.21281  1.0000
  C   C314      1.0  0.17479  0.68406  0.19843  1.0000
  C   C315      1.0  0.19311  0.67720  0.19297  1.0000
  H   H472      1.0  0.19708  0.63881  0.22429  1.0000
  H   H473      1.0  0.16467  0.65046  0.23345  1.0000
  H   H474      1.0  0.16861  0.69684  0.19147  1.0000
  H   H475      1.0  0.20082  0.68461  0.18153  1.0000
  C   C316      1.0  0.16571  0.97345  0.25251  1.0000
  H   H476      1.0  0.12982  0.88717  0.41197  1.0000
  H   H477      1.0  0.17074  0.69903  0.09920  1.0000
  C   C317      1.0  0.21896  0.97655  0.20512  1.0000
  C   C318      1.0  0.22385  0.88625  0.31965  1.0000
  H   H478      1.0  0.19513  0.51258  0.10232  1.0000
  H   H479      1.0  0.18999  0.93024  0.34520  1.0000
  N   N29       1.0  0.05322  0.75663  0.18634  1.0000
  H   H480      1.0  0.19507  0.62943  0.02843  1.0000
  H   H481      1.0  0.11515  0.86123  0.42324  1.0000
  H   H482      1.0  0.03252  0.97065  0.38751  1.0000
  C   C319      1.0  0.18101  0.90146  0.43469  1.0000
  Fe  Fe81      1.0  0.24789  0.65941  0.06534  1.0000
  H   H483      1.0  0.16756  0.89913  0.43911  1.0000
  H   H484      1.0  0.17521  0.92311  0.44823  1.0000
  C   C320      1.0  0.11461  0.77523  0.25789  1.0000
  C   C321      1.0  0.11995  0.75877  0.25262  1.0000
  C   C322      1.0  0.11642  0.75704  0.23678  1.0000
  C   C323      1.0  0.10704  0.77169  0.22630  1.0000
  C   C324      1.0  0.10138  0.78806  0.23178  1.0000
  C   C325      1.0  0.10539  0.78992  0.24732  1.0000
  H   H485      1.0  0.12696  0.74728  0.26077  1.0000
  H   H486      1.0  0.12077  0.74431  0.23282  1.0000
  H   H487      1.0  0.09390  0.79939  0.22391  1.0000
  H   H488      1.0  0.10095  0.80261  0.25134  1.0000
  C   C326      1.0  0.17794  0.81878  0.31608  1.0000
  C   C327      1.0  0.19303  0.82195  0.31973  1.0000
  C   C328      1.0  0.19188  0.82690  0.33569  1.0000
  C   C329      1.0  0.17572  0.82835  0.34822  1.0000
  C   C330      1.0  0.16070  0.82499  0.34468  1.0000
  C   C331      1.0  0.16176  0.82033  0.32860  1.0000
  H   H489      1.0  0.20564  0.82062  0.31026  1.0000
  H   H490      1.0  0.20353  0.82946  0.33831  1.0000
  H   H491      1.0  0.14822  0.82600  0.35440  1.0000
  H   H492      1.0  0.15009  0.81782  0.32596  1.0000
  H   H493      1.0  0.07382  0.63411  0.99802  1.0000
  H   H494      1.0  0.19797  0.51196  0.00277  1.0000
  H   H495      1.0  0.22056  0.89594  0.37137  1.0000
  S   S168      1.0  0.13552  0.51681  0.15753  1.0000
  H   H496      1.0  0.05669  0.83817  0.46810  1.0000
  S   S169      1.0  0.16239  0.58613  0.01290  1.0000
  C   C332      1.0  0.18530  0.91510  0.43979  1.0000
  C   C333      1.0  0.11168  0.90801  0.45392  1.0000
  C   C334      1.0  0.09733  0.92269  0.45434  1.0000
  C   C335      1.0  0.09920  0.93836  0.45804  1.0000
  C   C336      1.0  0.11556  0.93967  0.46075  1.0000
  C   C337      1.0  0.12999  0.92510  0.45994  1.0000
  C   C338      1.0  0.12793  0.90922  0.45687  1.0000
  H   H497      1.0  0.08468  0.92186  0.45225  1.0000
  H   H498      1.0  0.08790  0.94949  0.45888  1.0000
  H   H499      1.0  0.14258  0.92590  0.46222  1.0000
  H   H500      1.0  0.13894  0.89779  0.45690  1.0000
  C   C339      1.0  0.09710  0.84705  0.37600  1.0000
  C   C340      1.0  0.08486  0.86062  0.36766  1.0000
  C   C341      1.0  0.08368  0.86109  0.35021  1.0000
  C   C342      1.0  0.09486  0.84815  0.34087  1.0000
  C   C343      1.0  0.10734  0.83474  0.34908  1.0000
  C   C344      1.0  0.10834  0.83414  0.36663  1.0000
  H   H501      1.0  0.07610  0.87061  0.37474  1.0000
  H   H502      1.0  0.07397  0.87150  0.34398  1.0000
  H   H503      1.0  0.11607  0.82471  0.34205  1.0000
  H   H504      1.0  0.11782  0.82358  0.37302  1.0000
  C   C345      1.0  0.20263  0.89153  0.29491  1.0000
  N   N30       1.0  0.01663  0.98639  0.36843  1.0000
  C   C346      1.0  0.21525  0.90205  0.29158  1.0000
  C   C347      1.0  0.19220  0.92177  0.37970  1.0000
  H   H505      1.0  0.21669  0.91234  0.27959  1.0000
  C   C348      1.0  0.18178  0.87869  0.20958  1.0000
  C   C349      1.0  0.17397  0.87349  0.19851  1.0000
  C   C350      1.0  0.15866  0.86622  0.20566  1.0000
  C   C351      1.0  0.15159  0.86335  0.22401  1.0000
  C   C352      1.0  0.15955  0.86824  0.23518  1.0000
  C   C353      1.0  0.17441  0.87626  0.22789  1.0000
  H   H506      1.0  0.17954  0.87550  0.18433  1.0000
  H   H507      1.0  0.15236  0.86275  0.19695  1.0000
  H   H508      1.0  0.15397  0.86630  0.24931  1.0000
  H   H509      1.0  0.18023  0.88048  0.23644  1.0000
  C   C354      1.0  0.09233  0.93279  0.34326  1.0000
  C   C355      1.0  0.08916  0.91620  0.35345  1.0000
  C   C356      1.0  0.07595  0.91533  0.36923  1.0000
  C   C357      1.0  0.06595  0.93102  0.37474  1.0000
  C   C358      1.0  0.06854  0.94755  0.36408  1.0000
  C   C359      1.0  0.08163  0.94843  0.34834  1.0000
  H   H510      1.0  0.09731  0.90403  0.34969  1.0000
  H   H511      1.0  0.07373  0.90252  0.37730  1.0000
  H   H512      1.0  0.06117  0.95968  0.36844  1.0000
  H   H513      1.0  0.08382  0.96129  0.34048  1.0000
  H   H514      1.0  0.19535  0.92452  0.39140  1.0000
  H   H515      1.0  0.17323  0.95994  0.25535  1.0000
  H   H516      1.0  0.08630  0.98832  0.41865  1.0000
  C   C360      1.0  0.06434  0.65581  0.01190  1.0000
  N   N31       1.0  0.14939  0.80751  0.21018  1.0000
  C   C361      1.0  0.16272  0.81645  0.21203  1.0000
  C   C362      1.0  0.13133  0.81887  0.21393  1.0000
  C   C363      1.0  0.15004  0.79011  0.22291  1.0000
  C   C364      1.0  0.15343  0.80463  0.19182  1.0000
  H   H517      1.0  0.15961  0.81947  0.22551  1.0000
  H   H518      1.0  0.06451  0.77862  0.18596  1.0000
  H   H519      1.0  0.17647  0.80808  0.20986  1.0000
  H   H520      1.0  0.13072  0.83259  0.20552  1.0000
  C   C365      1.0  0.21479  0.85139  0.24101  1.0000
  H   H521      1.0  0.12730  0.82028  0.22807  1.0000
  H   H522      1.0  0.14051  0.78281  0.22147  1.0000
  H   H523      1.0  0.09988  0.97159  0.25877  1.0000
  H   H524      1.0  0.16358  0.78134  0.22082  1.0000
  H   H525      1.0  0.14368  0.79774  0.19005  1.0000
  H   H526      1.0  0.24908  0.60196  0.09141  1.0000
  H   H527      1.0  0.15283  0.81751  0.18186  1.0000
  C   C366      1.0  0.06385  0.76475  0.19344  1.0000
  C   C367      1.0  0.21142  0.89385  0.41835  1.0000
  S   S170      1.0  0.20857  0.93415  0.44201  1.0000
  C   C368      1.0  0.08875  0.85262  0.49133  1.0000
  C   C369      1.0  0.15828  0.98279  0.26630  1.0000
  H   H528      1.0  0.18837  0.86614  0.26487  1.0000
  C   C370      1.0  0.24107  0.69417  0.17072  1.0000
  C   C371      1.0  0.21583  0.90731  0.42377  1.0000
  H   H529      1.0  0.21091  0.86611  0.23688  1.0000
  C   C372      1.0  0.07415  0.51281  0.15196  1.0000
  H   H530      1.0  0.04666  0.73779  0.21088  1.0000
  H   H531      1.0  0.13058  0.95973  0.42400  1.0000
  C   C373      1.0  0.13725  0.61410  0.02426  1.0000
  H   H532      1.0  0.03430  0.78117  0.18038  1.0000
  H   H533      1.0  0.11681  0.69451  0.12405  1.0000
  H   H534      1.0  0.23120  0.82087  0.25921  1.0000
  H   H535      1.0  0.05832  0.87291  0.48246  1.0000
  H   H536      1.0  0.18854  0.63017  0.00834  1.0000
  H   H537      1.0  0.06001  0.55745  0.18142  1.0000
  C   C374      1.0  0.03393  0.66331  0.99731  1.0000
  H   H538      1.0  0.00577  0.97358  0.35438  1.0000
  S   S171      1.0  0.23478  0.85624  0.38525  1.0000
  H   H539      1.0  0.24404  0.79802  0.36751  1.0000
  H   H540      1.0  0.18917  0.90819  0.38376  1.0000
  H   H541      1.0  0.21182  0.70533  0.15622  1.0000
  H   H542      1.0  0.19254  0.58298  0.24848  1.0000
  H   H543      1.0  0.06301  0.51857  0.12861  1.0000
  H   H544      1.0  0.18419  0.97838  0.40285  1.0000
  H   H545      1.0  0.23311  0.82622  0.46849  1.0000
  C   C375      1.0  0.20204  0.92019  0.34862  1.0000
  Fe  Fe82      1.0  0.11784  0.95968  0.32649  1.0000
  H   H546      1.0  0.05547  0.53539  0.18742  1.0000
  S   S172      1.0  0.18908  0.98353  0.44692  1.0000
  Fe  Fe83      1.0  0.23358  0.82820  0.38533  1.0000
  N   N32       1.0  0.11829  0.59808  0.09109  1.0000
  C   C376      1.0  0.12023  0.59368  0.10980  1.0000
  C   C377      1.0  0.10432  0.58970  0.08966  1.0000
  C   C378      1.0  0.13551  0.59146  0.07963  1.0000
  H   H547      1.0  0.22643  0.54682  0.26809  1.0000
  H   H548      1.0  0.13077  0.59962  0.11137  1.0000
  H   H549      1.0  0.12388  0.57902  0.11479  1.0000
  H   H550      1.0  0.10755  0.59869  0.11871  1.0000
  H   H551      1.0  0.10250  0.59280  0.07570  1.0000
  H   H552      1.0  0.10776  0.57494  0.09406  1.0000
  H   H553      1.0  0.09114  0.59457  0.09805  1.0000
  H   H554      1.0  0.13436  0.59402  0.06550  1.0000
  H   H555      1.0  0.14018  0.57685  0.08409  1.0000
  H   H556      1.0  0.14616  0.59800  0.07992  1.0000
  H   H557      1.0  0.14622  0.71301  0.08239  1.0000
  H   H558      1.0  0.09893  0.94989  0.25678  1.0000
  H   H559      1.0  0.04588  0.73129  0.19112  1.0000
  H   H560      1.0  0.06123  0.77013  0.15910  1.0000
  H   H561      1.0  0.05409  0.74969  0.16171  1.0000
  C   C379      1.0  0.06128  0.75643  0.16736  1.0000
  C   C380      1.0  0.22906  0.60786  0.03647  1.0000
  Fe  Fe84      1.0  0.18512  0.95557  0.45080  1.0000
  N   N33       1.0  0.16821  0.63382  0.18019  1.0000
  C   C381      1.0  0.17355  0.63671  0.16055  1.0000
  C   C382      1.0  0.18440  0.62851  0.18774  1.0000
  C   C383      1.0  0.15795  0.61947  0.18709  1.0000
  C   C384      1.0  0.15705  0.65046  0.18541  1.0000
  H   H562      1.0  0.18165  0.64720  0.15491  1.0000
  H   H563      1.0  0.16168  0.64083  0.15434  1.0000
  H   H564      1.0  0.18194  0.62433  0.15625  1.0000
  H   H565      1.0  0.19275  0.63881  0.18264  1.0000
  H   H566      1.0  0.18096  0.62630  0.20255  1.0000
  H   H567      1.0  0.19284  0.61580  0.18431  1.0000
  H   H568      1.0  0.14546  0.62301  0.18192  1.0000
  H   H569      1.0  0.15414  0.61663  0.20192  1.0000
  H   H570      1.0  0.16598  0.60676  0.18324  1.0000
  H   H571      1.0  0.15273  0.64867  0.20018  1.0000
  H   H572      1.0  0.14472  0.65499  0.17990  1.0000
  H   H573      1.0  0.16448  0.66149  0.18069  1.0000
  N   N34       1.0  0.07366  0.80123  0.32768  1.0000
  C   C385      1.0  0.08419  0.80397  0.33912  1.0000
  C   C386      1.0  0.06607  0.81868  0.31725  1.0000
  C   C387      1.0  0.05899  0.79248  0.33898  1.0000
  C   C388      1.0  0.08535  0.78981  0.31538  1.0000
  H   H574      1.0  0.07586  0.81271  0.34843  1.0000
  H   H575      1.0  0.09529  0.81062  0.33104  1.0000
  H   H576      1.0  0.09023  0.79112  0.34717  1.0000
  H   H577      1.0  0.05784  0.81722  0.30860  1.0000
  H   H578      1.0  0.05757  0.82786  0.32606  1.0000
  H   H579      1.0  0.07680  0.82552  0.30842  1.0000
  H   H580      1.0  0.05076  0.79021  0.33078  1.0000
  H   H581      1.0  0.04993  0.80076  0.34841  1.0000
  H   H582      1.0  0.06429  0.77927  0.34702  1.0000
  H   H583      1.0  0.07787  0.78725  0.30664  1.0000
  H   H584      1.0  0.09171  0.77665  0.32267  1.0000
  H   H585      1.0  0.09634  0.79615  0.30640  1.0000
  H   H586      1.0  0.23850  0.98348  0.23512  1.0000
  C   C389      1.0  0.03078  0.54273  0.16721  1.0000
  H   H587      1.0  0.12261  0.98201  0.37872  1.0000
  Fe  Fe85      1.0  0.14019  0.97482  0.34195  1.0000
  S   S173      1.0  0.11425  0.96587  0.35318  1.0000
  H   H588      1.0  0.16413  0.65591  0.01438  1.0000
  H   H589      1.0  0.08397  0.52099  0.14563  1.0000
  C   C390      1.0  0.20464  0.54812  0.24687  1.0000
  H   H590      1.0  0.02398  0.54621  0.20106  1.0000
  H   H591      1.0  0.23552  0.50353  0.00911  1.0000
  S   S174      1.0  0.14500  0.96615  0.31619  1.0000
  C   C391      1.0  0.21122  0.94115  0.35947  1.0000
  S   S175      1.0  0.23693  0.68407  0.07692  1.0000
  S   S176      1.0  0.24716  0.64073  0.09191  1.0000
  H   H592      1.0  0.06429  0.54468  0.16474  1.0000
  H   H593      1.0  0.07495  0.88626  0.47615  1.0000
  C   C392      1.0  0.16312  0.98155  0.23525  1.0000
  N   N35       1.0  0.14106  0.87896  0.32334  1.0000
  C   C393      1.0  0.14986  0.89358  0.32212  1.0000
  C   C394      1.0  0.13598  0.87008  0.34223  1.0000
  C   C395      1.0  0.15355  0.86587  0.31328  1.0000
  C   C396      1.0  0.12488  0.88622  0.31572  1.0000
  H   H594      1.0  0.15388  0.90062  0.30805  1.0000
  H   H595      1.0  0.16221  0.88849  0.32763  1.0000
  H   H596      1.0  0.14084  0.90370  0.32963  1.0000
  H   H597      1.0  0.12960  0.85879  0.34358  1.0000
  H   H598      1.0  0.14788  0.86449  0.34843  1.0000
  H   H599      1.0  0.12628  0.87947  0.35018  1.0000
  H   H600      1.0  0.14704  0.85512  0.31325  1.0000
  H   H601      1.0  0.16544  0.85933  0.31928  1.0000
  H   H602      1.0  0.15848  0.87227  0.29917  1.0000
  H   H603      1.0  0.11756  0.87558  0.31705  1.0000
  H   H604      1.0  0.12832  0.89242  0.30133  1.0000
  H   H605      1.0  0.11540  0.89660  0.32256  1.0000
  N   N36       1.0  0.14232  0.86016  0.40944  1.0000
  C   C397      1.0  0.15986  0.84799  0.41012  1.0000
  C   C398      1.0  0.13821  0.86256  0.39181  1.0000
  C   C399      1.0  0.12848  0.85237  0.42349  1.0000
  H   H606      1.0  0.16358  0.84599  0.42315  1.0000
  H   H607      1.0  0.17047  0.85353  0.39960  1.0000
  H   H608      1.0  0.16005  0.83471  0.40786  1.0000
  H   H609      1.0  0.12501  0.87161  0.39077  1.0000
  H   H610      1.0  0.14858  0.86815  0.38088  1.0000
  H   H611      1.0  0.13767  0.84960  0.38929  1.0000
  H   H612      1.0  0.12763  0.83927  0.42157  1.0000
  N   N37       1.0  0.03654  0.55550  0.17387  1.0000
  H   H613      1.0  0.22910  0.68983  0.18014  1.0000
  H   H614      1.0  0.18237  0.95927  0.38401  1.0000
  H   H615      1.0  0.22428  0.85224  0.42444  1.0000
  H   H616      1.0  0.22237  0.56879  0.25455  1.0000
  H   H617      1.0  0.23428  0.85945  0.43824  1.0000
  H   H618      1.0  0.02594  0.95797  0.37578  1.0000
  H   H619      1.0  0.21555  0.84878  0.44789  1.0000
  C   C400      1.0  0.10626  0.95938  0.40606  1.0000
  C   C401      1.0  0.24478  0.60381  0.02385  1.0000
  H   H620      1.0  0.22464  0.72243  0.14918  1.0000
  C   C402      1.0  0.17486  0.97283  0.38234  1.0000
  H   H621      1.0  0.03719  0.97714  0.34711  1.0000
  Fe  Fe86      1.0  0.21921  0.54329  0.99811  1.0000
  C   C403      1.0  0.21610  0.55931  0.26601  1.0000
  H   H622      1.0  0.22683  0.67390  0.15778  1.0000
  H   H623      1.0  0.16047  0.97659  0.27956  1.0000
  C   C404      1.0  0.12386  0.93127  0.27586  1.0000
  C   C405      1.0  0.04796  0.83735  0.48114  1.0000
  H   H624      1.0  0.06322  0.81194  0.49239  1.0000
  C   C406      1.0  0.13986  0.71640  0.11628  1.0000
  H   H625      1.0  0.19020  0.84764  0.28338  1.0000
  H   H626      1.0  0.21453  0.94418  0.37092  1.0000
  C   C407      1.0  0.21698  0.82582  0.26531  1.0000
  H   H627      1.0  0.21502  0.96391  0.21300  1.0000
  H   H628      1.0  0.19965  0.95168  0.35567  1.0000
  H   H629      1.0  0.14751  0.94780  0.25047  1.0000
  S   S177      1.0  0.23613  0.88353  0.33583  1.0000
  C   C408      1.0  0.13121  0.68804  0.12290  1.0000
  C   C409      1.0  0.06298  0.64521  0.00087  1.0000
  H   H630      1.0  0.21015  0.86505  0.33442  1.0000
  Fe  Fe87      1.0  0.18993  0.57036  0.01592  1.0000
  H   H631      1.0  0.11789  0.63671  0.03257  1.0000
  C   C410      1.0  0.23883  0.63331  0.03976  1.0000
  S   S178      1.0  0.16162  0.96471  0.35801  1.0000
  C   C411      1.0  0.11303  0.61759  0.08524  1.0000
  H   H632      1.0  0.11182  0.62137  0.07108  1.0000
  H   H633      1.0  0.16702  0.79623  0.18847  1.0000
  N   N38       1.0  0.19221  0.65520  0.01080  1.0000
  H   H634      1.0  0.10584  0.94933  0.41886  1.0000
  H   H635      1.0  0.12881  0.61140  0.01706  1.0000
  H   H636      1.0  0.14589  0.87621  0.42560  1.0000
  H   H637      1.0  0.19163  0.86964  0.31269  1.0000
  Fe  Fe88      1.0  0.10691  0.52464  0.17172  1.0000
  H   H638      1.0  0.11532  0.95266  0.39537  1.0000
  C   C412      1.0  0.13101  0.62834  0.03313  1.0000
  N   N39       1.0  0.24058  0.83105  0.43990  1.0000
  C   C413      1.0  0.13324  0.95282  0.24946  1.0000
  C   C414      1.0  0.03233  0.98874  0.35371  1.0000
  H   H639      1.0  0.16440  0.67791  0.10394  1.0000
  C   C415      1.0  0.19697  0.63552  0.01394  1.0000
  N   N40       1.0  0.21185  0.84549  0.26061  1.0000
  Fe  Fe89      1.0  0.22634  0.86300  0.35912  1.0000
  H   H640      1.0  0.14706  0.55970  0.19602  1.0000
  H   H641      1.0  0.22733  0.91156  0.37955  1.0000
  H   H642      1.0  0.09261  0.96328  0.40315  1.0000
  H   H643      1.0  0.17465  0.57131  0.25649  1.0000
  H   H644      1.0  0.07787  0.75704  0.19253  1.0000
  C   C416      1.0  0.10236  0.95713  0.26517  1.0000
  H   H645      1.0  0.13996  0.69179  0.08727  1.0000
  H   H646      1.0  0.02637  0.76134  0.18268  1.0000
  H   H647      1.0  0.16289  0.82941  0.20231  1.0000
  S   S179      1.0  0.24352  0.57017  0.21600  1.0000
  C   C417      1.0  0.05484  0.54798  0.17703  1.0000
  H   H648      1.0  0.22791  0.82038  0.42561  1.0000
  H   H649      1.0  0.12108  0.81323  0.21139  1.0000
  H   H650      1.0  0.09830  0.85857  0.47966  1.0000
  C   C418      1.0  0.13798  0.70404  0.09240  1.0000
  H   H651      1.0  0.12366  0.71086  0.09301  1.0000
  C   C419      1.0  0.20372  0.66162  0.01850  1.0000
  C   C420      1.0  0.19403  0.89071  0.42413  1.0000
  H   H652      1.0  0.06687  0.72999  0.19607  1.0000
  N   N41       1.0  0.19985  0.55603  0.26277  1.0000
  H   H653      1.0  0.14893  0.72523  0.10742  1.0000
  H   H654      1.0  0.07613  0.65285  0.01740  1.0000
  C   C421      1.0  0.03292  0.85096  0.48429  1.0000
  Fe  Fe90      1.0  0.13003  0.99389  0.30685  1.0000
  C   C422      1.0  0.16381  0.97935  0.36997  1.0000
  C   C423      1.0  0.15446  0.60355  0.02448  1.0000
  H   H655      1.0  0.22112  0.84882  0.28233  1.0000
  H   H656      1.0  0.13789  0.92589  0.27766  1.0000
  S   S180      1.0  0.13223  0.54434  0.10805  1.0000
  Fe  Fe91      1.0  0.22788  0.92540  0.22370  1.0000
  S   S181      1.0  0.24883  0.58616  0.01271  1.0000
  C   C424      1.0  0.22313  0.90965  0.36805  1.0000
  C   C425      1.0  0.22583  0.89945  0.30402  1.0000
  H   H657      1.0  0.21908  0.59983  0.03995  1.0000
  N   N42       1.0  0.14268  0.69975  0.11005  1.0000
  C   C426      1.0  0.16167  0.69052  0.10868  1.0000
  H   H658      1.0  0.12343  0.97496  0.27211  1.0000
  H   H659      1.0  0.13882  0.95544  0.28068  1.0000
  H   H660      1.0  0.20811  0.98405  0.19784  1.0000
  H   H661      1.0  0.02838  0.56823  0.19621  1.0000
  S   S182      1.0  0.22741  0.83482  0.35803  1.0000
  C   C427      1.0  0.14286  0.87759  0.41236  1.0000
  H   H662      1.0  0.15339  0.88369  0.40213  1.0000
  Fe  Fe92      1.0  0.23797  0.66520  0.10329  1.0000
  S   S183      1.0  0.08737  0.50584  0.18263  1.0000
  C   C428      1.0  0.04965  0.50051  0.15013  1.0000
  H   H663      1.0  0.18240  0.57920  0.27171  1.0000
  H   H664      1.0  0.14712  0.54974  0.07105  1.0000
  H   H665      1.0  0.14645  0.79174  0.23697  1.0000
  H   H666      1.0  0.14247  0.71360  0.12990  1.0000
  H   H667      1.0  0.16560  0.68712  0.12179  1.0000
  H   H668      1.0  0.21305  0.92107  0.33654  1.0000
  H   H669      1.0  0.22907  0.84739  0.23449  1.0000
  N   N43       1.0  0.20713  0.92319  0.36397  1.0000
  C   C429      1.0  0.22608  0.62260  0.04434  1.0000
  H   H670      1.0  0.02284  0.57843  0.15751  1.0000
  H   H671      1.0  0.00989  0.96773  0.39303  1.0000
  C   C430      1.0  0.20278  0.91790  0.43460  1.0000
  C   C431      1.0  0.23940  0.67810  0.14969  1.0000
  H   H672      1.0  0.22276  0.94242  0.34798  1.0000
  H   H673      1.0  0.11490  0.92904  0.28930  1.0000
  H   H674      1.0  0.13067  0.94551  0.24059  1.0000
  C   C432      1.0  0.10010  0.98364  0.42117  1.0000
  H   H675      1.0  0.18403  0.84532  0.26414  1.0000
  N   N44       1.0  0.11246  0.97503  0.40693  1.0000
  Fe  Fe93      1.0  0.10148  0.99352  0.34076  1.0000
  C   C433      1.0  0.13056  0.96918  0.41085  1.0000
  H   H676      1.0  0.21415  0.53501  0.24874  1.0000
  H   H677      1.0  0.05824  0.76515  0.20775  1.0000
  N   N45       1.0  0.12111  0.95042  0.26719  1.0000
  H   H678      1.0  0.02818  0.76759  0.20211  1.0000
  C   C434      1.0  0.21154  0.87550  0.32264  1.0000
  H   H679      1.0  0.21368  0.62594  0.05372  1.0000
  H   H680      1.0  0.09945  0.97430  0.43441  1.0000
  C   C435      1.0  0.11296  0.98791  0.38965  1.0000
  N   N46       1.0  0.22167  0.98685  0.21675  1.0000
  H   H681      1.0  0.20170  0.65656  0.03319  1.0000
  H   H682      1.0  0.12111  0.92324  0.26779  1.0000
  H   H683      1.0  0.03170  0.52942  0.17649  1.0000
  H   H684      1.0  0.23978  0.67849  0.13557  1.0000
  H   H685      1.0  0.01030  0.56467  0.18885  1.0000
  H   H686      1.0  0.23545  0.90771  0.30160  1.0000
  H   H687      1.0  0.21305  0.56526  0.27792  1.0000
  C   C436      1.0  0.23610  0.97623  0.22612  1.0000
  H   H688      1.0  0.23282  0.96334  0.23437  1.0000
  H   H689      1.0  0.24103  0.80391  0.43971  1.0000
  Fe  Fe94      1.0  0.24556  0.58995  0.23059  1.0000
  H   H690      1.0  0.17957  0.54087  0.27630  1.0000
  C   C437      1.0  0.12496  0.96048  0.27837  1.0000
  S   S184      1.0  0.10313  0.98659  0.31479  1.0000
  H   H691      1.0  0.22352  0.71038  0.13355  1.0000
  H   H692      1.0  0.20084  0.67643  0.01608  1.0000
  H   H693      1.0  0.20849  0.81947  0.26083  1.0000
  H   H694      1.0  0.20947  0.50430  0.03420  1.0000
  H   H695      1.0  0.21110  0.55693  0.23492  1.0000
  S   S185      1.0  0.03428  0.50011  0.13775  1.0000
  H   H696      1.0  0.13171  0.96714  0.24259  1.0000
  C   C438      1.0  0.17562  0.98356  0.39330  1.0000
  H   H697      1.0  0.23465  0.91019  0.35643  1.0000
  H   H698      1.0  0.01674  0.54754  0.16539  1.0000
  C   C439      1.0  0.22285  0.85330  0.26758  1.0000
  H   H699      1.0  0.02486  0.68553  0.01056  1.0000
  H   H700      1.0  0.11574  0.95928  0.29167  1.0000
  S   S186      1.0  0.23339  0.65369  0.04696  1.0000
  H   H701      1.0  0.21819  0.65707  0.01282  1.0000
  H   H702      1.0  0.10458  0.99537  0.42227  1.0000
  Fe  Fe95      1.0  0.16856  0.98451  0.47253  1.0000
  N   N47       1.0  0.24035  0.69561  0.15203  1.0000
  S   S187      1.0  0.14526  0.99442  0.45881  1.0000
  H   H703      1.0  0.24065  0.66587  0.44646  1.0000
  H   H704      1.0  0.14023  0.96233  0.40056  1.0000
  C   C440      1.0  0.24524  0.82668  0.45755  1.0000
  H   H705      1.0  0.04048  0.58251  0.16512  1.0000
  H   H706      1.0  0.23947  0.50268  0.03924  1.0000
  C   C441      1.0  0.18676  0.57309  0.25981  1.0000
  H   H707      1.0  0.04580  0.57044  0.14767  1.0000
  C   C442      1.0  0.02143  0.96999  0.38176  1.0000
  H   H708      1.0  0.20665  0.84572  0.23537  1.0000
  C   C443      1.0  0.20492  0.99091  0.22996  1.0000
  H   H709      1.0  0.20136  0.53057  0.28101  1.0000
  C   C444      1.0  0.19276  0.85140  0.26857  1.0000
  Fe  Fe96      1.0  0.16565  0.99142  0.43382  1.0000
  C   C445      1.0  0.06234  0.51129  0.14227  1.0000
  H   H710      1.0  0.13581  0.98070  0.41126  1.0000
  H   H711      1.0  0.04371  0.99011  0.35858  1.0000
  H   H712      1.0  0.21527  0.82084  0.27996  1.0000
  C   C446      1.0  0.06594  0.87949  0.48776  1.0000
  H   H713      1.0  0.14328  0.53977  0.00536  1.0000
  H   H714      1.0  0.17092  0.65594  0.03406  1.0000
  C   C447      1.0  0.23186  0.81728  0.43867  1.0000
  H   H715      1.0  0.21955  0.81622  0.44924  1.0000
  H   H716      1.0  0.24174  0.70713  0.17304  1.0000
  C   C448      1.0  0.22818  0.84863  0.43755  1.0000
  H   H717      1.0  0.15657  0.55241  0.00988  1.0000
  H   H718      1.0  0.23733  0.84956  0.26159  1.0000
  H   H719      1.0  0.08148  0.84540  0.48635  1.0000
  H   H720      1.0  0.24894  0.97278  0.21656  1.0000
  C   C449      1.0  0.15662  0.54341  0.00128  1.0000
  H   H721      1.0  0.09962  0.99226  0.38595  1.0000
  C   C450      1.0  0.17327  0.66098  0.01936  1.0000
  H   H722      1.0  0.16674  0.53099  0.00439  1.0000
  H   H723      1.0  0.24872  0.64620  0.47443  1.0000
  H   H724      1.0  0.16903  0.67576  0.01696  1.0000
  C   C451      1.0  0.00182  0.98490  0.36130  1.0000
  H   H725      1.0  0.25070  0.66738  0.15379  1.0000
  H   H726      1.0  0.05418  0.86805  0.52295  1.0000
  H   H727      1.0  0.17850  0.56654  0.98523  1.0000
  H   H728      1.0  0.14769  0.53537  0.97465  1.0000
  H   H729      1.0  0.02569  0.59777  0.91405  1.0000
  C   C452      1.0  0.01958  0.58697  0.91448  1.0000
  Fe  Fe97      1.0  0.01268  0.83192  0.58218  1.0000
  S   S188      1.0  0.02791  0.84242  0.55508  1.0000
  H   H730      1.0  0.16568  0.53909  0.82526  1.0000
  Fe  Fe98      1.0  0.04429  0.80439  0.59224  1.0000
  S   S189      1.0  0.06283  0.81252  0.56612  1.0000
  S   S190      1.0  0.05329  0.78072  0.61297  1.0000
  Fe  Fe99      1.0  0.04948  0.84049  0.56906  1.0000
  S   S191      1.0  0.06185  0.86461  0.55901  1.0000
  Fe  Fe100     1.0  0.03988  0.81386  0.55415  1.0000
  S   S192      1.0  0.04553  0.80339  0.52931  1.0000
  S   S193      1.0  0.03315  0.83235  0.59652  1.0000
  S   S194      1.0  0.02244  0.80342  0.57991  1.0000
  C   C453      1.0  0.04785  0.64893  0.99342  1.0000
  H   H731      1.0  0.09674  0.84256  0.50048  1.0000
  H   H732      1.0  0.03697  0.69533  0.95856  1.0000
  S   S195      1.0  0.02779  0.90620  0.62104  1.0000
  H   H733      1.0  0.01658  0.63002  0.89804  1.0000
  N   N48       1.0  0.18001  0.51212  0.83243  1.0000
  H   H734      1.0  0.01007  0.96868  0.64574  1.0000
  H   H735      1.0  0.07734  0.88626  0.51371  1.0000
  H   H736      1.0  0.08120  0.50552  0.87500  1.0000
  C   C454      1.0  0.04705  0.52408  0.88226  1.0000
  H   H737      1.0  0.18634  0.65810  0.98525  1.0000
  H   H738      1.0  0.04972  0.51139  0.89216  1.0000
  H   H739      1.0  0.05069  0.76259  0.53855  1.0000
  S   S196      1.0  0.01168  0.56366  0.87882  1.0000
  C   C455      1.0  0.06381  0.85801  0.51574  1.0000
  S   S197      1.0  0.08182  0.52438  0.80502  1.0000
  H   H740      1.0  0.00184  0.91771  0.56569  1.0000
  H   H741      1.0  0.01883  0.76668  0.58161  1.0000
  N   N49       1.0  0.00636  0.74728  0.68525  1.0000
  C   C456      1.0  0.05154  0.82242  0.49484  1.0000
  H   H742      1.0  0.03566  0.72831  0.57808  1.0000
  H   H743      1.0  0.01008  0.88845  0.58486  1.0000
  C   C457      1.0  0.16072  0.53956  0.97131  1.0000
  H   H744      1.0  0.02412  0.77678  0.55824  1.0000
  H   H745      1.0  0.04835  0.92404  0.63492  1.0000
  C   C458      1.0  0.16441  0.50445  0.83426  1.0000
  C   C459      1.0  0.17819  0.55695  0.97746  1.0000
  C   C460      1.0  0.05447  0.76410  0.57052  1.0000
  S   S198      1.0  0.22604  0.52766  0.97622  1.0000
  C   C461      1.0  0.21829  0.50347  0.96177  1.0000
  C   C462      1.0  0.02484  0.76380  0.56808  1.0000
  C   C463      1.0  0.19050  0.50133  0.84591  1.0000
  C   C464      1.0  0.01025  0.75771  0.62562  1.0000
  H   H746      1.0  0.22850  0.50736  0.95032  1.0000
  H   H747      1.0  0.15605  0.51247  0.82447  1.0000
  C   C465      1.0  0.05509  0.54044  0.85215  1.0000
  H   H748      1.0  0.18512  0.53685  0.83387  1.0000
  H   H749      1.0  0.04917  0.76740  0.58390  1.0000
  C   C466      1.0  0.00958  0.88197  0.57427  1.0000
  C   C467      1.0  0.05630  0.50443  0.81228  1.0000
  Fe  Fe101     1.0  0.01564  0.60887  0.94965  1.0000
  H   H750      1.0  0.01861  0.72613  0.67094  1.0000
  H   H751      1.0  0.07112  0.84814  0.52561  1.0000
  H   H752      1.0  0.17126  0.52722  0.97350  1.0000
  H   H753      1.0  0.04714  0.70177  0.91695  1.0000
  H   H754      1.0  0.18380  0.52010  0.80389  1.0000
  S   S199      1.0  0.01524  0.58034  0.95083  1.0000
  C   C468      1.0  0.05463  0.87680  0.57588  1.0000
  C   C469      1.0  0.04758  0.89518  0.57188  1.0000
  C   C470      1.0  0.03899  0.90433  0.58570  1.0000
  C   C471      1.0  0.03826  0.89523  0.60347  1.0000
  C   C472      1.0  0.04608  0.87708  0.60737  1.0000
  C   C473      1.0  0.05394  0.86780  0.59361  1.0000
  H   H755      1.0  0.04801  0.90214  0.55815  1.0000
  H   H756      1.0  0.03296  0.91836  0.58262  1.0000
  H   H757      1.0  0.04560  0.87004  0.62109  1.0000
  H   H758      1.0  0.05946  0.85363  0.59676  1.0000
  C   C474      1.0  0.01782  0.73969  0.63125  1.0000
  H   H759      1.0  0.08034  0.92644  0.62252  1.0000
  C   C475      1.0  0.02099  0.77051  0.62017  1.0000
  C   C476      1.0  0.03927  0.76528  0.62040  1.0000
  C   C477      1.0  0.04670  0.74729  0.62626  1.0000
  C   C478      1.0  0.03605  0.73453  0.63151  1.0000
  H   H760      1.0  0.01093  0.88232  0.54008  1.0000
  N   N50       1.0  0.04349  0.75360  0.56695  1.0000
  H   H761      1.0  0.06081  0.74319  0.62648  1.0000
  H   H762      1.0  0.04196  0.72060  0.63584  1.0000
  H   H763      1.0  0.19707  0.98345  0.56882  1.0000
  C   C479      1.0  0.19135  0.51212  0.81438  1.0000
  H   H764      1.0  0.04289  0.74204  0.54566  1.0000
  N   N51       1.0  0.05771  0.94416  0.61285  1.0000
  C   C480      1.0  0.07776  0.51873  0.86601  1.0000
  C   C481      1.0  0.17371  0.53060  0.83518  1.0000
  S   S200      1.0  0.00543  0.95219  0.59369  1.0000
  H   H765      1.0  0.09427  0.86634  0.51638  1.0000
  H   H766      1.0  0.00964  0.85983  0.50361  1.0000
  C   C482      1.0  0.01787  0.97893  0.64053  1.0000
  C   C483      1.0  0.03131  0.97913  0.64897  1.0000
  C   C484      1.0  0.21426  0.51142  0.97653  1.0000
  C   C485      1.0  0.01894  0.58295  0.89859  1.0000
  C   C486      1.0  0.02132  0.74406  0.69427  1.0000
  H   H767      1.0  0.03383  0.96894  0.66064  1.0000
  C   C487      1.0  0.04021  0.82121  0.51175  1.0000
  C   C488      1.0  0.02504  0.83469  0.51478  1.0000
  H   H768      1.0  0.01597  0.83359  0.52766  1.0000
  C   C489      1.0  0.02471  0.51569  0.82329  1.0000
  C   C490      1.0  0.02822  0.53250  0.82138  1.0000
  C   C491      1.0  0.04568  0.53533  0.81464  1.0000
  C   C492      1.0  0.05981  0.52119  0.81057  1.0000
  H   H769      1.0  0.04441  0.94562  0.63991  1.0000
  H   H770      1.0  0.05324  0.65422  0.94056  1.0000
  H   H771      1.0  0.03823  0.73906  0.59406  1.0000
  H   H772      1.0  0.04833  0.54838  0.81310  1.0000
  H   H773      1.0  0.03440  0.67307  0.96108  1.0000
  H   H774      1.0  0.19605  0.49835  0.81180  1.0000
  N   N52       1.0  0.16053  0.55206  0.98219  1.0000
  H   H775      1.0  0.06493  0.74235  0.54749  1.0000
  H   H776      1.0  0.04514  0.93613  0.59642  1.0000
  H   H777      1.0  0.01505  0.78444  0.61614  1.0000
  H   H778      1.0  0.01990  0.73349  0.70667  1.0000
  H   H779      1.0  0.14613  0.57796  0.98688  1.0000
  C   C493      1.0  0.01255  0.65758  0.88446  1.0000
  H   H780      1.0  0.05738  0.70854  0.93097  1.0000
  C   C494      1.0  0.06919  0.67549  0.94907  1.0000
  C   C495      1.0  0.03870  0.50175  0.81839  1.0000
  S   S201      1.0  0.05874  0.99168  0.65300  1.0000
  H   H781      1.0  0.02192  0.75635  0.69804  1.0000
  C   C496      1.0  0.05769  0.69730  0.92498  1.0000
  H   H782      1.0  0.16511  0.53099  0.84870  1.0000
  Fe  Fe102     1.0  0.01704  0.64631  0.92705  1.0000
  H   H783      1.0  0.06088  0.96787  0.59257  1.0000
  C   C497      1.0  0.00597  0.63409  0.87471  1.0000
  H   H784      1.0  0.05473  0.77692  0.56057  1.0000
  C   C498      1.0  0.00877  0.76135  0.66891  1.0000
  H   H785      1.0  0.03806  0.96656  0.60309  1.0000
  Fe  Fe103     1.0  0.02665  0.63576  0.96374  1.0000
  H   H786      1.0  0.04098  0.54397  0.85047  1.0000
  H   H787      1.0  0.05767  0.72860  0.58003  1.0000
  H   H788      1.0  0.04402  0.67027  0.92298  1.0000
  N   N53       1.0  0.07622  0.86647  0.50040  1.0000
  H   H789      1.0  0.04144  0.51222  0.85559  1.0000
  H   H790      1.0  0.01749  0.54337  0.82493  1.0000
  H   H791      1.0  0.08569  0.94483  0.60467  1.0000
  N   N54       1.0  0.05482  0.68117  0.93887  1.0000
  C   C499      1.0  0.01439  0.99213  0.62555  1.0000
  H   H792      1.0  0.02460  0.59070  0.88593  1.0000
  H   H793      1.0  0.02620  0.69030  0.94377  1.0000
  S   S202      1.0  0.21357  0.57331  0.99327  1.0000
  H   H794      1.0  0.21117  0.99509  0.55019  1.0000
  C   C500      1.0  0.04380  0.73662  0.58032  1.0000
  C   C501      1.0  0.01129  0.56884  0.89901  1.0000
  H   H795      1.0  0.04879  0.53501  0.88752  1.0000
  H   H796      1.0  0.15571  0.50375  0.84784  1.0000
  H   H797      1.0  0.06753  0.66320  0.95950  1.0000
  H   H798      1.0  0.08693  0.51810  0.85276  1.0000
  H   H799      1.0  0.05197  0.97162  0.61471  1.0000
  H   H800      1.0  0.06252  0.91920  0.60493  1.0000
  H   H801      1.0  0.07545  0.94850  0.62676  1.0000
  C   C502      1.0  0.05847  0.93381  0.59970  1.0000
  H   H802      1.0  0.19145  0.67753  0.98855  1.0000
  H   H803      1.0  0.08083  0.52894  0.87127  1.0000
  C   C503      1.0  0.03733  0.68522  0.95107  1.0000
  C   C504      1.0  0.04483  0.93864  0.62941  1.0000
  N   N55       1.0  0.05882  0.52305  0.86456  1.0000
  C   C505      1.0  0.05191  0.96338  0.60546  1.0000
  H   H804      1.0  0.00885  0.77418  0.67195  1.0000
  S   S203      1.0  0.12292  0.50014  0.82384  1.0000
  H   H805      1.0  0.18898  0.54507  0.98019  1.0000
  S   S204      1.0  0.04785  0.63609  0.97819  1.0000
  C   C506      1.0  0.01317  0.57643  0.93086  1.0000
  H   H806      1.0  0.06814  0.93746  0.58705  1.0000
  C   C507      1.0  0.07561  0.94082  0.61686  1.0000
  H   H807      1.0  0.20335  0.51769  0.81247  1.0000
  S   S205      1.0  0.03764  0.62426  0.93891  1.0000
  H   H808      1.0  0.03269  0.52694  0.88159  1.0000
  H   H809      1.0  0.01575  0.90925  0.54673  1.0000
  H   H810      1.0  0.05708  0.55145  0.85709  1.0000
  H   H811      1.0  0.16352  0.54566  0.95682  1.0000
  H   H812      1.0  0.03103  0.94156  0.62703  1.0000
  H   H813      1.0  0.01622  0.75630  0.56533  1.0000
  S   S206      1.0  0.00502  0.72325  0.63803  1.0000
  H   H814      1.0  0.06856  0.75672  0.57010  1.0000
  C   C508      1.0  0.14660  0.56834  0.97873  1.0000
  S   S207      1.0  0.02018  0.66459  0.89981  1.0000
  C   C509      1.0  0.05536  0.50900  0.85775  1.0000
  C   C510      1.0  0.05500  0.66668  0.93041  1.0000
  H   H815      1.0  0.06915  0.68588  0.95607  1.0000
  H   H816      1.0  0.02329  0.87903  0.56609  1.0000
  H   H817      1.0  0.05594  0.85086  0.51146  1.0000
  H   H818      1.0  0.06786  0.66341  0.92087  1.0000
  H   H819      1.0  0.19368  0.51023  0.76428  1.0000
  H   H820      1.0  0.07083  0.69476  0.91561  1.0000
  C   C511      1.0  0.05083  0.74993  0.54887  1.0000
  C   C512      1.0  0.02137  0.84948  0.50108  1.0000
  H   H821      1.0  0.08262  0.67247  0.94031  1.0000
  H   H822      1.0  0.00587  0.86894  0.58104  1.0000
  H   H823      1.0  0.14917  0.57535  0.96449  1.0000
  H   H824      1.0  0.18174  0.56325  0.96309  1.0000
  C   C513      1.0  0.01195  0.63968  0.88694  1.0000
  H   H825      1.0  0.13307  0.56521  0.98212  1.0000
  C   C514      1.0  0.00419  0.55872  0.91539  1.0000
  H   H826      1.0  0.17356  0.99088  0.55104  1.0000
  C   C515      1.0  0.08640  0.87575  0.50673  1.0000
  H   H827      1.0  0.06399  0.54031  0.83873  1.0000
  C   C516      1.0  0.00701  0.66990  0.86965  1.0000
  S   S208      1.0  0.00605  0.61866  0.97519  1.0000
  H   H828      1.0  0.20215  0.50693  0.84524  1.0000
  H   H829      1.0  0.06460  0.50738  0.84478  1.0000
  C   C517      1.0  0.20109  0.50617  0.99126  1.0000
  H   H830      1.0  0.20906  0.65853  0.98462  1.0000
  H   H831      1.0  0.00776  0.68371  0.86750  1.0000
  C   C518      1.0  0.00202  0.91075  0.55520  1.0000
  H   H832      1.0  0.03441  0.73964  0.68549  1.0000
  C   C519      1.0  0.04155  0.99235  0.64238  1.0000
  C   C520      1.0  0.00613  0.73063  0.68047  1.0000
  S   S209      1.0  0.00297  0.51191  0.83202  1.0000
  S   S210      1.0  0.00764  0.65902  0.95087  1.0000
  H   H833      1.0  0.09592  0.88230  0.49545  1.0000
  C   C521      1.0  0.00541  0.56234  0.93131  1.0000
  C   C522      1.0  0.19488  0.66269  0.99143  1.0000
  H   H834      1.0  0.02164  0.75750  0.65957  1.0000
  H   H835      1.0  0.21471  0.49884  0.73872  1.0000
  H   H836      1.0  0.00479  0.71958  0.69241  1.0000
  H   H837      1.0  0.02200  0.66615  0.99208  1.0000
  Fe  Fe104     1.0  0.00418  0.92806  0.61576  1.0000
  H   H838      1.0  0.00596  0.62014  0.87658  1.0000
  H   H839      1.0  0.18221  0.50063  0.85969  1.0000
  Fe  Fe105     1.0  0.10245  0.49911  0.80981  1.0000
  C   C523      1.0  0.19435  0.49693  0.76282  1.0000
  H   H840      1.0  0.05617  0.89002  0.49416  1.0000
  S   S211      1.0  0.48039  0.43598  0.48176  1.0000
  C   C524      1.0  0.31853  0.02197  0.01129  1.0000
  C   C525      1.0  0.38512  0.13014  0.00871  1.0000
  H   H841      1.0  0.46136  0.47280  0.47414  1.0000
  C   C526      1.0  0.44384  0.11115  0.02026  1.0000
  H   H842      1.0  0.47109  0.49214  0.44483  1.0000
  H   H843      1.0  0.43610  0.12934  0.04630  1.0000
  S   S212      1.0  0.34306  0.05935  0.99722  1.0000
  C   C527      1.0  0.44968  0.47026  0.44657  1.0000
  C   C528      1.0  0.36991  0.12306  0.01168  1.0000
  H   H844      1.0  0.41678  0.48607  0.46313  1.0000
  H   H845      1.0  0.36047  0.02739  0.01960  1.0000
  C   C529      1.0  0.44737  0.47998  0.47343  1.0000
  C   C530      1.0  0.49022  0.16078  0.00238  1.0000
  H   H846      1.0  0.44629  0.11015  0.00610  1.0000
  C   C531      1.0  0.36808  0.11438  0.99936  1.0000
  C   C532      1.0  0.47349  0.11630  0.01608  1.0000
  H   H847      1.0  0.44430  0.49149  0.47994  1.0000
  H   H848      1.0  0.44737  0.09744  0.02826  1.0000
  H   H849      1.0  0.46375  0.46300  0.44675  1.0000
  C   C533      1.0  0.50072  0.43002  0.48877  1.0000
  H   H850      1.0  0.47690  0.01596  0.18891  1.0000
  H   H851      1.0  0.34736  0.00750  0.04696  1.0000
  H   H852      1.0  0.48172  0.12475  0.01797  1.0000
  H   H853      1.0  0.48472  0.35933  0.48074  1.0000
  C   C534      1.0  0.35786  0.00186  0.03694  1.0000
  C   C535      1.0  0.47001  0.38898  0.49390  1.0000
  H   H854      1.0  0.44089  0.46061  0.45376  1.0000
  H   H855      1.0  0.35968  0.12409  0.02366  1.0000
  H   H856      1.0  0.38648  0.13672  0.01837  1.0000
  N   N56       1.0  0.45417  0.12319  0.02229  1.0000
  H   H857      1.0  0.49095  0.15864  0.13405  1.0000
  C   C536      1.0  0.36517  0.01311  0.02141  1.0000
  H   H858      1.0  0.43413  0.14656  0.01543  1.0000
  C   C537      1.0  0.45057  0.12412  0.04124  1.0000
  C   C538      1.0  0.46272  0.00025  0.17144  1.0000
  C   C539      1.0  0.37859  0.00586  0.00834  1.0000
  H   H859      1.0  0.43835  0.47080  0.48148  1.0000
  H   H860      1.0  0.49419  0.00557  0.17291  1.0000
  C   C540      1.0  0.44878  0.14122  0.01157  1.0000
  H   H861      1.0  0.45820  0.13311  0.04320  1.0000
  H   H862      1.0  0.45583  0.15083  0.01324  1.0000
  H   H863      1.0  0.30768  0.01792  0.02263  1.0000
  H   H864      1.0  0.25282  0.48380  0.00848  1.0000
  H   H865      1.0  0.48734  0.18149  0.12192  1.0000
  H   H866      1.0  0.45446  0.11075  0.04975  1.0000
  H   H867      1.0  0.42916  0.11613  0.02449  1.0000
  N   N57       1.0  0.44499  0.48589  0.45485  1.0000
  H   H868      1.0  0.44823  0.47433  0.43241  1.0000
  H   H869      1.0  0.47965  0.17165  0.00636  1.0000
  N   N58       1.0  0.32437  0.00964  0.99889  1.0000
  H   H870      1.0  0.49926  0.16926  0.15717  1.0000
  H   H871      1.0  0.49293  0.99644  0.19626  1.0000
  H   H872      1.0  0.49664  0.19172  0.14413  1.0000
  H   H873      1.0  0.31340  0.03586  0.00443  1.0000
  H   H874      1.0  0.45429  0.01338  0.17371  1.0000
  H   H875      1.0  0.46963  0.39112  0.47961  1.0000
  H   H876      1.0  0.47184  0.00267  0.15810  1.0000
  H   H877      1.0  0.49244  0.11801  0.15012  1.0000
  S   S213      1.0  0.34923  0.10494  0.00380  1.0000
  H   H878      1.0  0.25600  0.48233  0.03910  1.0000
  H   H879      1.0  0.47682  0.11604  0.00163  1.0000
  H   H880      1.0  0.32975  0.02234  0.01698  1.0000
  H   H881      1.0  0.45169  0.00104  0.20621  1.0000
  H   H882      1.0  0.29794  0.00525  0.00238  1.0000
  H   H883      1.0  0.47794  0.10250  0.02348  1.0000
  C   C541      1.0  0.48472  0.00284  0.18598  1.0000
  C   C542      1.0  0.49758  0.16895  0.12402  1.0000
  H   H884      1.0  0.45175  0.14112  0.99713  1.0000
  C   C543      1.0  0.42611  0.49483  0.45473  1.0000
  S   S214      1.0  0.38660  0.08982  0.92527  1.0000
  H   H885      1.0  0.31176  0.16496  0.96224  1.0000
  C   C544      1.0  0.49521  0.46051  0.56802  1.0000
  Fe  Fe106     1.0  0.30127  0.16350  0.90067  1.0000
  S   S215      1.0  0.29051  0.18432  0.87868  1.0000
  S   S216      1.0  0.32857  0.15956  0.90593  1.0000
  S   S217      1.0  0.27642  0.16845  0.92159  1.0000
  S   S218      1.0  0.29450  0.14103  0.89365  1.0000
  Fe  Fe107     1.0  0.42621  0.04768  0.85048  1.0000
  S   S219      1.0  0.42758  0.07541  0.83516  1.0000
  S   S220      1.0  0.39994  0.04361  0.86836  1.0000
  Fe  Fe108     1.0  0.46492  0.03299  0.83540  1.0000
  S   S221      1.0  0.46950  0.05956  0.81845  1.0000
  Fe  Fe109     1.0  0.45395  0.07026  0.84273  1.0000
  S   S222      1.0  0.46205  0.09229  0.84973  1.0000
  Fe  Fe110     1.0  0.44257  0.06229  0.81241  1.0000
  S   S223      1.0  0.43384  0.07746  0.78689  1.0000
  S   S224      1.0  0.45137  0.04349  0.86014  1.0000
  S   S225      1.0  0.43929  0.03467  0.82727  1.0000
  Fe  Fe111     1.0  0.34482  0.07496  0.77072  1.0000
  S   S226      1.0  0.33980  0.09640  0.74666  1.0000
  S   S227      1.0  0.36959  0.05333  0.77289  1.0000
  Fe  Fe112     1.0  0.31083  0.08993  0.79479  1.0000
  S   S228      1.0  0.30277  0.11268  0.77290  1.0000
  S   S229      1.0  0.29926  0.08696  0.82428  1.0000
  Fe  Fe113     1.0  0.31125  0.09251  0.75545  1.0000
  S   S230      1.0  0.29475  0.09919  0.73398  1.0000
  Fe  Fe114     1.0  0.33148  0.11502  0.76554  1.0000
  S   S231      1.0  0.33774  0.14246  0.75907  1.0000
  S   S232      1.0  0.31707  0.06926  0.77823  1.0000
  S   S233      1.0  0.33873  0.09392  0.78874  1.0000
  Fe  Fe115     1.0  0.38549  0.20159  0.82609  1.0000
  S   S234      1.0  0.39863  0.17268  0.83217  1.0000
  S   S235      1.0  0.36231  0.21587  0.84389  1.0000
  Fe  Fe116     1.0  0.40799  0.20823  0.78906  1.0000
  S   S236      1.0  0.42350  0.17994  0.79155  1.0000
  S   S237      1.0  0.40844  0.23156  0.76567  1.0000
  Fe  Fe117     1.0  0.39702  0.17240  0.80464  1.0000
  S   S238      1.0  0.39189  0.14646  0.80301  1.0000
  Fe  Fe118     1.0  0.42419  0.18185  0.81900  1.0000
  S   S239      1.0  0.44797  0.16612  0.83085  1.0000
  S   S240      1.0  0.38127  0.20046  0.79978  1.0000
  S   S241      1.0  0.41126  0.21103  0.81529  1.0000
  Fe  Fe119     1.0  0.47879  0.13251  0.95448  1.0000
  S   S242      1.0  0.45512  0.15528  0.95516  1.0000
  C   C545      1.0  0.30408  0.07929  0.65741  1.0000
  Fe  Fe120     1.0  0.46123  0.11204  0.93875  1.0000
  S   S243      1.0  0.43588  0.13301  0.93886  1.0000
  S   S244      1.0  0.46350  0.08653  0.93017  1.0000
  Fe  Fe121     1.0  0.45447  0.15204  0.92818  1.0000
  S   S245      1.0  0.44800  0.17651  0.90701  1.0000
  Fe  Fe122     1.0  0.43879  0.13418  0.96570  1.0000
  H   H886      1.0  0.32912  0.38269  0.58935  1.0000
  S   S246      1.0  0.47981  0.13103  0.92626  1.0000
  S   S247      1.0  0.46252  0.11147  0.96676  1.0000
  H   H887      1.0  0.49836  0.38651  0.69158  1.0000
  C   C546      1.0  0.29604  0.45055  0.69981  1.0000
  H   H888      1.0  0.25077  0.09116  0.87631  1.0000
  Fe  Fe123     1.0  0.28632  0.20751  0.56092  1.0000
  C   C547      1.0  0.33878  0.01555  0.98411  1.0000
  S   S248      1.0  0.31141  0.21923  0.55085  1.0000
  H   H889      1.0  0.35710  0.09182  0.81774  1.0000
  H   H890      1.0  0.45716  0.38542  0.50207  1.0000
  H   H891      1.0  0.25886  0.32162  0.77214  1.0000
  H   H892      1.0  0.25970  0.14203  0.56704  1.0000
  S   S249      1.0  0.28505  0.17830  0.56940  1.0000
  Fe  Fe124     1.0  0.35894  0.33129  0.54852  1.0000
  S   S250      1.0  0.33054  0.33484  0.56402  1.0000
  S   S251      1.0  0.36661  0.35336  0.52530  1.0000
  Fe  Fe125     1.0  0.37079  0.29783  0.57510  1.0000
  S   S252      1.0  0.34350  0.29901  0.59283  1.0000
  S   S253      1.0  0.39425  0.27716  0.58335  1.0000
  Fe  Fe126     1.0  0.33412  0.30515  0.56722  1.0000
  S   S254      1.0  0.31105  0.29274  0.56832  1.0000
  Fe  Fe127     1.0  0.34259  0.32829  0.58801  1.0000
  S   S255      1.0  0.33258  0.34562  0.60843  1.0000
  S   S256      1.0  0.36168  0.30209  0.54956  1.0000
  S   S257      1.0  0.37068  0.32654  0.57231  1.0000
  Fe  Fe128     1.0  0.44201  0.43736  0.54341  1.0000
  S   S258      1.0  0.44510  0.45761  0.51797  1.0000
  S   S259      1.0  0.44628  0.44017  0.56896  1.0000
  Fe  Fe129     1.0  0.42982  0.41239  0.52836  1.0000
  C   C548      1.0  0.25639  0.13743  0.55695  1.0000
  S   S260      1.0  0.42783  0.38340  0.53716  1.0000
  H   H893      1.0  0.37972  0.10715  0.97389  1.0000
  H   H894      1.0  0.27551  0.48270  0.70365  1.0000
  H   H895      1.0  0.26989  0.44533  0.68730  1.0000
  C   C549      1.0  0.31282  0.13131  0.98101  1.0000
  S   S261      1.0  0.45664  0.41419  0.53098  1.0000
  S   S262      1.0  0.41487  0.43428  0.54301  1.0000
  S   S263      1.0  0.43152  0.43068  0.50128  1.0000
  H   H896      1.0  0.47217  0.35357  0.50311  1.0000
  H   H897      1.0  0.35035  0.01620  0.98913  1.0000
  H   H898      1.0  0.47253  0.36985  0.52626  1.0000
  Fe  Fe130     1.0  0.26491  0.18765  0.89905  1.0000
  H   H899      1.0  0.42576  0.02098  0.96835  1.0000
  H   H900      1.0  0.33400  0.02906  0.97632  1.0000
  Fe  Fe131     1.0  0.39406  0.42463  0.64257  1.0000
  S   S264      1.0  0.37372  0.42470  0.66842  1.0000
  S   S265      1.0  0.41092  0.44492  0.62719  1.0000
  Fe  Fe132     1.0  0.38781  0.39013  0.63820  1.0000
  S   S266      1.0  0.36712  0.38697  0.66342  1.0000
  S   S267      1.0  0.39704  0.36915  0.62185  1.0000
  Fe  Fe133     1.0  0.35678  0.41627  0.65488  1.0000
  S   S268      1.0  0.32726  0.42698  0.65634  1.0000
  Fe  Fe134     1.0  0.38566  0.39534  0.67484  1.0000
  S   S269      1.0  0.39178  0.37970  0.70117  1.0000
  S   S270      1.0  0.37602  0.41878  0.62832  1.0000
  S   S271      1.0  0.40739  0.39606  0.65030  1.0000
  Fe  Fe135     1.0  0.46032  0.26084  0.67546  1.0000
  H   H901      1.0  0.45056  0.29943  0.57408  1.0000
  S   S272      1.0  0.46587  0.23391  0.69389  1.0000
  Fe  Fe136     1.0  0.43395  0.28863  0.65584  1.0000
  S   S273      1.0  0.45136  0.30876  0.64615  1.0000
  S   S274      1.0  0.40626  0.29625  0.65060  1.0000
  Fe  Fe137     1.0  0.47324  0.28531  0.64019  1.0000
  Fe  Fe138     1.0  0.45735  0.30009  0.67348  1.0000
  S   S275      1.0  0.45913  0.31690  0.69122  1.0000
  S   S276      1.0  0.45531  0.26564  0.64797  1.0000
  S   S277      1.0  0.43750  0.28252  0.68394  1.0000
  S   S278      1.0  0.27458  0.38695  0.71921  1.0000
  H   H902      1.0  0.31510  0.11657  0.98302  1.0000
  C   C550      1.0  0.25934  0.06805  0.72189  1.0000
  H   H903      1.0  0.27538  0.09759  0.67680  1.0000
  H   H904      1.0  0.27811  0.14099  0.96008  1.0000
  H   H905      1.0  0.27882  0.46947  0.72515  1.0000
  H   H906      1.0  0.43599  0.29499  0.71818  1.0000
  C   C551      1.0  0.42614  0.03542  0.96400  1.0000
  C   C552      1.0  0.28245  0.06262  0.67715  1.0000
  H   H907      1.0  0.31366  0.06681  0.65465  1.0000
  C   C553      1.0  0.28168  0.07296  0.64592  1.0000
  H   H908      1.0  0.39298  0.05249  0.82737  1.0000
  H   H909      1.0  0.30002  0.15099  0.75306  1.0000
  C   C554      1.0  0.35394  0.08336  0.83132  1.0000
  C   C555      1.0  0.45677  0.10585  0.80059  1.0000
  S   S279      1.0  0.27223  0.28534  0.85876  1.0000
  H   H910      1.0  0.40920  0.45158  0.58285  1.0000
  C   C556      1.0  0.31327  0.41431  0.67295  1.0000
  C   C557      1.0  0.31955  0.40222  0.68742  1.0000
  C   C558      1.0  0.30770  0.39346  0.70134  1.0000
  C   C559      1.0  0.28952  0.39685  0.70093  1.0000
  C   C560      1.0  0.28338  0.40859  0.68626  1.0000
  C   C561      1.0  0.29520  0.41733  0.67235  1.0000
  H   H911      1.0  0.33339  0.40005  0.68817  1.0000
  H   H912      1.0  0.31254  0.38442  0.71266  1.0000
  H   H913      1.0  0.26955  0.41087  0.68552  1.0000
  H   H914      1.0  0.29032  0.42657  0.66113  1.0000
  C   C562      1.0  0.41048  0.36226  0.69826  1.0000
  C   C563      1.0  0.42002  0.35457  0.71184  1.0000
  C   C564      1.0  0.43513  0.34078  0.70950  1.0000
  C   C565      1.0  0.44040  0.33431  0.69379  1.0000
  C   C566      1.0  0.43067  0.34175  0.68033  1.0000
  C   C567      1.0  0.41587  0.35589  0.68249  1.0000
  H   H915      1.0  0.41591  0.35951  0.72402  1.0000
  H   H916      1.0  0.44266  0.33511  0.71990  1.0000
  H   H917      1.0  0.43473  0.33685  0.66815  1.0000
  H   H918      1.0  0.40849  0.36170  0.67206  1.0000
  C   C568      1.0  0.45905  0.44628  0.64811  1.0000
  C   C569      1.0  0.44698  0.43543  0.65843  1.0000
  C   C570      1.0  0.43227  0.43475  0.65209  1.0000
  C   C571      1.0  0.42925  0.44533  0.63562  1.0000
  C   C572      1.0  0.44109  0.45645  0.62555  1.0000
  C   C573      1.0  0.45611  0.45669  0.63159  1.0000
  H   H919      1.0  0.44896  0.42758  0.67138  1.0000
  H   H920      1.0  0.42308  0.42633  0.66011  1.0000
  H   H921      1.0  0.43881  0.46483  0.61292  1.0000
  H   H922      1.0  0.46518  0.46526  0.62366  1.0000
  H   H923      1.0  0.43706  0.40658  0.62348  1.0000
  C   C574      1.0  0.48545  0.37273  0.51758  1.0000
  H   H924      1.0  0.27384  0.22131  0.87056  1.0000
  H   H925      1.0  0.30668  0.14341  0.93840  1.0000
  C   C575      1.0  0.39753  0.46295  0.58403  1.0000
  C   C576      1.0  0.46540  0.44776  0.56807  1.0000
  C   C577      1.0  0.47658  0.45370  0.55190  1.0000
  C   C578      1.0  0.38737  0.49491  0.57946  1.0000
  H   H926      1.0  0.25785  0.26850  0.50974  1.0000
  C   C579      1.0  0.48392  0.45464  0.58407  1.0000
  C   C580      1.0  0.46918  0.44816  0.58408  1.0000
  H   H927      1.0  0.47376  0.45341  0.53945  1.0000
  H   H928      1.0  0.44568  0.24975  0.74681  1.0000
  Fe  Fe139     1.0  0.35361  0.08460  0.98753  1.0000
  H   H929      1.0  0.46067  0.44348  0.59658  1.0000
  H   H930      1.0  0.29097  0.06065  0.64234  1.0000
  C   C581      1.0  0.31369  0.13645  0.94950  1.0000
  C   C582      1.0  0.27322  0.24947  0.86536  1.0000
  H   H931      1.0  0.30387  0.44878  0.71008  1.0000
  N   N59       1.0  0.40312  0.48025  0.57681  1.0000
  C   C583      1.0  0.39740  0.28088  0.60293  1.0000
  C   C584      1.0  0.38385  0.29193  0.61269  1.0000
  C   C585      1.0  0.38660  0.29609  0.62759  1.0000
  C   C586      1.0  0.40301  0.28939  0.63275  1.0000
  C   C587      1.0  0.41651  0.27797  0.62329  1.0000
  C   C588      1.0  0.41367  0.27363  0.60841  1.0000
  H   H932      1.0  0.37124  0.29750  0.60870  1.0000
  H   H933      1.0  0.37606  0.30482  0.63494  1.0000
  H   H934      1.0  0.42914  0.27253  0.62732  1.0000
  H   H935      1.0  0.42419  0.26498  0.60097  1.0000
  C   C589      1.0  0.38454  0.36150  0.52700  1.0000
  C   C590      1.0  0.38554  0.37945  0.51973  1.0000
  C   C591      1.0  0.39885  0.38645  0.52259  1.0000
  C   C592      1.0  0.41134  0.37539  0.53246  1.0000
  C   C593      1.0  0.41069  0.35734  0.53910  1.0000
  C   C594      1.0  0.39736  0.35043  0.53641  1.0000
  C   C595      1.0  0.38133  0.11324  0.98378  1.0000
  H   H936      1.0  0.39941  0.40035  0.51721  1.0000
  H   H937      1.0  0.42054  0.34866  0.54635  1.0000
  H   H938      1.0  0.39712  0.33644  0.54143  1.0000
  C   C596      1.0  0.35001  0.35122  0.61417  1.0000
  C   C597      1.0  0.34691  0.36663  0.62083  1.0000
  C   C598      1.0  0.36129  0.37225  0.62330  1.0000
  C   C599      1.0  0.37873  0.36225  0.61941  1.0000
  C   C600      1.0  0.38162  0.34640  0.61369  1.0000
  C   C601      1.0  0.36734  0.34100  0.61097  1.0000
  H   H939      1.0  0.33346  0.37450  0.62361  1.0000
  H   H940      1.0  0.35887  0.38442  0.62800  1.0000
  H   H941      1.0  0.39483  0.33812  0.61159  1.0000
  H   H942      1.0  0.36970  0.32878  0.60656  1.0000
  C   C602      1.0  0.31230  0.23880  0.55688  1.0000
  C   C603      1.0  0.29933  0.24560  0.57050  1.0000
  C   C604      1.0  0.29951  0.26186  0.57416  1.0000
  C   C605      1.0  0.31273  0.27148  0.56435  1.0000
  C   C606      1.0  0.32603  0.26452  0.55098  1.0000
  C   C607      1.0  0.32587  0.24816  0.54736  1.0000
  H   H943      1.0  0.28899  0.23848  0.57813  1.0000
  H   H944      1.0  0.28915  0.26716  0.58450  1.0000
  H   H945      1.0  0.33605  0.27203  0.54304  1.0000
  H   H946      1.0  0.33594  0.24305  0.53672  1.0000
  C   C608      1.0  0.44175  0.03232  0.93415  1.0000
  H   H947      1.0  0.47138  0.28346  0.74423  1.0000
  H   H948      1.0  0.33480  0.37379  0.56046  1.0000
  H   H949      1.0  0.46123  0.25904  0.71561  1.0000
  Fe  Fe140     1.0  0.36925  0.07826  0.95057  1.0000
  H   H950      1.0  0.48872  0.42349  0.51663  1.0000
  C   C609      1.0  0.38418  0.06601  0.82705  1.0000
  C   C610      1.0  0.26413  0.09409  0.95453  1.0000
  H   H951      1.0  0.26837  0.06086  0.68070  1.0000
  H   H952      1.0  0.29613  0.26512  0.52999  1.0000
  H   H953      1.0  0.31646  0.12200  0.94976  1.0000
  C   C611      1.0  0.42594  0.06134  0.93989  1.0000
  H   H954      1.0  0.47859  0.15894  0.98147  1.0000
  H   H955      1.0  0.41084  0.47986  0.60086  1.0000
  H   H956      1.0  0.28518  0.06530  0.68909  1.0000
  H   H957      1.0  0.44735  0.09683  0.80344  1.0000
  N   N60       1.0  0.26782  0.27154  0.53115  1.0000
  C   C612      1.0  0.27153  0.43973  0.72161  1.0000
  C   C613      1.0  0.36120  0.05458  0.85069  1.0000
  H   H958      1.0  0.26357  0.15102  0.59634  1.0000
  C   C614      1.0  0.42333  0.22914  0.74535  1.0000
  C   C615      1.0  0.44000  0.21738  0.74464  1.0000
  C   C616      1.0  0.45285  0.21823  0.72852  1.0000
  C   C617      1.0  0.44890  0.23063  0.71312  1.0000
  C   C618      1.0  0.43181  0.24143  0.71368  1.0000
  C   C619      1.0  0.41917  0.24090  0.72978  1.0000
  H   H959      1.0  0.44332  0.20831  0.75666  1.0000
  H   H960      1.0  0.46603  0.20972  0.72812  1.0000
  H   H961      1.0  0.42832  0.25027  0.70169  1.0000
  H   H962      1.0  0.40619  0.24982  0.73023  1.0000
  C   C620      1.0  0.44777  0.16908  0.85204  1.0000
  C   C621      1.0  0.46039  0.15768  0.86166  1.0000
  C   C622      1.0  0.46014  0.15942  0.87884  1.0000
  C   C623      1.0  0.44777  0.17314  0.88611  1.0000
  C   C624      1.0  0.43534  0.18473  0.87637  1.0000
  C   C625      1.0  0.43510  0.18249  0.85953  1.0000
  H   H963      1.0  0.47034  0.14742  0.85582  1.0000
  H   H964      1.0  0.46987  0.15050  0.88618  1.0000
  H   H965      1.0  0.42579  0.19541  0.88191  1.0000
  H   H966      1.0  0.42536  0.19140  0.85217  1.0000
  C   C626      1.0  0.28098  0.08682  0.73009  1.0000
  C   C627      1.0  0.26960  0.09539  0.71808  1.0000
  H   H967      1.0  0.28688  0.24665  0.53065  1.0000
  S   S280      1.0  0.25150  0.33356  0.87136  1.0000
  C   C628      1.0  0.27077  0.05945  0.73386  1.0000
  C   C629      1.0  0.28144  0.06879  0.73804  1.0000
  Fe  Fe141     1.0  0.26248  0.18516  0.55484  1.0000
  C   C630      1.0  0.25531  0.35974  0.78556  1.0000
  H   H968      1.0  0.29018  0.06197  0.74724  1.0000
  C   C631      1.0  0.35350  0.14381  0.77041  1.0000
  C   C632      1.0  0.35554  0.16050  0.77142  1.0000
  C   C633      1.0  0.36762  0.16160  0.78104  1.0000
  C   C634      1.0  0.37757  0.14599  0.78976  1.0000
  C   C635      1.0  0.37576  0.12939  0.78846  1.0000
  C   C636      1.0  0.36393  0.12832  0.77869  1.0000
  H   H969      1.0  0.34771  0.17256  0.76484  1.0000
  H   H970      1.0  0.36911  0.17448  0.78180  1.0000
  H   H971      1.0  0.38370  0.11726  0.79484  1.0000
  H   H972      1.0  0.36322  0.11548  0.77724  1.0000
  C   C637      1.0  0.46241  0.09056  0.87212  1.0000
  C   C638      1.0  0.45959  0.07520  0.88501  1.0000
  C   C639      1.0  0.46054  0.07394  0.90264  1.0000
  C   C640      1.0  0.46345  0.08832  0.90770  1.0000
  C   C641      1.0  0.46619  0.10375  0.89484  1.0000
  C   C642      1.0  0.46599  0.10471  0.87702  1.0000
  H   H973      1.0  0.45683  0.06423  0.88142  1.0000
  H   H974      1.0  0.45892  0.06183  0.91240  1.0000
  H   H975      1.0  0.46866  0.11486  0.89857  1.0000
  H   H976      1.0  0.46848  0.11650  0.86702  1.0000
  C   C643      1.0  0.41615  0.07066  0.78279  1.0000
  C   C644      1.0  0.40329  0.08330  0.77431  1.0000
  C   C645      1.0  0.38894  0.07811  0.77123  1.0000
  C   C646      1.0  0.38769  0.06016  0.77614  1.0000
  C   C647      1.0  0.40062  0.04751  0.78450  1.0000
  C   C648      1.0  0.41469  0.05277  0.78800  1.0000
  H   H977      1.0  0.40434  0.09716  0.77021  1.0000
  H   H978      1.0  0.37906  0.08794  0.76472  1.0000
  H   H979      1.0  0.39971  0.03362  0.78834  1.0000
  H   H980      1.0  0.42466  0.04289  0.79432  1.0000
  H   H981      1.0  0.40856  0.02495  0.94571  1.0000
  H   H982      1.0  0.42315  0.47126  0.55509  1.0000
  H   H983      1.0  0.33728  0.16434  0.80862  1.0000
  H   H984      1.0  0.28337  0.24934  0.85321  1.0000
  C   C649      1.0  0.35370  0.20107  0.86278  1.0000
  C   C650      1.0  0.33548  0.20489  0.87046  1.0000
  C   C651      1.0  0.32803  0.19263  0.88472  1.0000
  C   C652      1.0  0.33866  0.17629  0.89099  1.0000
  C   C653      1.0  0.35707  0.17279  0.88399  1.0000
  C   C654      1.0  0.36463  0.18525  0.86987  1.0000
  H   H985      1.0  0.32695  0.21698  0.86498  1.0000
  H   H986      1.0  0.31400  0.19575  0.89079  1.0000
  H   H987      1.0  0.36530  0.16030  0.88917  1.0000
  H   H988      1.0  0.37884  0.18261  0.86445  1.0000
  C   C655      1.0  0.28822  0.14058  0.83993  1.0000
  C   C656      1.0  0.28687  0.13982  0.82304  1.0000
  C   C657      1.0  0.29039  0.12337  0.81824  1.0000
  C   C658      1.0  0.29528  0.10755  0.83028  1.0000
  C   C659      1.0  0.29686  0.10825  0.84717  1.0000
  C   C660      1.0  0.29348  0.12480  0.85196  1.0000
  H   H989      1.0  0.28287  0.15199  0.81367  1.0000
  H   H990      1.0  0.28882  0.12295  0.80536  1.0000
  H   H991      1.0  0.30084  0.09600  0.85645  1.0000
  H   H992      1.0  0.29482  0.12530  0.86491  1.0000
  C   C661      1.0  0.38954  0.07757  0.90916  1.0000
  C   C662      1.0  0.37674  0.06818  0.90964  1.0000
  C   C663      1.0  0.37983  0.05767  0.89708  1.0000
  C   C664      1.0  0.39564  0.05675  0.88403  1.0000
  C   C665      1.0  0.40819  0.06644  0.88345  1.0000
  C   C666      1.0  0.40522  0.07672  0.89603  1.0000
  H   H993      1.0  0.36438  0.06919  0.91949  1.0000
  H   H994      1.0  0.37002  0.05028  0.89750  1.0000
  H   H995      1.0  0.42031  0.06599  0.87339  1.0000
  H   H996      1.0  0.41530  0.08371  0.89566  1.0000
  C   C667      1.0  0.30063  0.09399  0.94754  1.0000
  C   C668      1.0  0.28905  0.10825  0.93882  1.0000
  C   C669      1.0  0.27076  0.10830  0.94236  1.0000
  H   H997      1.0  0.31479  0.09373  0.94450  1.0000
  H   H998      1.0  0.29430  0.11913  0.92936  1.0000
  Fe  Fe142     1.0  0.41911  0.45291  0.51618  1.0000
  C   C670      1.0  0.36085  0.05650  0.82006  1.0000
  Fe  Fe143     1.0  0.28116  0.16228  0.87379  1.0000
  N   N61       1.0  0.45219  0.27544  0.73506  1.0000
  H   H999      1.0  0.26433  0.25355  0.55671  1.0000
  H   H1000     1.0  0.26781  0.07079  0.64874  1.0000
  H   H1001     1.0  0.43968  0.26445  0.76189  1.0000
  N   N62       1.0  0.42585  0.04208  0.94486  1.0000
  C   C671      1.0  0.48839  0.18052  0.91422  1.0000
  S   S281      1.0  0.25454  0.16715  0.89237  1.0000
  H   H1002     1.0  0.48637  0.45533  0.59651  1.0000
  H   H1003     1.0  0.29122  0.04963  0.67483  1.0000
  C   C672      1.0  0.26790  0.23354  0.87522  1.0000
  H   H1004     1.0  0.47047  0.40198  0.49624  1.0000
  S   S282      1.0  0.47757  0.44673  0.65618  1.0000
  H   H1005     1.0  0.25382  0.29892  0.52833  1.0000
  C   C673      1.0  0.48963  0.15362  0.98822  1.0000
  H   H1006     1.0  0.36321  0.06436  0.80620  1.0000
  H   H1007     1.0  0.36964  0.04083  0.85188  1.0000
  H   H1008     1.0  0.45816  0.33560  0.57357  1.0000
  C   C674      1.0  0.25312  0.12816  0.61259  1.0000
  N   N63       1.0  0.34872  0.39078  0.56610  1.0000
  C   C675      1.0  0.33518  0.39448  0.58221  1.0000
  C   C676      1.0  0.34022  0.38610  0.55406  1.0000
  C   C677      1.0  0.36318  0.37571  0.57130  1.0000
  C   C678      1.0  0.35631  0.40673  0.55689  1.0000
  H   H1009     1.0  0.34115  0.39777  0.59177  1.0000
  H   H1010     1.0  0.34319  0.14273  0.82231  1.0000
  H   H1011     1.0  0.34994  0.38348  0.54163  1.0000
  H   H1012     1.0  0.32899  0.39697  0.55011  1.0000
  H   H1013     1.0  0.37395  0.37294  0.55959  1.0000
  H   H1014     1.0  0.27035  0.46860  0.68164  1.0000
  H   H1015     1.0  0.36941  0.37835  0.58105  1.0000
  H   H1016     1.0  0.34578  0.41840  0.55276  1.0000
  H   H1017     1.0  0.36655  0.40433  0.54465  1.0000
  H   H1018     1.0  0.36295  0.41049  0.56561  1.0000
  N   N64       1.0  0.32451  0.26234  0.86593  1.0000
  C   C679      1.0  0.32203  0.26005  0.84899  1.0000
  C   C680      1.0  0.31165  0.25419  0.88102  1.0000
  C   C681      1.0  0.32138  0.28159  0.86556  1.0000
  C   C682      1.0  0.34296  0.25361  0.86812  1.0000
  H   H1019     1.0  0.32465  0.24572  0.84854  1.0000
  H   H1020     1.0  0.33135  0.26630  0.83733  1.0000
  H   H1021     1.0  0.30816  0.26620  0.84704  1.0000
  H   H1022     1.0  0.29762  0.26096  0.88021  1.0000
  H   H1023     1.0  0.31297  0.23985  0.88133  1.0000
  H   H1024     1.0  0.31361  0.25512  0.89403  1.0000
  H   H1025     1.0  0.32287  0.28390  0.87821  1.0000
  H   H1026     1.0  0.30757  0.28854  0.86373  1.0000
  H   H1027     1.0  0.33091  0.28820  0.85443  1.0000
  H   H1028     1.0  0.25544  0.12180  0.60152  1.0000
  H   H1029     1.0  0.42116  0.49392  0.58116  1.0000
  H   H1030     1.0  0.27032  0.15573  0.73299  1.0000
  H   H1031     1.0  0.30031  0.46125  0.68841  1.0000
  C   C683      1.0  0.49576  0.04690  0.85999  1.0000
  C   C684      1.0  0.26519  0.26554  0.87101  1.0000
  N   N65       1.0  0.27657  0.45472  0.70712  1.0000
  N   N66       1.0  0.35991  0.24287  0.58713  1.0000
  C   C685      1.0  0.37758  0.23053  0.58580  1.0000
  C   C686      1.0  0.34601  0.23334  0.58776  1.0000
  C   C687      1.0  0.36042  0.25778  0.57141  1.0000
  C   C688      1.0  0.35566  0.24997  0.60347  1.0000
  H   H1032     1.0  0.38829  0.23743  0.58535  1.0000
  H   H1033     1.0  0.38129  0.22510  0.57349  1.0000
  H   H1034     1.0  0.37774  0.21905  0.59741  1.0000
  H   H1035     1.0  0.34525  0.22192  0.59940  1.0000
  H   H1036     1.0  0.33253  0.24236  0.58876  1.0000
  H   H1037     1.0  0.34866  0.22799  0.57552  1.0000
  H   H1038     1.0  0.34766  0.26791  0.57246  1.0000
  H   H1039     1.0  0.36272  0.25309  0.55887  1.0000
  H   H1040     1.0  0.37136  0.26468  0.56999  1.0000
  H   H1041     1.0  0.34233  0.25924  0.60495  1.0000
  H   H1042     1.0  0.36573  0.25754  0.60324  1.0000
  H   H1043     1.0  0.35545  0.23908  0.61561  1.0000
  H   H1044     1.0  0.46777  0.28009  0.70827  1.0000
  Fe  Fe144     1.0  0.26317  0.18697  0.59180  1.0000
  H   H1045     1.0  0.28230  0.13493  0.74384  1.0000
  C   C689      1.0  0.26094  0.33013  0.78014  1.0000
  H   H1046     1.0  0.27139  0.04546  0.73993  1.0000
  H   H1047     1.0  0.44184  0.03698  0.91964  1.0000
  C   C690      1.0  0.46558  0.26902  0.72002  1.0000
  H   H1048     1.0  0.42561  0.06690  0.92558  1.0000
  H   H1049     1.0  0.32679  0.14055  0.94599  1.0000
  H   H1050     1.0  0.45322  0.15038  0.79485  1.0000
  H   H1051     1.0  0.42842  0.47014  0.58477  1.0000
  H   H1052     1.0  0.27705  0.29531  0.52879  1.0000
  H   H1053     1.0  0.39115  0.46138  0.59847  1.0000
  H   H1054     1.0  0.27436  0.10119  0.88350  1.0000
  C   C691      1.0  0.25775  0.14468  0.60966  1.0000
  C   C692      1.0  0.39662  0.12026  0.98083  1.0000
  N   N67       1.0  0.43646  0.32198  0.58592  1.0000
  C   C693      1.0  0.41912  0.32166  0.58252  1.0000
  C   C694      1.0  0.44820  0.30404  0.58668  1.0000
  C   C695      1.0  0.43348  0.32725  0.60310  1.0000
  C   C696      1.0  0.26734  0.29079  0.52402  1.0000
  H   H1055     1.0  0.42089  0.31691  0.57010  1.0000
  H   H1056     1.0  0.41018  0.33513  0.58113  1.0000
  H   H1057     1.0  0.41189  0.31257  0.59360  1.0000
  H   H1058     1.0  0.46147  0.30380  0.58906  1.0000
  H   H1059     1.0  0.44224  0.29398  0.59768  1.0000
  H   H1060     1.0  0.40151  0.48115  0.54998  1.0000
  H   H1061     1.0  0.42656  0.31797  0.61433  1.0000
  H   H1062     1.0  0.42509  0.34093  0.60290  1.0000
  H   H1063     1.0  0.44633  0.32709  0.60631  1.0000
  H   H1064     1.0  0.32622  0.13474  0.97796  1.0000
  H   H1065     1.0  0.43660  0.34868  0.57036  1.0000
  C   C697      1.0  0.30905  0.00971  0.99161  1.0000
  H   H1066     1.0  0.41431  0.04253  0.97246  1.0000
  C   C698      1.0  0.27317  0.09402  0.66508  1.0000
  C   C699      1.0  0.46002  0.13613  0.79581  1.0000
  H   H1067     1.0  0.47004  0.13499  0.78317  1.0000
  H   H1068     1.0  0.46735  0.13258  0.80684  1.0000
  H   H1069     1.0  0.42672  0.14066  0.81562  1.0000
  H   H1070     1.0  0.42987  0.14377  0.78305  1.0000
  N   N68       1.0  0.29902  0.15241  0.72599  1.0000
  C   C700      1.0  0.29892  0.16582  0.70910  1.0000
  C   C701      1.0  0.29977  0.16082  0.74016  1.0000
  C   C702      1.0  0.31487  0.13781  0.72357  1.0000
  C   C703      1.0  0.28261  0.14513  0.73113  1.0000
  H   H1071     1.0  0.36415  0.06073  0.86031  1.0000
  H   H1072     1.0  0.31120  0.17146  0.70486  1.0000
  H   H1073     1.0  0.28715  0.17708  0.71043  1.0000
  H   H1074     1.0  0.28293  0.08406  0.63396  1.0000
  S   S283      1.0  0.39800  0.47610  0.50654  1.0000
  C   C704      1.0  0.49146  0.46016  0.55187  1.0000
  H   H1075     1.0  0.31485  0.13105  0.71301  1.0000
  H   H1076     1.0  0.31509  0.12741  0.73597  1.0000
  H   H1077     1.0  0.32759  0.14260  0.72020  1.0000
  H   H1078     1.0  0.28181  0.13833  0.72091  1.0000
  H   H1079     1.0  0.30671  0.09019  0.64555  1.0000
  H   H1080     1.0  0.43831  0.03730  0.96709  1.0000
  S   S284      1.0  0.41758  0.13733  0.99040  1.0000
  S   S285      1.0  0.25589  0.12586  0.93174  1.0000
  H   H1081     1.0  0.34693  0.05342  0.85500  1.0000
  H   H1082     1.0  0.42438  0.28823  0.74075  1.0000
  H   H1083     1.0  0.40905  0.04368  0.92702  1.0000
  C   C705      1.0  0.45001  0.26028  0.75038  1.0000
  H   H1084     1.0  0.46638  0.10372  0.78794  1.0000
  H   H1085     1.0  0.27502  0.10536  0.65348  1.0000
  N   N69       1.0  0.28536  0.07721  0.66138  1.0000
  Fe  Fe145     1.0  0.33444  0.06722  0.97110  1.0000
  C   C706      1.0  0.28584  0.13453  0.97077  1.0000
  C   C707      1.0  0.43486  0.28343  0.72966  1.0000
  C   C708      1.0  0.49055  0.34109  0.57590  1.0000
  N   N70       1.0  0.36505  0.06511  0.83230  1.0000
  Fe  Fe146     1.0  0.45722  0.43420  0.50512  1.0000
  H   H1086     1.0  0.30719  0.08259  0.66884  1.0000
  S   S286      1.0  0.48619  0.00834  0.84065  1.0000
  N   N71       1.0  0.41123  0.13282  0.89097  1.0000
  C   C709      1.0  0.40674  0.15098  0.89453  1.0000
  C   C710      1.0  0.41855  0.11995  0.90581  1.0000
  C   C711      1.0  0.42473  0.13221  0.87416  1.0000
  C   C712      1.0  0.39496  0.12816  0.88941  1.0000
  H   H1087     1.0  0.40174  0.16118  0.88336  1.0000
  H   H1088     1.0  0.41867  0.15467  0.89628  1.0000
  H   H1089     1.0  0.39627  0.15203  0.90691  1.0000
  H   H1090     1.0  0.42258  0.10617  0.90345  1.0000
  H   H1091     1.0  0.43065  0.12328  0.90754  1.0000
  H   H1092     1.0  0.40856  0.11969  0.91867  1.0000
  H   H1093     1.0  0.43729  0.13521  0.87510  1.0000
  H   H1094     1.0  0.41998  0.14217  0.86271  1.0000
  H   H1095     1.0  0.42822  0.11879  0.87084  1.0000
  H   H1096     1.0  0.39788  0.11450  0.88688  1.0000
  H   H1097     1.0  0.38921  0.13751  0.87823  1.0000
  H   H1098     1.0  0.38447  0.12841  0.90189  1.0000
  N   N72       1.0  0.44359  0.39272  0.60199  1.0000
  C   C713      1.0  0.45779  0.39066  0.58587  1.0000
  C   C714      1.0  0.44724  0.40493  0.61107  1.0000
  C   C715      1.0  0.44326  0.37510  0.61416  1.0000
  C   C716      1.0  0.42609  0.40015  0.59684  1.0000
  H   H1099     1.0  0.45539  0.38170  0.57855  1.0000
  H   H1100     1.0  0.47122  0.38506  0.58916  1.0000
  H   H1101     1.0  0.45857  0.40363  0.57638  1.0000
  H   H1102     1.0  0.44688  0.41852  0.60254  1.0000
  H   H1103     1.0  0.44206  0.01773  0.93764  1.0000
  H   H1104     1.0  0.46061  0.40016  0.61458  1.0000
  H   H1105     1.0  0.43218  0.37595  0.62605  1.0000
  H   H1106     1.0  0.45593  0.36947  0.61902  1.0000
  H   H1107     1.0  0.44117  0.36542  0.60750  1.0000
  H   H1108     1.0  0.42274  0.39114  0.59024  1.0000
  H   H1109     1.0  0.42595  0.41332  0.58745  1.0000
  H   H1110     1.0  0.41512  0.40217  0.60864  1.0000
  N   N73       1.0  0.37488  0.33095  0.68112  1.0000
  C   C717      1.0  0.39003  0.31976  0.68916  1.0000
  C   C718      1.0  0.36450  0.34412  0.69210  1.0000
  C   C719      1.0  0.36328  0.31953  0.68029  1.0000
  C   C720      1.0  0.38167  0.34043  0.66287  1.0000
  H   H1111     1.0  0.38533  0.31207  0.70274  1.0000
  H   H1112     1.0  0.39884  0.32797  0.69031  1.0000
  H   H1113     1.0  0.39847  0.30999  0.68101  1.0000
  H   H1114     1.0  0.35299  0.35290  0.68640  1.0000
  H   H1115     1.0  0.35911  0.33747  0.70595  1.0000
  H   H1116     1.0  0.37296  0.35292  0.69296  1.0000
  H   H1117     1.0  0.35184  0.32754  0.67405  1.0000
  H   H1118     1.0  0.35778  0.31218  0.69377  1.0000
  H   H1119     1.0  0.37086  0.30942  0.67213  1.0000
  H   H1120     1.0  0.37053  0.34919  0.65661  1.0000
  H   H1121     1.0  0.38927  0.33104  0.65403  1.0000
  H   H1122     1.0  0.39077  0.34893  0.66273  1.0000
  S   S287      1.0  0.34287  0.09349  0.96266  1.0000
  H   H1123     1.0  0.42997  0.27357  0.72558  1.0000
  H   H1124     1.0  0.47830  0.32279  0.61992  1.0000
  C   C721      1.0  0.48353  0.32342  0.60586  1.0000
  H   H1125     1.0  0.41538  0.49494  0.55166  1.0000
  C   C722      1.0  0.48276  0.34005  0.59400  1.0000
  H   H1126     1.0  0.48046  0.16997  0.92031  1.0000
  Fe  Fe147     1.0  0.36935  0.04677  0.98185  1.0000
  C   C723      1.0  0.25874  0.08613  0.71414  1.0000
  N   N74       1.0  0.30287  0.14057  0.96669  1.0000
  H   H1127     1.0  0.48873  0.41107  0.64729  1.0000
  H   H1128     1.0  0.33940  0.08325  0.83435  1.0000
  H   H1129     1.0  0.26980  0.35947  0.78359  1.0000
  H   H1130     1.0  0.31213  0.16624  0.73684  1.0000
  C   C724      1.0  0.27186  0.47112  0.71422  1.0000
  H   H1131     1.0  0.46276  0.25395  0.75496  1.0000
  H   H1132     1.0  0.25896  0.09293  0.66793  1.0000
  C   C725      1.0  0.40953  0.03924  0.94141  1.0000
  H   H1133     1.0  0.38104  0.49398  0.59386  1.0000
  H   H1134     1.0  0.48675  0.05709  0.85195  1.0000
  H   H1135     1.0  0.27446  0.42722  0.71666  1.0000
  N   N75       1.0  0.25212  0.34898  0.77466  1.0000
  C   C726      1.0  0.41111  0.48199  0.55755  1.0000
  C   C727      1.0  0.49892  0.32547  0.56962  1.0000
  H   H1136     1.0  0.25809  0.11980  0.85920  1.0000
  C   C728      1.0  0.26313  0.26808  0.55083  1.0000
  N   N76       1.0  0.33626  0.16452  0.83582  1.0000
  C   C729      1.0  0.35512  0.16579  0.83270  1.0000
  C   C730      1.0  0.32480  0.18262  0.83451  1.0000
  C   C731      1.0  0.33104  0.15363  0.85380  1.0000
  C   C732      1.0  0.33414  0.15609  0.82227  1.0000
  H   H1137     1.0  0.36413  0.15235  0.83427  1.0000
  H   H1138     1.0  0.35708  0.17281  0.84215  1.0000
  H   H1139     1.0  0.35974  0.17320  0.81895  1.0000
  H   H1140     1.0  0.32861  0.19127  0.82119  1.0000
  H   H1141     1.0  0.31046  0.18220  0.83654  1.0000
  H   H1142     1.0  0.32592  0.18926  0.84471  1.0000
  H   H1143     1.0  0.33944  0.13990  0.85526  1.0000
  H   H1144     1.0  0.31688  0.15238  0.85653  1.0000
  H   H1145     1.0  0.33242  0.15965  0.86435  1.0000
  H   H1146     1.0  0.32019  0.15437  0.82454  1.0000
  H   H1147     1.0  0.35307  0.25884  0.85658  1.0000
  C   C733      1.0  0.43746  0.12971  0.78449  1.0000
  H   H1148     1.0  0.28804  0.17190  0.74243  1.0000
  H   H1149     1.0  0.45434  0.03423  0.93636  1.0000
  H   H1150     1.0  0.34551  0.23897  0.86909  1.0000
  H   H1151     1.0  0.39739  0.04690  0.94885  1.0000
  H   H1152     1.0  0.44678  0.12827  0.77153  1.0000
  H   H1153     1.0  0.32409  0.40584  0.57884  1.0000
  H   H1154     1.0  0.35803  0.36330  0.57753  1.0000
  H   H1155     1.0  0.36936  0.04291  0.81990  1.0000
  S   S288      1.0  0.48066  0.27810  0.66688  1.0000
  H   H1156     1.0  0.27039  0.06902  0.97274  1.0000
  H   H1157     1.0  0.27718  0.13762  0.98353  1.0000
  H   H1158     1.0  0.46436  0.10152  0.81144  1.0000
  C   C734      1.0  0.44509  0.33496  0.57141  1.0000
  C   C735      1.0  0.43410  0.12659  0.81614  1.0000
  N   N77       1.0  0.44708  0.12461  0.79924  1.0000
  H   H1159     1.0  0.42759  0.12119  0.78680  1.0000
  H   H1160     1.0  0.25305  0.37002  0.75127  1.0000
  S   S289      1.0  0.35987  0.05269  0.95642  1.0000
  H   H1161     1.0  0.34658  0.05533  0.82368  1.0000
  H   H1162     1.0  0.38752  0.07402  0.81329  1.0000
  H   H1163     1.0  0.38791  0.07215  0.83619  1.0000
  H   H1164     1.0  0.44089  0.12260  0.82759  1.0000
  S   S290      1.0  0.28302  0.16149  0.84550  1.0000
  H   H1165     1.0  0.25549  0.32466  0.79441  1.0000
  H   H1166     1.0  0.25578  0.11084  0.57277  1.0000
  C   C736      1.0  0.29389  0.07989  0.95990  1.0000
  H   H1167     1.0  0.31300  0.00072  0.98202  1.0000
  S   S291      1.0  0.38077  0.07119  0.97486  1.0000
  C   C737      1.0  0.45830  0.28902  0.74015  1.0000
  H   H1168     1.0  0.44847  0.29421  0.75142  1.0000
  H   H1169     1.0  0.42397  0.11827  0.81901  1.0000
  H   H1170     1.0  0.44769  0.33131  0.55827  1.0000
  H   H1171     1.0  0.35628  0.09003  0.84086  1.0000
  C   C738      1.0  0.27565  0.07991  0.96325  1.0000
  H   H1172     1.0  0.49621  0.34725  0.49834  1.0000
  H   H1173     1.0  0.48375  0.38965  0.65891  1.0000
  H   H1174     1.0  0.37580  0.38802  0.51220  1.0000
  C   C739      1.0  0.48912  0.40082  0.65992  1.0000
  H   H1175     1.0  0.47874  0.26253  0.72367  1.0000
  H   H1176     1.0  0.49627  0.36152  0.52190  1.0000
  H   H1177     1.0  0.29172  0.16743  0.95463  1.0000
  H   H1178     1.0  0.29838  0.15983  0.69817  1.0000
  C   C740      1.0  0.41644  0.48116  0.58628  1.0000
  H   H1179     1.0  0.46007  0.30061  0.72879  1.0000
  H   H1180     1.0  0.47677  0.35210  0.59894  1.0000
  S   S292      1.0  0.30785  0.06211  0.97140  1.0000
  C   C741      1.0  0.26387  0.10846  0.89294  1.0000
  H   H1181     1.0  0.25734  0.34812  0.74693  1.0000
  H   H1182     1.0  0.34558  0.25560  0.88042  1.0000
  S   S293      1.0  0.49038  0.36191  0.56128  1.0000
  H   H1183     1.0  0.27561  0.32865  0.77850  1.0000
  H   H1184     1.0  0.43801  0.06403  0.94242  1.0000
  C   C742      1.0  0.29913  0.16004  0.96538  1.0000
  H   H1185     1.0  0.41410  0.06915  0.94765  1.0000
  H   H1186     1.0  0.40688  0.11918  0.96889  1.0000
  H   H1187     1.0  0.30007  0.43798  0.69484  1.0000
  C   C743      1.0  0.49181  0.30778  0.59958  1.0000
  S   S294      1.0  0.49346  0.28683  0.61419  1.0000
  C   C744      1.0  0.28599  0.26125  0.52529  1.0000
  Fe  Fe148     1.0  0.26865  0.14761  0.91285  1.0000
  H   H1188     1.0  0.48704  0.19113  0.94403  1.0000
  C   C745      1.0  0.39855  0.12865  0.99336  1.0000
  H   H1189     1.0  0.27412  0.35522  0.75311  1.0000
  H   H1190     1.0  0.27890  0.43699  0.73245  1.0000
  H   H1191     1.0  0.48744  0.38491  0.52050  1.0000
  C   C746      1.0  0.25482  0.26606  0.52454  1.0000
  C   C747      1.0  0.26680  0.45748  0.69287  1.0000
  H   H1192     1.0  0.26868  0.12007  0.89376  1.0000
  C   C748      1.0  0.25949  0.35580  0.75567  1.0000
  H   H1193     1.0  0.28822  0.11984  0.97199  1.0000
  H   H1194     1.0  0.25488  0.25160  0.52970  1.0000
  H   H1195     1.0  0.47974  0.40717  0.67073  1.0000
  H   H1196     1.0  0.29093  0.16374  0.97807  1.0000
  H   H1197     1.0  0.30364  0.02336  0.98438  1.0000
  S   S295      1.0  0.26615  0.21347  0.54392  1.0000
  H   H1198     1.0  0.42307  0.49087  0.51624  1.0000
  H   H1199     1.0  0.28997  0.26332  0.51053  1.0000
  H   H1200     1.0  0.27200  0.27302  0.55623  1.0000
  S   S296      1.0  0.25738  0.17133  0.53562  1.0000
  H   H1201     1.0  0.50000  0.46493  0.53937  1.0000
  H   H1202     1.0  0.26275  0.09951  0.90642  1.0000
  H   H1203     1.0  0.26906  0.10933  0.71189  1.0000
  C   C749      1.0  0.25459  0.23362  0.89081  1.0000
  H   H1204     1.0  0.34388  0.00632  0.97472  1.0000
  C   C750      1.0  0.25206  0.26555  0.88671  1.0000
  H   H1205     1.0  0.48841  0.16754  0.94888  1.0000
  C   C751      1.0  0.48461  0.35805  0.49503  1.0000
  S   S297      1.0  0.26599  0.21539  0.58444  1.0000
  S   S298      1.0  0.38684  0.01959  0.98817  1.0000
  H   H1206     1.0  0.38786  0.46150  0.57692  1.0000
  H   H1207     1.0  0.47890  0.19351  0.91524  1.0000
  H   H1208     1.0  0.25365  0.13826  0.86978  1.0000
  C   C752      1.0  0.49947  0.30884  0.58144  1.0000
  C   C753      1.0  0.25525  0.15269  0.62399  1.0000
  H   H1209     1.0  0.25699  0.44261  0.72767  1.0000
  H   H1210     1.0  0.27080  0.29391  0.50920  1.0000
  H   H1211     1.0  0.37704  0.49462  0.57249  1.0000
  S   S299      1.0  0.26141  0.17311  0.62049  1.0000
  C   C754      1.0  0.25479  0.14895  0.54050  1.0000
  H   H1212     1.0  0.48854  0.04508  0.87417  1.0000
  C   C755      1.0  0.25408  0.11978  0.56019  1.0000
  H   H1213     1.0  0.49784  0.03410  0.85585  1.0000
  H   H1214     1.0  0.25720  0.47466  0.71975  1.0000
  N   N78       1.0  0.48559  0.37507  0.49851  1.0000
  C   C756      1.0  0.49615  0.17815  0.94218  1.0000
  H   H1215     1.0  0.49319  0.18020  0.89982  1.0000
  H   H1216     1.0  0.25205  0.46071  0.69793  1.0000
  H   H1217     1.0  0.50064  0.08014  0.85524  1.0000
  H   H1218     1.0  0.30546  0.13480  0.99402  1.0000
  H   H1219     1.0  0.25089  0.37749  0.90735  1.0000
  H   H1220     1.0  0.27478  0.67929  0.44382  1.0000
  H   H1221     1.0  0.43451  0.65571  0.41527  1.0000
  H   H1222     1.0  0.38746  0.94995  0.09582  1.0000
  Fe  Fe149     1.0  0.38971  0.59123  0.43184  1.0000
  H   H1223     1.0  0.46538  0.64295  0.42100  1.0000
  S   S300      1.0  0.25358  0.93531  0.21344  1.0000
  H   H1224     1.0  0.25619  0.70265  0.12578  1.0000
  Fe  Fe150     1.0  0.47696  0.96002  0.11574  1.0000
  H   H1225     1.0  0.25695  0.67615  0.46298  1.0000
  S   S301      1.0  0.46166  0.96626  0.09383  1.0000
  Fe  Fe151     1.0  0.47603  0.94595  0.15507  1.0000
  S   S302      1.0  0.45775  0.93650  0.18074  1.0000
  S   S303      1.0  0.46993  0.97365  0.13873  1.0000
  Fe  Fe152     1.0  0.35036  0.88098  0.19821  1.0000
  S   S304      1.0  0.35405  0.89684  0.17004  1.0000
  S   S305      1.0  0.32419  0.87558  0.21571  1.0000
  Fe  Fe153     1.0  0.39010  0.86433  0.19450  1.0000
  S   S306      1.0  0.39670  0.87923  0.16637  1.0000
  S   S307      1.0  0.41254  0.84299  0.20381  1.0000
  Fe  Fe154     1.0  0.37788  0.90256  0.17621  1.0000
  S   S308      1.0  0.38588  0.92923  0.16502  1.0000
  Fe  Fe155     1.0  0.37263  0.87173  0.16320  1.0000
  S   S309      1.0  0.37460  0.86030  0.13947  1.0000
  S   S310      1.0  0.37297  0.88827  0.20505  1.0000
  S   S311      1.0  0.36709  0.85560  0.19083  1.0000
  Fe  Fe156     1.0  0.45026  0.76897  0.15735  1.0000
  S   S312      1.0  0.42980  0.75479  0.17660  1.0000
  S   S313      1.0  0.44304  0.79773  0.14436  1.0000
  Fe  Fe157     1.0  0.47991  0.73726  0.16082  1.0000
  S   S314      1.0  0.46253  0.71955  0.18098  1.0000
  Fe  Fe158     1.0  0.44294  0.73195  0.16302  1.0000
  S   S315      1.0  0.42443  0.71666  0.15948  1.0000
  Fe  Fe159     1.0  0.45039  0.74346  0.19335  1.0000
  S   S316      1.0  0.43756  0.74338  0.22224  1.0000
  S   S317      1.0  0.46130  0.74742  0.14181  1.0000
  S   S318      1.0  0.46978  0.75987  0.17517  1.0000
  Fe  Fe160     1.0  0.33636  0.78852  0.12451  1.0000
  S   S319      1.0  0.35744  0.79541  0.10043  1.0000
  S   S320      1.0  0.33482  0.79773  0.14952  1.0000
  Fe  Fe161     1.0  0.32301  0.76602  0.10648  1.0000
  S   S321      1.0  0.34310  0.77204  0.08083  1.0000
  S   S322      1.0  0.30636  0.74450  0.11413  1.0000
  Fe  Fe162     1.0  0.36259  0.76702  0.09837  1.0000
  S   S323      1.0  0.39129  0.75270  0.09143  1.0000
  Fe  Fe163     1.0  0.33593  0.80007  0.08545  1.0000
  S   S324      1.0  0.33539  0.82525  0.06411  1.0000
  S   S325      1.0  0.34324  0.75946  0.12375  1.0000
  S   S326      1.0  0.31418  0.79469  0.10977  1.0000
  Fe  Fe164     1.0  0.39309  0.90846  0.05038  1.0000
  S   S327      1.0  0.39100  0.89139  0.07794  1.0000
  S   S328      1.0  0.41013  0.89634  0.02749  1.0000
  Fe  Fe165     1.0  0.36801  0.94070  0.06266  1.0000
  S   S329      1.0  0.36380  0.92607  0.09116  1.0000
  S   S330      1.0  0.35371  0.96952  0.05835  1.0000
  Fe  Fe166     1.0  0.39341  0.91588  0.08524  1.0000
  S   S331      1.0  0.40947  0.91427  0.10521  1.0000
  Fe  Fe167     1.0  0.36164  0.90332  0.08092  1.0000
  S   S332      1.0  0.34041  0.88769  0.09655  1.0000
  S   S333      1.0  0.39792  0.93202  0.05741  1.0000
  S   S334      1.0  0.36342  0.91874  0.05270  1.0000
  Fe  Fe168     1.0  0.47062  0.68344  0.30355  1.0000
  S   S335      1.0  0.48270  0.65441  0.30438  1.0000
  S   S336      1.0  0.48388  0.70152  0.27971  1.0000
  Fe  Fe169     1.0  0.44366  0.67538  0.33801  1.0000
  S   S337      1.0  0.45344  0.64592  0.34083  1.0000
  S   S338      1.0  0.42206  0.68392  0.36068  1.0000
  Fe  Fe170     1.0  0.48071  0.65232  0.33345  1.0000
  H   H1226     1.0  0.46116  0.69501  0.23490  1.0000
  Fe  Fe171     1.0  0.45421  0.65135  0.31168  1.0000
  S   S339      1.0  0.44576  0.63327  0.29947  1.0000
  S   S340      1.0  0.47088  0.68161  0.33215  1.0000
  S   S341      1.0  0.44213  0.68048  0.30920  1.0000
  H   H1227     1.0  0.45233  0.86223  0.06589  1.0000
  C   C757      1.0  0.50054  0.55782  0.41192  1.0000
  H   H1228     1.0  0.32156  0.55224  0.34532  1.0000
  H   H1229     1.0  0.37508  0.93295  0.12515  1.0000
  H   H1230     1.0  0.36747  0.52416  0.34180  1.0000
  C   C758      1.0  0.39738  0.52846  0.48438  1.0000
  H   H1231     1.0  0.38133  0.96298  0.13924  1.0000
  C   C759      1.0  0.46037  0.98830  0.20302  1.0000
  C   C760      1.0  0.41117  0.53172  0.49013  1.0000
  Fe  Fe172     1.0  0.36495  0.60176  0.46500  1.0000
  H   H1232     1.0  0.48678  0.87573  0.14255  1.0000
  C   C761      1.0  0.32405  0.54239  0.35776  1.0000
  Fe  Fe173     1.0  0.35388  0.61914  0.30302  1.0000
  S   S342      1.0  0.35607  0.59708  0.32691  1.0000
  S   S343      1.0  0.36300  0.64365  0.30294  1.0000
  Fe  Fe174     1.0  0.33509  0.60042  0.28706  1.0000
  S   S344      1.0  0.33602  0.57650  0.30967  1.0000
  S   S345      1.0  0.32329  0.60472  0.26271  1.0000
  Fe  Fe175     1.0  0.32811  0.59630  0.32723  1.0000
  S   S346      1.0  0.31066  0.58926  0.35422  1.0000
  Fe  Fe176     1.0  0.36408  0.57882  0.30798  1.0000
  S   S347      1.0  0.38349  0.55364  0.31699  1.0000
  S   S348      1.0  0.32482  0.62024  0.30497  1.0000
  S   S349      1.0  0.36429  0.60103  0.28355  1.0000
  Fe  Fe177     1.0  0.46963  0.54269  0.34841  1.0000
  S   S350      1.0  0.47475  0.51318  0.35960  1.0000
  S   S351      1.0  0.46009  0.55791  0.32333  1.0000
  Fe  Fe178     1.0  0.47859  0.55154  0.37964  1.0000
  S   S352      1.0  0.48390  0.52297  0.39406  1.0000
  H   H1233     1.0  0.45339  0.51057  0.45049  1.0000
  S   S353      1.0  0.47910  0.57640  0.38781  1.0000
  Fe  Fe179     1.0  0.45995  0.52090  0.38548  1.0000
  S   S354      1.0  0.43708  0.50948  0.40365  1.0000
  H   H1234     1.0  0.45372  0.99192  0.17076  1.0000
  S   S355      1.0  0.45312  0.55006  0.37378  1.0000
  Fe  Fe180     1.0  0.32440  0.68363  0.37035  1.0000
  S   S356      1.0  0.34936  0.67277  0.35212  1.0000
  Fe  Fe181     1.0  0.30764  0.68986  0.40750  1.0000
  S   S357      1.0  0.31158  0.68916  0.43467  1.0000
  S   S358      1.0  0.31628  0.66535  0.39613  1.0000
  S   S359      1.0  0.31814  0.70789  0.38196  1.0000
  S   S360      1.0  0.38983  0.58600  0.40548  1.0000
  H   H1235     1.0  0.48814  0.56779  0.48184  1.0000
  H   H1236     1.0  0.49255  0.60249  0.39558  1.0000
  S   S361      1.0  0.27676  0.70975  0.06706  1.0000
  Fe  Fe182     1.0  0.27470  0.64452  0.08940  1.0000
  H   H1237     1.0  0.44577  0.62233  0.42684  1.0000
  S   S362      1.0  0.29669  0.62086  0.09520  1.0000
  H   H1238     1.0  0.49388  0.71455  0.24204  1.0000
  H   H1239     1.0  0.39015  0.53891  0.47554  1.0000
  C   C762      1.0  0.42598  0.62193  0.47526  1.0000
  S   S363      1.0  0.27644  0.66156  0.06181  1.0000
  C   C763      1.0  0.25659  0.70109  0.13999  1.0000
  H   H1240     1.0  0.25203  0.64838  0.43449  1.0000
  H   H1241     1.0  0.38255  0.97385  0.09100  1.0000
  N   N79       1.0  0.45593  0.66960  0.25031  1.0000
  H   H1242     1.0  0.45146  0.97950  0.20314  1.0000
  H   H1243     1.0  0.45088  0.83921  0.02342  1.0000
  H   H1244     1.0  0.31169  0.87820  0.18092  1.0000
  S   S364      1.0  0.33659  0.61166  0.47843  1.0000
  H   H1245     1.0  0.33336  0.70055  0.10890  1.0000
  S   S365      1.0  0.37636  0.61770  0.43858  1.0000
  C   C764      1.0  0.45917  0.68235  0.23307  1.0000
  C   C765      1.0  0.29960  0.58259  0.13981  1.0000
  C   C766      1.0  0.30338  0.59263  0.12242  1.0000
  C   C767      1.0  0.29194  0.60885  0.11718  1.0000
  H   H1246     1.0  0.32819  0.66983  0.32956  1.0000
  H   H1247     1.0  0.30844  0.57000  0.14377  1.0000
  H   H1248     1.0  0.31515  0.58781  0.11301  1.0000
  C   C768      1.0  0.31827  0.66754  0.44684  1.0000
  C   C769      1.0  0.32763  0.65369  0.43810  1.0000
  C   C770      1.0  0.33261  0.63641  0.44785  1.0000
  H   H1249     1.0  0.33167  0.65628  0.42385  1.0000
  H   H1250     1.0  0.33938  0.62568  0.44096  1.0000
  C   C771      1.0  0.42081  0.52888  0.40605  1.0000
  C   C772      1.0  0.41161  0.53793  0.39238  1.0000
  C   C773      1.0  0.40136  0.55525  0.39253  1.0000
  C   C774      1.0  0.40058  0.56359  0.40620  1.0000
  C   C775      1.0  0.40923  0.55425  0.42016  1.0000
  C   C776      1.0  0.41947  0.53701  0.42000  1.0000
  H   H1251     1.0  0.41306  0.53184  0.38131  1.0000
  H   H1252     1.0  0.39445  0.56223  0.38186  1.0000
  H   H1253     1.0  0.40863  0.56047  0.43082  1.0000
  H   H1254     1.0  0.42704  0.53042  0.43023  1.0000
  C   C777      1.0  0.30337  0.59870  0.26250  1.0000
  C   C778      1.0  0.29654  0.58496  0.27541  1.0000
  C   C779      1.0  0.28163  0.57953  0.27368  1.0000
  C   C780      1.0  0.27332  0.58787  0.25916  1.0000
  C   C781      1.0  0.27984  0.60196  0.24660  1.0000
  C   C782      1.0  0.29485  0.60721  0.24818  1.0000
  H   H1255     1.0  0.30301  0.57826  0.28648  1.0000
  H   H1256     1.0  0.38242  0.96179  0.02840  1.0000
  H   H1257     1.0  0.27332  0.60886  0.23566  1.0000
  H   H1258     1.0  0.29993  0.61795  0.23822  1.0000
  C   C783      1.0  0.30004  0.60683  0.36530  1.0000
  C   C784      1.0  0.28969  0.60296  0.38250  1.0000
  C   C785      1.0  0.28179  0.61644  0.39215  1.0000
  C   C786      1.0  0.28448  0.63379  0.38480  1.0000
  C   C787      1.0  0.29486  0.63775  0.36757  1.0000
  C   C788      1.0  0.30239  0.62431  0.35768  1.0000
  H   H1259     1.0  0.28775  0.58951  0.38840  1.0000
  H   H1260     1.0  0.29674  0.65121  0.36172  1.0000
  H   H1261     1.0  0.30998  0.62745  0.34421  1.0000
  C   C789      1.0  0.40400  0.55602  0.31976  1.0000
  C   C790      1.0  0.41237  0.54360  0.33282  1.0000
  C   C791      1.0  0.42933  0.54446  0.33445  1.0000
  C   C792      1.0  0.43824  0.55736  0.32260  1.0000
  C   C793      1.0  0.42974  0.56994  0.30976  1.0000
  C   C794      1.0  0.41251  0.56949  0.30853  1.0000
  H   H1262     1.0  0.40589  0.53311  0.34151  1.0000
  H   H1263     1.0  0.43579  0.53470  0.34441  1.0000
  H   H1264     1.0  0.43668  0.57983  0.30048  1.0000
  H   H1265     1.0  0.40623  0.57902  0.29832  1.0000
  S   S366      1.0  0.25338  0.80508  0.39742  1.0000
  C   C795      1.0  0.47495  0.91133  0.07046  1.0000
  H   H1266     1.0  0.42744  0.77532  0.13579  1.0000
  C   C796      1.0  0.45349  0.65291  0.24734  1.0000
  Fe  Fe183     1.0  0.39965  0.61469  0.45066  1.0000
  C   C797      1.0  0.25469  0.62898  0.02745  1.0000
  S   S367      1.0  0.46793  0.82954  0.05275  1.0000
  H   H1267     1.0  0.48261  0.54715  0.48222  1.0000
  S   S368      1.0  0.37649  0.57521  0.45734  1.0000
  H   H1268     1.0  0.31663  0.64416  0.48971  1.0000
  H   H1269     1.0  0.36572  0.96212  0.09223  1.0000
  H   H1270     1.0  0.26133  0.60996  0.15627  1.0000
  C   C798      1.0  0.42287  0.63666  0.29964  1.0000
  C   C799      1.0  0.41647  0.62335  0.29623  1.0000
  C   C800      1.0  0.39810  0.62529  0.29732  1.0000
  C   C801      1.0  0.38613  0.64086  0.30120  1.0000
  C   C802      1.0  0.39262  0.65441  0.30400  1.0000
  C   C803      1.0  0.41087  0.65218  0.30360  1.0000
  H   H1271     1.0  0.42570  0.61137  0.29304  1.0000
  H   H1272     1.0  0.39324  0.61480  0.29499  1.0000
  H   H1273     1.0  0.38346  0.66652  0.30691  1.0000
  H   H1274     1.0  0.41558  0.66250  0.30634  1.0000
  H   H1275     1.0  0.45093  0.64305  0.26014  1.0000
  C   C804      1.0  0.26976  0.66927  0.45559  1.0000
  C   C805      1.0  0.44067  0.64450  0.45426  1.0000
  C   C806      1.0  0.26165  0.64047  0.46624  1.0000
  H   H1276     1.0  0.46764  0.98168  0.21402  1.0000
  H   H1277     1.0  0.47318  0.89760  0.07745  1.0000
  H   H1278     1.0  0.34388  0.69594  0.44345  1.0000
  C   C807      1.0  0.42703  0.63488  0.45943  1.0000
  H   H1279     1.0  0.47134  0.67686  0.22378  1.0000
  H   H1280     1.0  0.37771  0.71241  0.10178  1.0000
  C   C808      1.0  0.40182  0.68008  0.35927  1.0000
  C   C809      1.0  0.40178  0.66906  0.34826  1.0000
  C   C810      1.0  0.38555  0.66644  0.34670  1.0000
  C   C811      1.0  0.36934  0.67510  0.35579  1.0000
  C   C812      1.0  0.36934  0.68572  0.36722  1.0000
  C   C813      1.0  0.38563  0.68818  0.36898  1.0000
  H   H1281     1.0  0.41422  0.66279  0.34073  1.0000
  H   H1282     1.0  0.38554  0.65791  0.33823  1.0000
  H   H1283     1.0  0.35684  0.69247  0.37425  1.0000
  H   H1284     1.0  0.38572  0.69690  0.37727  1.0000
  C   C814      1.0  0.29872  0.73494  0.10050  1.0000
  C   C815      1.0  0.29766  0.74322  0.08285  1.0000
  C   C816      1.0  0.29104  0.73528  0.07277  1.0000
  C   C817      1.0  0.28555  0.71893  0.08012  1.0000
  C   C818      1.0  0.28715  0.71040  0.09759  1.0000
  C   C819      1.0  0.29353  0.71844  0.10776  1.0000
  H   H1285     1.0  0.30154  0.75594  0.07708  1.0000
  H   H1286     1.0  0.28992  0.74198  0.05925  1.0000
  H   H1287     1.0  0.28335  0.63424  0.43492  1.0000
  H   H1288     1.0  0.29449  0.71183  0.12132  1.0000
  C   C820      1.0  0.33486  0.84364  0.07272  1.0000
  C   C821      1.0  0.32929  0.84302  0.09102  1.0000
  C   C822      1.0  0.33030  0.85703  0.09804  1.0000
  C   C823      1.0  0.33745  0.87147  0.08692  1.0000
  C   C824      1.0  0.34262  0.87238  0.06853  1.0000
  C   C825      1.0  0.34105  0.85859  0.06141  1.0000
  H   H1289     1.0  0.32425  0.83167  0.09981  1.0000
  H   H1290     1.0  0.32607  0.85636  0.11222  1.0000
  H   H1291     1.0  0.34783  0.88367  0.05982  1.0000
  H   H1292     1.0  0.34512  0.85926  0.04720  1.0000
  C   C826      1.0  0.43416  0.87788  0.04879  1.0000
  C   C827      1.0  0.42742  0.87882  0.03393  1.0000
  C   C828      1.0  0.43388  0.86510  0.02452  1.0000
  H   H1293     1.0  0.28454  0.74364  0.39320  1.0000
  C   C829      1.0  0.49340  0.57434  0.40204  1.0000
  C   C830      1.0  0.45071  0.73217  0.23803  1.0000
  C   C831      1.0  0.44227  0.72785  0.25601  1.0000
  C   C832      1.0  0.45238  0.71846  0.26890  1.0000
  C   C833      1.0  0.47099  0.71362  0.26388  1.0000
  C   C834      1.0  0.47945  0.71822  0.24594  1.0000
  C   C835      1.0  0.46932  0.72736  0.23298  1.0000
  H   H1294     1.0  0.42787  0.73165  0.25997  1.0000
  H   H1295     1.0  0.44582  0.71522  0.28276  1.0000
  Fe  Fe184     1.0  0.49849  0.51757  0.36702  1.0000
  H   H1296     1.0  0.47591  0.73074  0.21912  1.0000
  C   C836      1.0  0.41588  0.72483  0.14000  1.0000
  C   C837      1.0  0.39767  0.72619  0.14111  1.0000
  C   C838      1.0  0.39012  0.73435  0.12612  1.0000
  C   C839      1.0  0.40082  0.74089  0.10987  1.0000
  C   C840      1.0  0.41923  0.73865  0.10851  1.0000
  C   C841      1.0  0.42673  0.73084  0.12362  1.0000
  H   H1297     1.0  0.38928  0.72140  0.15373  1.0000
  H   H1298     1.0  0.37604  0.73557  0.12722  1.0000
  H   H1299     1.0  0.42762  0.74349  0.09591  1.0000
  H   H1300     1.0  0.44086  0.72960  0.12265  1.0000
  C   C842      1.0  0.36313  0.84313  0.14270  1.0000
  C   C843      1.0  0.35951  0.83961  0.12788  1.0000
  C   C844      1.0  0.35072  0.82581  0.12988  1.0000
  C   C845      1.0  0.34525  0.81556  0.14676  1.0000
  C   C846      1.0  0.34853  0.81930  0.16167  1.0000
  C   C847      1.0  0.35756  0.83296  0.15963  1.0000
  H   H1301     1.0  0.36322  0.84784  0.11484  1.0000
  H   H1302     1.0  0.34784  0.82338  0.11840  1.0000
  H   H1303     1.0  0.34432  0.81145  0.17480  1.0000
  H   H1304     1.0  0.36032  0.83542  0.17116  1.0000
  C   C848      1.0  0.42142  0.83042  0.18726  1.0000
  C   C849      1.0  0.41233  0.83287  0.17369  1.0000
  C   C850      1.0  0.41910  0.82286  0.16052  1.0000
  C   C851      1.0  0.43489  0.81003  0.16101  1.0000
  C   C852      1.0  0.44390  0.80715  0.17477  1.0000
  C   C853      1.0  0.43730  0.81754  0.18775  1.0000
  H   H1305     1.0  0.40004  0.84248  0.17316  1.0000
  H   H1306     1.0  0.41192  0.82498  0.15008  1.0000
  H   H1307     1.0  0.45606  0.79715  0.17532  1.0000
  H   H1308     1.0  0.44446  0.81559  0.19817  1.0000
  C   C854      1.0  0.43794  0.93405  0.17640  1.0000
  C   C855      1.0  0.42865  0.92103  0.18755  1.0000
  C   C856      1.0  0.41290  0.91911  0.18391  1.0000
  C   C857      1.0  0.40609  0.93059  0.16944  1.0000
  C   C858      1.0  0.41534  0.94370  0.15848  1.0000
  C   C859      1.0  0.43131  0.94524  0.16177  1.0000
  H   H1309     1.0  0.43373  0.91228  0.19888  1.0000
  H   H1310     1.0  0.40586  0.90898  0.19250  1.0000
  H   H1311     1.0  0.41033  0.95264  0.14728  1.0000
  H   H1312     1.0  0.43833  0.95534  0.15311  1.0000
  C   C860      1.0  0.44603  0.95286  0.09732  1.0000
  C   C861      1.0  0.43833  0.95313  0.08329  1.0000
  C   C862      1.0  0.42689  0.94150  0.08552  1.0000
  C   C863      1.0  0.42321  0.92951  0.10179  1.0000
  C   C864      1.0  0.43068  0.92949  0.11585  1.0000
  C   C865      1.0  0.44185  0.94125  0.11368  1.0000
  H   H1313     1.0  0.44138  0.96218  0.07061  1.0000
  H   H1314     1.0  0.42117  0.94168  0.07460  1.0000
  H   H1315     1.0  0.42754  0.92058  0.12864  1.0000
  H   H1316     1.0  0.44711  0.94136  0.12479  1.0000
  C   C866      1.0  0.44647  0.85011  0.03035  1.0000
  H   H1317     1.0  0.47198  0.86504  0.99992  1.0000
  C   C867      1.0  0.37770  0.97609  0.02658  1.0000
  C   C868      1.0  0.27470  0.61144  0.06290  1.0000
  H   H1318     1.0  0.49236  0.76036  0.12639  1.0000
  C   C869      1.0  0.35819  0.69707  0.43929  1.0000
  H   H1319     1.0  0.26913  0.60078  0.09842  1.0000
  C   C870      1.0  0.25387  0.65969  0.43910  1.0000
  H   H1320     1.0  0.39714  0.67242  0.42015  1.0000
  C   C871      1.0  0.36445  0.69609  0.08408  1.0000
  C   C872      1.0  0.34427  0.70659  0.10952  1.0000
  C   C873      1.0  0.28469  0.64555  0.43986  1.0000
  H   H1321     1.0  0.27666  0.56868  0.28354  1.0000
  C   C874      1.0  0.27318  0.91860  0.21359  1.0000
  C   C875      1.0  0.27244  0.90123  0.22314  1.0000
  C   C876      1.0  0.28822  0.88814  0.22362  1.0000
  C   C877      1.0  0.30479  0.89233  0.21447  1.0000
  C   C878      1.0  0.30556  0.90963  0.20461  1.0000
  C   C879      1.0  0.28975  0.92279  0.20427  1.0000
  H   H1322     1.0  0.36370  0.69378  0.40559  1.0000
  H   H1323     1.0  0.28762  0.87478  0.23130  1.0000
  H   H1324     1.0  0.31834  0.91294  0.19760  1.0000
  H   H1325     1.0  0.29037  0.93625  0.19692  1.0000
  H   H1326     1.0  0.38211  0.79630  0.15823  1.0000
  H   H1327     1.0  0.39184  0.97398  0.11760  1.0000
  H   H1328     1.0  0.42823  0.65071  0.39742  1.0000
  C   C880      1.0  0.45317  0.84907  0.04522  1.0000
  H   H1329     1.0  0.46486  0.64727  0.45983  1.0000
  H   H1330     1.0  0.45273  0.58585  0.34112  1.0000
  C   C881      1.0  0.39480  0.78635  0.15562  1.0000
  Fe  Fe185     1.0  0.49948  0.97229  0.13447  1.0000
  H   H1331     1.0  0.45542  0.59678  0.45531  1.0000
  H   H1332     1.0  0.43653  0.87506  0.14522  1.0000
  C   C882      1.0  0.25768  0.61425  0.01965  1.0000
  H   H1333     1.0  0.35881  0.70994  0.42949  1.0000
  H   H1334     1.0  0.26210  0.58068  0.09999  1.0000
  S   S369      1.0  0.38743  0.60053  0.47764  1.0000
  H   H1335     1.0  0.25978  0.89794  0.23052  1.0000
  H   H1336     1.0  0.34457  0.97707  0.11491  1.0000
  H   H1337     1.0  0.38984  0.69627  0.41577  1.0000
  H   H1338     1.0  0.38776  0.77485  0.12031  1.0000
  H   H1339     1.0  0.31655  0.54904  0.36903  1.0000
  S   S370      1.0  0.26564  0.66714  0.10367  1.0000
  H   H1340     1.0  0.26404  0.84181  0.42625  1.0000
  C   C883      1.0  0.48360  0.56073  0.47406  1.0000
  C   C884      1.0  0.43965  0.67750  0.26211  1.0000
  H   H1341     1.0  0.34877  0.56238  0.34388  1.0000
  H   H1342     1.0  0.34302  0.99085  0.01364  1.0000
  C   C885      1.0  0.26945  0.75583  0.37265  1.0000
  C   C886      1.0  0.41864  0.86793  0.12479  1.0000
  H   H1343     1.0  0.28990  0.88312  0.17592  1.0000
  H   H1344     1.0  0.37359  0.66473  0.45678  1.0000
  H   H1345     1.0  0.28208  0.61792  0.06851  1.0000
  H   H1346     1.0  0.29893  0.59990  0.20996  1.0000
  H   H1347     1.0  0.37472  0.60524  0.35771  1.0000
  H   H1348     1.0  0.41535  0.75777  0.14369  1.0000
  Fe  Fe186     1.0  0.48959  0.83307  0.06388  1.0000
  H   H1349     1.0  0.35134  0.72892  0.06624  1.0000
  H   H1350     1.0  0.28684  0.56669  0.20853  1.0000
  C   C887      1.0  0.32161  0.67531  0.31797  1.0000
  C   C888      1.0  0.47139  0.66562  0.25881  1.0000
  H   H1351     1.0  0.31899  0.59709  0.19311  1.0000
  H   H1352     1.0  0.29815  0.55169  0.22523  1.0000
  H   H1353     1.0  0.33470  0.56682  0.18833  1.0000
  H   H1354     1.0  0.32581  0.54770  0.20160  1.0000
  H   H1355     1.0  0.28665  0.57371  0.22810  1.0000
  C   C889      1.0  0.30687  0.59156  0.20017  1.0000
  C   C890      1.0  0.46133  0.63533  0.38245  1.0000
  H   H1356     1.0  0.48152  0.63046  0.40606  1.0000
  H   H1357     1.0  0.44319  0.66554  0.39258  1.0000
  H   H1358     1.0  0.45073  0.63226  0.37777  1.0000
  H   H1359     1.0  0.47315  0.62418  0.38106  1.0000
  H   H1360     1.0  0.46538  0.64753  0.37325  1.0000
  C   C891      1.0  0.40104  0.80103  0.12461  1.0000
  C   C892      1.0  0.41612  0.77071  0.13411  1.0000
  H   H1361     1.0  0.44037  0.59810  0.32426  1.0000
  H   H1362     1.0  0.41198  0.80621  0.12653  1.0000
  H   H1363     1.0  0.38854  0.81131  0.12667  1.0000
  H   H1364     1.0  0.40554  0.79113  0.15841  1.0000
  H   H1365     1.0  0.41962  0.76824  0.12039  1.0000
  H   H1366     1.0  0.37178  0.78690  0.13586  1.0000
  N   N80       1.0  0.39389  0.83716  0.06334  1.0000
  C   C893      1.0  0.38361  0.83962  0.08125  1.0000
  C   C894      1.0  0.38717  0.82431  0.05776  1.0000
  C   C895      1.0  0.41303  0.83028  0.06385  1.0000
  C   C896      1.0  0.39175  0.85447  0.05050  1.0000
  H   H1367     1.0  0.36909  0.84444  0.08141  1.0000
  H   H1368     1.0  0.38792  0.84961  0.08575  1.0000
  H   H1369     1.0  0.38500  0.82691  0.09134  1.0000
  H   H1370     1.0  0.38840  0.81112  0.06721  1.0000
  H   H1371     1.0  0.37276  0.82914  0.05718  1.0000
  H   H1372     1.0  0.39460  0.82211  0.04429  1.0000
  H   H1373     1.0  0.42119  0.82819  0.05056  1.0000
  H   H1374     1.0  0.41521  0.81727  0.07343  1.0000
  H   H1375     1.0  0.41854  0.83978  0.06783  1.0000
  H   H1376     1.0  0.39955  0.85325  0.03687  1.0000
  H   H1377     1.0  0.39634  0.86461  0.05446  1.0000
  H   H1378     1.0  0.37755  0.85999  0.04953  1.0000
  S   S371      1.0  0.27488  0.65014  0.39761  1.0000
  H   H1379     1.0  0.36062  0.51935  0.37483  1.0000
  H   H1380     1.0  0.28974  0.65537  0.42799  1.0000
  H   H1381     1.0  0.48038  0.94368  0.06832  1.0000
  H   H1382     1.0  0.31991  0.85131  0.16832  1.0000
  N   N81       1.0  0.46635  0.57069  0.46928  1.0000
  H   H1383     1.0  0.28178  0.61135  0.04883  1.0000
  H   H1384     1.0  0.47129  0.55998  0.44591  1.0000
  H   H1385     1.0  0.47967  0.79921  0.14981  1.0000
  H   H1386     1.0  0.26122  0.62016  0.06280  1.0000
  H   H1387     1.0  0.42863  0.86579  0.01307  1.0000
  H   H1388     1.0  0.37153  0.66996  0.40958  1.0000
  N   N82       1.0  0.27350  0.59325  0.07337  1.0000
  C   C897      1.0  0.46113  0.56123  0.45847  1.0000
  H   H1389     1.0  0.26440  0.63739  0.02345  1.0000
  H   H1390     1.0  0.44101  0.69011  0.26461  1.0000
  C   C898      1.0  0.31948  0.64678  0.47529  1.0000
  C   C899      1.0  0.33112  0.99141  0.00849  1.0000
  H   H1391     1.0  0.47340  0.67783  0.26166  1.0000
  C   C900      1.0  0.36827  0.66509  0.44506  1.0000
  H   H1392     1.0  0.41227  0.88077  0.12907  1.0000
  C   C901      1.0  0.43869  0.61840  0.48572  1.0000
  C   C902      1.0  0.38500  0.98736  0.01104  1.0000
  C   C903      1.0  0.29171  0.58260  0.07433  1.0000
  H   H1393     1.0  0.42926  0.88855  0.05601  1.0000
  H   H1394     1.0  0.36521  0.54881  0.35615  1.0000
  H   H1395     1.0  0.46950  0.65578  0.27169  1.0000
  C   C904      1.0  0.49262  0.93358  0.06444  1.0000
  H   H1396     1.0  0.31807  0.53090  0.35879  1.0000
  H   H1397     1.0  0.37347  0.68657  0.09258  1.0000
  H   H1398     1.0  0.47353  0.65397  0.39873  1.0000
  H   H1399     1.0  0.34916  0.67959  0.41958  1.0000
  H   H1400     1.0  0.31440  0.56328  0.18526  1.0000
  C   C905      1.0  0.43954  0.65308  0.40163  1.0000
  C   C906      1.0  0.46947  0.64144  0.40694  1.0000
  H   H1401     1.0  0.46052  0.60945  0.41136  1.0000
  N   N83       1.0  0.45496  0.63780  0.40096  1.0000
  C   C907      1.0  0.39311  0.51147  0.48984  1.0000
  H   H1402     1.0  0.49357  0.97606  0.16896  1.0000
  H   H1403     1.0  0.49435  0.55916  0.46198  1.0000
  C   C908      1.0  0.48787  0.91419  0.09347  1.0000
  H   H1404     1.0  0.35423  0.66331  0.45006  1.0000
  H   H1405     1.0  0.25787  0.66974  0.42689  1.0000
  H   H1406     1.0  0.48680  0.86143  0.02471  1.0000
  N   N84       1.0  0.31162  0.57260  0.20900  1.0000
  H   H1407     1.0  0.43929  0.57983  0.48261  1.0000
  N   N85       1.0  0.37074  0.96159  0.11762  1.0000
  C   C909      1.0  0.36428  0.94500  0.12694  1.0000
  C   C910      1.0  0.35606  0.97718  0.12038  1.0000
  C   C911      1.0  0.37688  0.96189  0.09834  1.0000
  C   C912      1.0  0.38574  0.96229  0.12491  1.0000
  H   H1408     1.0  0.33871  0.87395  0.15707  1.0000
  N   N86       1.0  0.47292  0.99140  0.18562  1.0000
  H   H1409     1.0  0.36203  0.73323  0.09869  1.0000
  H   H1410     1.0  0.38260  0.50897  0.48514  1.0000
  S   S372      1.0  0.49232  0.85489  0.11657  1.0000
  H   H1411     1.0  0.48532  0.81707  0.13158  1.0000
  C   C913      1.0  0.36324  0.68122  0.41588  1.0000
  H   H1412     1.0  0.42765  0.68056  0.25623  1.0000
  H   H1413     1.0  0.33526  0.98166  0.99966  1.0000
  C   C914      1.0  0.26461  0.58486  0.06464  1.0000
  C   C915      1.0  0.49945  0.86251  0.01458  1.0000
  H   H1414     1.0  0.49175  0.96694  0.19238  1.0000
  H   H1415     1.0  0.29137  0.56876  0.08210  1.0000
  H   H1416     1.0  0.39539  0.98168  0.00096  1.0000
  H   H1417     1.0  0.37616  0.65331  0.43949  1.0000
  C   C916      1.0  0.34355  0.72429  0.07982  1.0000
  C   C917      1.0  0.32880  0.63296  0.46643  1.0000
  H   H1418     1.0  0.25187  0.83681  0.45889  1.0000
  C   C918      1.0  0.45301  0.62713  0.47990  1.0000
  C   C919      1.0  0.34614  0.52379  0.37447  1.0000
  H   H1419     1.0  0.33677  0.87580  0.13471  1.0000
  H   H1420     1.0  0.41258  0.85738  0.13498  1.0000
  C   C920      1.0  0.30387  0.88504  0.17035  1.0000
  H   H1421     1.0  0.46239  0.92072  0.07502  1.0000
  C   C921      1.0  0.45678  0.49846  0.44479  1.0000
  H   H1422     1.0  0.34777  0.51640  0.34292  1.0000
  H   H1423     1.0  0.34089  0.51169  0.37595  1.0000
  C   C922      1.0  0.25932  0.78611  0.38792  1.0000
  N   N87       1.0  0.36951  0.68181  0.43156  1.0000
  C   C923      1.0  0.26298  0.59418  0.09159  1.0000
  S   S373      1.0  0.25545  0.57988  0.25653  1.0000
  H   H1424     1.0  0.33466  0.57623  0.21597  1.0000
  H   H1425     1.0  0.33327  0.71785  0.07840  1.0000
  H   H1426     1.0  0.47861  0.58816  0.44640  1.0000
  S   S374      1.0  0.41452  0.58970  0.44112  1.0000
  H   H1427     1.0  0.35104  0.97728  0.13482  1.0000
  C   C924      1.0  0.35279  0.52835  0.34238  1.0000
  N   N88       1.0  0.35523  0.71203  0.09160  1.0000
  H   H1428     1.0  0.39360  0.68411  0.43752  1.0000
  H   H1429     1.0  0.31458  0.57835  0.23283  1.0000
  C   C925      1.0  0.45397  0.64026  0.46419  1.0000
  C   C926      1.0  0.44266  0.86261  0.14006  1.0000
  H   H1430     1.0  0.26891  0.69105  0.14256  1.0000
  Fe  Fe187     1.0  0.26555  0.68434  0.07629  1.0000
  H   H1431     1.0  0.30008  0.58178  0.06081  1.0000
  H   H1432     1.0  0.41532  0.61471  0.47959  1.0000
  S   S375      1.0  0.27967  0.69599  0.40317  1.0000
  N   N89       1.0  0.34338  0.53673  0.35776  1.0000
  C   C927      1.0  0.27302  0.60507  0.14686  1.0000
  H   H1433     1.0  0.43777  0.61889  0.40927  1.0000
  H   H1434     1.0  0.45065  0.60950  0.33408  1.0000
  N   N90       1.0  0.39916  0.78386  0.13710  1.0000
  H   H1435     1.0  0.30712  0.88255  0.12754  1.0000
  C   C928      1.0  0.44952  0.62140  0.41261  1.0000
  H   H1436     1.0  0.35599  0.63456  0.34614  1.0000
  N   N91       1.0  0.39999  0.79033  0.22815  1.0000
  C   C929      1.0  0.39407  0.77468  0.24094  1.0000
  C   C930      1.0  0.38578  0.80649  0.22999  1.0000
  C   C931      1.0  0.40369  0.78750  0.20981  1.0000
  C   C932      1.0  0.41644  0.79261  0.23187  1.0000
  H   H1437     1.0  0.40460  0.76232  0.23997  1.0000
  H   H1438     1.0  0.38182  0.77238  0.23842  1.0000
  H   H1439     1.0  0.39109  0.77640  0.25492  1.0000
  H   H1440     1.0  0.38296  0.80936  0.24352  1.0000
  H   H1441     1.0  0.38969  0.81849  0.22028  1.0000
  H   H1442     1.0  0.37306  0.80517  0.22756  1.0000
  H   H1443     1.0  0.39167  0.78540  0.20664  1.0000
  H   H1444     1.0  0.41462  0.77563  0.20784  1.0000
  H   H1445     1.0  0.40794  0.79914  0.19982  1.0000
  H   H1446     1.0  0.41435  0.79410  0.24581  1.0000
  H   H1447     1.0  0.42083  0.80476  0.22302  1.0000
  H   H1448     1.0  0.42768  0.78097  0.22985  1.0000
  N   N92       1.0  0.42688  0.60111  0.35093  1.0000
  C   C933      1.0  0.41727  0.58674  0.35355  1.0000
  C   C934      1.0  0.43166  0.60062  0.36779  1.0000
  C   C935      1.0  0.41519  0.61852  0.34535  1.0000
  C   C936      1.0  0.44334  0.59856  0.33701  1.0000
  H   H1449     1.0  0.40512  0.58792  0.36437  1.0000
  H   H1450     1.0  0.42582  0.57335  0.35716  1.0000
  H   H1451     1.0  0.41318  0.58695  0.34114  1.0000
  H   H1452     1.0  0.44073  0.58780  0.37225  1.0000
  H   H1453     1.0  0.43870  0.61147  0.36625  1.0000
  H   H1454     1.0  0.41961  0.60199  0.37877  1.0000
  H   H1455     1.0  0.42249  0.62959  0.34156  1.0000
  H   H1456     1.0  0.40341  0.62155  0.35615  1.0000
  H   H1457     1.0  0.41011  0.61875  0.33356  1.0000
  Fe  Fe188     1.0  0.28924  0.67265  0.38988  1.0000
  S   S376      1.0  0.29799  0.68873  0.36280  1.0000
  S   S377      1.0  0.48094  0.93246  0.13246  1.0000
  C   C937      1.0  0.27071  0.77065  0.39517  1.0000
  S   S378      1.0  0.27582  0.73738  0.36240  1.0000
  H   H1458     1.0  0.39314  0.77363  0.16536  1.0000
  N   N93       1.0  0.49059  0.91535  0.07415  1.0000
  H   H1459     1.0  0.45734  0.86012  0.13896  1.0000
  H   H1460     1.0  0.26347  0.57108  0.07210  1.0000
  H   H1461     1.0  0.32635  0.55672  0.22901  1.0000
  Fe  Fe189     1.0  0.29084  0.71176  0.37651  1.0000
  C   C938      1.0  0.27571  0.75549  0.38761  1.0000
  C   C939      1.0  0.38475  0.77724  0.13404  1.0000
  H   H1462     1.0  0.26778  0.62757  0.12537  1.0000
  S   S379      1.0  0.41213  0.63839  0.44541  1.0000
  H   H1463     1.0  0.36058  0.98989  0.11365  1.0000
  H   H1464     1.0  0.37138  0.63283  0.36930  1.0000
  H   H1465     1.0  0.37277  0.69977  0.07052  1.0000
  H   H1466     1.0  0.42241  0.50725  0.45997  1.0000
  H   H1467     1.0  0.35468  0.68887  0.08292  1.0000
  H   H1468     1.0  0.29512  0.64041  0.44801  1.0000
  S   S380      1.0  0.49492  0.81914  0.09092  1.0000
  H   H1469     1.0  0.25293  0.68407  0.17447  1.0000
  H   H1470     1.0  0.27171  0.63566  0.47483  1.0000
  C   C940      1.0  0.44727  0.86308  0.05430  1.0000
  H   H1471     1.0  0.47548  0.96516  0.18138  1.0000
  H   H1472     1.0  0.33780  0.71824  0.11589  1.0000
  H   H1473     1.0  0.44335  0.84798  0.10341  1.0000
  H   H1474     1.0  0.43697  0.66829  0.27528  1.0000
  C   C941      1.0  0.49050  0.80325  0.13848  1.0000
  H   H1475     1.0  0.28344  0.69762  0.10322  1.0000
  C   C942      1.0  0.33499  0.61400  0.38660  1.0000
  H   H1476     1.0  0.33902  0.60580  0.39916  1.0000
  H   H1477     1.0  0.32506  0.62613  0.38984  1.0000
  H   H1478     1.0  0.32793  0.60622  0.38206  1.0000
  H   H1479     1.0  0.29875  0.59333  0.19011  1.0000
  N   N94       1.0  0.43827  0.86408  0.12274  1.0000
  N   N95       1.0  0.31183  0.87805  0.15389  1.0000
  H   H1480     1.0  0.27370  0.61334  0.40540  1.0000
  H   H1481     1.0  0.27574  0.77040  0.40660  1.0000
  H   H1482     1.0  0.35276  0.68445  0.31296  1.0000
  H   H1483     1.0  0.47234  0.59611  0.46671  1.0000
  N   N96       1.0  0.26747  0.65376  0.45020  1.0000
  H   H1484     1.0  0.36243  0.69783  0.45125  1.0000
  H   H1485     1.0  0.44102  0.89133  0.11445  1.0000
  H   H1486     1.0  0.39647  0.95007  0.12414  1.0000
  C   C943      1.0  0.31763  0.69902  0.29225  1.0000
  C   C944      1.0  0.48392  0.97411  0.18194  1.0000
  H   H1487     1.0  0.30509  0.70792  0.32437  1.0000
  H   H1488     1.0  0.32089  0.71196  0.28418  1.0000
  C   C945      1.0  0.35059  0.55248  0.35638  1.0000
  H   H1489     1.0  0.34365  0.55934  0.36760  1.0000
  H   H1490     1.0  0.44120  0.88133  0.09672  1.0000
  H   H1491     1.0  0.46043  0.87568  0.10666  1.0000
  H   H1492     1.0  0.30357  0.89955  0.16793  1.0000
  N   N97       1.0  0.35065  0.61868  0.37281  1.0000
  H   H1493     1.0  0.36478  0.62053  0.39165  1.0000
  H   H1494     1.0  0.35066  0.64108  0.38301  1.0000
  H   H1495     1.0  0.35638  0.59400  0.36423  1.0000
  H   H1496     1.0  0.36832  0.59369  0.38044  1.0000
  H   H1497     1.0  0.33880  0.62233  0.35047  1.0000
  H   H1498     1.0  0.32300  0.71897  0.31201  1.0000
  H   H1499     1.0  0.33438  0.64184  0.35939  1.0000
  H   H1500     1.0  0.30738  0.67483  0.47236  1.0000
  C   C946      1.0  0.34470  0.62983  0.35651  1.0000
  C   C947      1.0  0.31438  0.66411  0.46549  1.0000
  H   H1501     1.0  0.35986  0.94424  0.14157  1.0000
  C   C948      1.0  0.35980  0.62867  0.37953  1.0000
  C   C949      1.0  0.36312  0.60218  0.36860  1.0000
  Fe  Fe190     1.0  0.40039  0.57544  0.46732  1.0000
  C   C950      1.0  0.44559  0.87872  0.10949  1.0000
  H   H1502     1.0  0.33923  0.52973  0.38632  1.0000
  C   C951      1.0  0.31984  0.70577  0.31929  1.0000
  C   C952      1.0  0.34585  0.69013  0.30158  1.0000
  C   C953      1.0  0.32214  0.56212  0.19547  1.0000
  H   H1503     1.0  0.35108  0.68077  0.29231  1.0000
  H   H1504     1.0  0.34993  0.70296  0.29447  1.0000
  N   N98       1.0  0.32622  0.69256  0.30778  1.0000
  H   H1505     1.0  0.32625  0.70136  0.33103  1.0000
  H   H1506     1.0  0.32214  0.68929  0.28335  1.0000
  H   H1507     1.0  0.30279  0.70103  0.29650  1.0000
  H   H1508     1.0  0.44120  0.65501  0.44244  1.0000
  C   C954      1.0  0.29512  0.56585  0.21811  1.0000
  H   H1509     1.0  0.33070  0.89533  0.14384  1.0000
  H   H1510     1.0  0.43766  0.85151  0.15033  1.0000
  Fe  Fe191     1.0  0.25598  0.58836  0.19179  1.0000
  S   S381      1.0  0.25931  0.60715  0.20654  1.0000
  C   C955      1.0  0.28444  0.58878  0.15204  1.0000
  H   H1511     1.0  0.48402  0.65998  0.25016  1.0000
  H   H1512     1.0  0.44810  0.56837  0.45479  1.0000
  H   H1513     1.0  0.45555  0.50301  0.43062  1.0000
  H   H1514     1.0  0.44061  0.83590  0.12614  1.0000
  H   H1515     1.0  0.27961  0.66520  0.46434  1.0000
  H   H1516     1.0  0.37704  0.72572  0.07975  1.0000
  C   C956      1.0  0.30120  0.88743  0.14018  1.0000
  H   H1517     1.0  0.32085  0.98668  0.02014  1.0000
  C   C957      1.0  0.31216  0.85873  0.15786  1.0000
  H   H1518     1.0  0.35107  0.53783  0.32953  1.0000
  C   C958      1.0  0.36859  0.72118  0.09300  1.0000
  H   H1519     1.0  0.29864  0.58864  0.08097  1.0000
  H   H1520     1.0  0.38279  0.76443  0.14348  1.0000
  C   C959      1.0  0.27670  0.61506  0.12937  1.0000
  H   H1521     1.0  0.28719  0.88547  0.14470  1.0000
  S   S382      1.0  0.28015  0.57587  0.17370  1.0000
  H   H1522     1.0  0.41467  0.86904  0.11210  1.0000
  H   H1523     1.0  0.46088  0.84357  0.11533  1.0000
  C   C960      1.0  0.25803  0.77125  0.36548  1.0000
  H   H1524     1.0  0.32614  0.66511  0.30959  1.0000
  H   H1525     1.0  0.30076  0.90203  0.13682  1.0000
  C   C961      1.0  0.33028  0.88094  0.14712  1.0000
  S   S383      1.0  0.41763  0.55248  0.48288  1.0000
  H   H1526     1.0  0.35251  0.69678  0.11858  1.0000
  H   H1527     1.0  0.40420  0.79957  0.11055  1.0000
  C   C962      1.0  0.44612  0.84715  0.11662  1.0000
  C   C963      1.0  0.38833  0.68381  0.42599  1.0000
  C   C964      1.0  0.25289  0.78629  0.37315  1.0000
  H   H1528     1.0  0.35286  0.94396  0.12196  1.0000
  H   H1529     1.0  0.49761  0.54575  0.41067  1.0000
  H   H1530     1.0  0.33624  0.73636  0.08522  1.0000
  H   H1531     1.0  0.47602  0.92419  0.09823  1.0000
  H   H1532     1.0  0.30693  0.67666  0.32316  1.0000
  C   C965      1.0  0.32230  0.57087  0.22224  1.0000
  H   H1533     1.0  0.31855  0.85293  0.14583  1.0000
  H   H1534     1.0  0.29844  0.85600  0.16268  1.0000
  H   H1535     1.0  0.49469  0.67051  0.35621  1.0000
  H   H1536     1.0  0.44768  0.68586  0.22635  1.0000
  H   H1537     1.0  0.25311  0.77157  0.35395  1.0000
  H   H1538     1.0  0.25983  0.62860  0.46257  1.0000
  H   H1539     1.0  0.44193  0.65541  0.24094  1.0000
  C   C966      1.0  0.46825  0.58874  0.45891  1.0000
  H   H1540     1.0  0.49235  0.81116  0.16848  1.0000
  H   H1541     1.0  0.49289  0.79435  0.12910  1.0000
  C   C967      1.0  0.49746  0.58982  0.40362  1.0000
  S   S384      1.0  0.49313  0.85937  0.06584  1.0000
  H   H1542     1.0  0.49506  0.93492  0.04977  1.0000
  S   S385      1.0  0.47038  0.62044  0.49149  1.0000
  H   H1543     1.0  0.49856  0.82848  0.14981  1.0000
  C   C968      1.0  0.45244  0.57213  0.48571  1.0000
  H   H1544     1.0  0.26986  0.61126  0.00987  1.0000
  H   H1545     1.0  0.45946  0.54759  0.46595  1.0000
  H   H1546     1.0  0.46558  0.64650  0.23860  1.0000
  H   H1547     1.0  0.47639  0.91236  0.05596  1.0000
  C   C969      1.0  0.49869  0.87817  0.13263  1.0000
  C   C970      1.0  0.36401  0.98334  0.03948  1.0000
  H   H1548     1.0  0.48609  0.83478  0.01491  1.0000
  H   H1549     1.0  0.48570  0.90083  0.10133  1.0000
  H   H1550     1.0  0.25800  0.71413  0.14154  1.0000
  S   S386      1.0  0.49837  0.61895  0.44463  1.0000
  S   S387      1.0  0.49491  0.54638  0.35319  1.0000
  Fe  Fe192     1.0  0.49661  0.62161  0.47227  1.0000
  H   H1551     1.0  0.42351  0.49856  0.44103  1.0000
  H   H1552     1.0  0.49959  0.91673  0.09685  1.0000
  H   H1553     1.0  0.45031  0.55877  0.49370  1.0000
  H   H1554     1.0  0.27205  0.58408  0.05077  1.0000
  C   C971      1.0  0.49879  0.83641  0.00506  1.0000
  N   N99       1.0  0.50015  0.85536  0.99905  1.0000
  H   H1555     1.0  0.26659  0.81842  0.42701  1.0000
  H   H1556     1.0  0.25084  0.59265  0.06375  1.0000
  H   H1557     1.0  0.25407  0.83471  0.41233  1.0000
  C   C972      1.0  0.25705  0.83157  0.42582  1.0000
  H   H1558     1.0  0.49968  0.68068  0.38098  1.0000
  H   H1559     1.0  0.49999  0.58153  0.34945  1.0000
  H   H1560     1.0  0.25454  0.81345  0.45975  1.0000
  H   H1561     1.0  0.50054  0.87676  0.01065  1.0000
  C   C973      1.0  0.42042  0.51802  0.50162  1.0000
  H   H1562     1.0  0.43095  0.52052  0.50629  1.0000
  H   H1563     1.0  0.48506  0.86055  0.97879  1.0000
  H   H1564     1.0  0.39112  0.50817  0.57422  1.0000
  H   H1565     1.0  0.48583  0.88002  0.98568  1.0000
  C   C974      1.0  0.48510  0.86569  0.99047  1.0000
  C   C975      1.0  0.40268  0.49764  0.50098  1.0000
  C   C976      1.0  0.41607  0.50112  0.50715  1.0000
  H   H1566     1.0  0.43771  0.60852  0.49807  1.0000
  H   H1567     1.0  0.49928  0.83050  0.99373  1.0000
  H   H1568     1.0  0.45611  0.57897  0.49432  1.0000
  Fe  Fe193     1.0  0.60777  0.22308  0.16753  1.0000
  S   S388      1.0  0.61035  0.19349  0.17094  1.0000
  S   S389      1.0  0.59813  0.23885  0.18976  1.0000
  Fe  Fe194     1.0  0.62222  0.22768  0.12752  1.0000
  S   S390      1.0  0.62681  0.19869  0.12758  1.0000
  S   S391      1.0  0.62879  0.24763  0.10223  1.0000
  Fe  Fe195     1.0  0.59975  0.19982  0.14576  1.0000
  S   S392      1.0  0.58188  0.18267  0.14325  1.0000
  Fe  Fe196     1.0  0.63697  0.19451  0.15232  1.0000
  S   S393      1.0  0.66315  0.17546  0.15483  1.0000
  S   S394      1.0  0.59429  0.22947  0.14417  1.0000
  S   S395      1.0  0.63514  0.22349  0.15044  1.0000
  Fe  Fe197     1.0  0.52413  0.15247  0.04775  1.0000
  S   S396      1.0  0.55354  0.15264  0.04093  1.0000
  H   H1569     1.0  0.54893  0.46274  0.35968  1.0000
  Fe  Fe198     1.0  0.52498  0.13484  0.08660  1.0000
  S   S397      1.0  0.55433  0.13282  0.08298  1.0000
  C   C977      1.0  0.57642  0.39242  0.46077  1.0000
  Fe  Fe199     1.0  0.54928  0.16072  0.06714  1.0000
  S   S398      1.0  0.56311  0.18078  0.07078  1.0000
  Fe  Fe200     1.0  0.55629  0.12477  0.05753  1.0000
  S   S399      1.0  0.57729  0.10081  0.05130  1.0000
  S   S400      1.0  0.51949  0.16347  0.07237  1.0000
  S   S401      1.0  0.52730  0.12398  0.06272  1.0000
  S   S402      1.0  0.72110  0.06982  0.03440  1.0000
  S   S403      1.0  0.69015  0.10238  0.05030  1.0000
  Fe  Fe201     1.0  0.71446  0.10002  0.02836  1.0000
  Fe  Fe202     1.0  0.69540  0.07262  0.05520  1.0000
  S   S404      1.0  0.69089  0.05845  0.08397  1.0000
  S   S405      1.0  0.71049  0.24129  0.06429  1.0000
  Fe  Fe203     1.0  0.72715  0.07624  0.22858  1.0000
  S   S406      1.0  0.73494  0.06639  0.20301  1.0000
  C   C978      1.0  0.73638  0.16528  0.14763  1.0000
  Fe  Fe204     1.0  0.69244  0.09952  0.21988  1.0000
  S   S407      1.0  0.69742  0.09220  0.19354  1.0000
  S   S408      1.0  0.66662  0.11890  0.22683  1.0000
  Fe  Fe205     1.0  0.70623  0.06425  0.20769  1.0000
  S   S409      1.0  0.69952  0.04468  0.19560  1.0000
  Fe  Fe206     1.0  0.72541  0.09492  0.19041  1.0000
  H   H1570     1.0  0.59411  0.37007  0.43872  1.0000
  S   S410      1.0  0.69905  0.07119  0.23472  1.0000
  S   S411      1.0  0.71980  0.10510  0.21547  1.0000
  Fe  Fe207     1.0  0.60329  0.04408  0.18022  1.0000
  S   S412      1.0  0.61841  0.04267  0.20141  1.0000
  Fe  Fe208     1.0  0.56729  0.06459  0.17165  1.0000
  S   S413      1.0  0.57009  0.05117  0.14956  1.0000
  S   S414      1.0  0.54230  0.08485  0.17855  1.0000
  Fe  Fe209     1.0  0.59835  0.05482  0.14219  1.0000
  S   S415      1.0  0.60754  0.06619  0.11314  1.0000
  S   S416      1.0  0.57525  0.03905  0.19068  1.0000
  S   S417      1.0  0.59463  0.07071  0.16275  1.0000
  C   C979      1.0  0.71896  0.46312  0.24801  1.0000
  S   S418      1.0  0.67808  0.07187  0.03735  1.0000
  C   C980      1.0  0.71233  0.49311  0.45438  1.0000
  H   H1571     1.0  0.71892  0.28708  0.28171  1.0000
  H   H1572     1.0  0.62787  0.10466  0.17978  1.0000
  C   C981      1.0  0.51806  0.14006  0.00610  1.0000
  Fe  Fe210     1.0  0.64284  0.27186  0.25342  1.0000
  S   S419      1.0  0.62155  0.29682  0.25654  1.0000
  S   S420      1.0  0.64638  0.25200  0.23588  1.0000
  Fe  Fe211     1.0  0.66134  0.27643  0.28090  1.0000
  S   S421      1.0  0.64123  0.30096  0.28607  1.0000
  S   S422      1.0  0.68282  0.26804  0.29693  1.0000
  Fe  Fe212     1.0  0.62088  0.28658  0.28591  1.0000
  S   S423      1.0  0.59629  0.28881  0.30787  1.0000
  Fe  Fe213     1.0  0.64422  0.30890  0.25662  1.0000
  S   S424      1.0  0.64737  0.33747  0.24739  1.0000
  S   S425      1.0  0.64064  0.26100  0.28304  1.0000
  S   S426      1.0  0.66566  0.28492  0.25117  1.0000
  Fe  Fe214     1.0  0.59990  0.32434  0.38748  1.0000
  S   S427      1.0  0.57141  0.33899  0.38779  1.0000
  S   S428      1.0  0.61666  0.30145  0.37476  1.0000
  Fe  Fe215     1.0  0.60759  0.34954  0.40607  1.0000
  S   S429      1.0  0.58013  0.36664  0.40765  1.0000
  S   S430      1.0  0.62950  0.35263  0.41734  1.0000
  Fe  Fe216     1.0  0.57078  0.34085  0.41578  1.0000
  S   S431      1.0  0.54731  0.33960  0.43916  1.0000
  Fe  Fe217     1.0  0.58298  0.36348  0.37979  1.0000
  S   S432      1.0  0.57781  0.38561  0.35640  1.0000
  S   S433      1.0  0.59816  0.32378  0.41623  1.0000
  S   S434      1.0  0.61148  0.34884  0.37744  1.0000
  Fe  Fe218     1.0  0.66144  0.43180  0.42232  1.0000
  S   S435      1.0  0.68647  0.41801  0.40652  1.0000
  S   S436      1.0  0.63521  0.43037  0.41756  1.0000
  Fe  Fe219     1.0  0.68111  0.44683  0.44118  1.0000
  S   S437      1.0  0.70806  0.43367  0.42731  1.0000
  S   S438      1.0  0.67441  0.46391  0.46200  1.0000
  Fe  Fe220     1.0  0.69647  0.44269  0.40282  1.0000
  C   C982      1.0  0.70613  0.33802  0.41498  1.0000
  Fe  Fe221     1.0  0.69613  0.40974  0.43196  1.0000
  S   S439      1.0  0.67035  0.45777  0.41602  1.0000
  S   S440      1.0  0.67013  0.42168  0.44841  1.0000
  S   S441      1.0  0.71503  0.30214  0.36340  1.0000
  S   S442      1.0  0.70862  0.34561  0.35907  1.0000
  Fe  Fe222     1.0  0.71727  0.32104  0.37879  1.0000
  S   S443      1.0  0.70322  0.32041  0.40729  1.0000
  Fe  Fe223     1.0  0.70876  0.32668  0.34266  1.0000
  S   S444      1.0  0.68609  0.33173  0.32876  1.0000
  S   S445      1.0  0.73732  0.32614  0.32834  1.0000
  Fe  Fe224     1.0  0.70553  0.40980  0.22771  1.0000
  S   S446      1.0  0.72169  0.38655  0.21562  1.0000
  S   S447      1.0  0.67967  0.42454  0.21964  1.0000
  Fe  Fe225     1.0  0.73185  0.40650  0.24998  1.0000
  H   H1573     1.0  0.72313  0.28991  0.06682  1.0000
  H   H1574     1.0  0.61466  0.36235  0.46764  1.0000
  H   H1575     1.0  0.57590  0.23016  0.29353  1.0000
  Fe  Fe226     1.0  0.72499  0.37349  0.24345  1.0000
  S   S448      1.0  0.72294  0.34484  0.25289  1.0000
  S   S449      1.0  0.72887  0.42255  0.22278  1.0000
  S   S450      1.0  0.70696  0.39583  0.25586  1.0000
  S   S451      1.0  0.61161  0.44436  0.36624  1.0000
  C   C983      1.0  0.68611  0.47978  0.46284  1.0000
  S   S452      1.0  0.60295  0.47161  0.32106  1.0000
  Fe  Fe227     1.0  0.70300  0.07119  0.01605  1.0000
  H   H1576     1.0  0.67992  0.42756  0.25517  1.0000
  C   C984      1.0  0.72095  0.07038  0.15609  1.0000
  H   H1577     1.0  0.58204  0.39949  0.44714  1.0000
  H   H1578     1.0  0.73401  0.40149  0.35459  1.0000
  H   H1579     1.0  0.66534  0.46185  0.34565  1.0000
  H   H1580     1.0  0.52512  0.46062  0.34649  1.0000
  S   S453      1.0  0.63231  0.48378  0.33516  1.0000
  H   H1581     1.0  0.73788  0.04066  0.17511  1.0000
  S   S454      1.0  0.75020  0.38265  0.24051  1.0000
  C   C985      1.0  0.69554  0.36791  0.42112  1.0000
  C   C986      1.0  0.69361  0.35426  0.41404  1.0000
  H   H1582     1.0  0.53597  0.43797  0.34504  1.0000
  H   H1583     1.0  0.68573  0.38026  0.42061  1.0000
  H   H1584     1.0  0.68226  0.35614  0.40816  1.0000
  C   C987      1.0  0.55299  0.33433  0.46012  1.0000
  C   C988      1.0  0.57022  0.32535  0.46235  1.0000
  H   H1585     1.0  0.55086  0.02667  0.14479  1.0000
  H   H1586     1.0  0.62796  0.08713  0.23537  1.0000
  C   C989      1.0  0.55159  0.47582  0.32441  1.0000
  H   H1587     1.0  0.58008  0.32095  0.45133  1.0000
  H   H1588     1.0  0.60958  0.10368  0.10699  1.0000
  C   C990      1.0  0.63075  0.37430  0.41750  1.0000
  C   C991      1.0  0.61884  0.38925  0.41040  1.0000
  C   C992      1.0  0.62003  0.40640  0.41091  1.0000
  C   C993      1.0  0.63329  0.40870  0.41819  1.0000
  C   C994      1.0  0.64516  0.39377  0.42533  1.0000
  C   C995      1.0  0.64383  0.37659  0.42506  1.0000
  H   H1589     1.0  0.60877  0.38764  0.40444  1.0000
  H   H1590     1.0  0.61095  0.41798  0.40527  1.0000
  H   H1591     1.0  0.65529  0.39545  0.43117  1.0000
  H   H1592     1.0  0.65299  0.36505  0.43072  1.0000
  C   C996      1.0  0.58600  0.40293  0.35875  1.0000
  C   C997      1.0  0.58238  0.40726  0.37542  1.0000
  C   C998      1.0  0.59014  0.42012  0.37773  1.0000
  C   C999      1.0  0.60146  0.42871  0.36331  1.0000
  C   C1000     1.0  0.60457  0.42484  0.34648  1.0000
  C   C1001     1.0  0.59690  0.41189  0.34421  1.0000
  H   H1593     1.0  0.57336  0.40088  0.38650  1.0000
  H   H1594     1.0  0.58722  0.42347  0.39063  1.0000
  H   H1595     1.0  0.61309  0.43157  0.33521  1.0000
  H   H1596     1.0  0.59972  0.40856  0.33129  1.0000
  C   C1002     1.0  0.66797  0.33880  0.25071  1.0000
  C   C1003     1.0  0.66968  0.35399  0.25529  1.0000
  C   C1004     1.0  0.68653  0.35588  0.25609  1.0000
  C   C1005     1.0  0.70163  0.34237  0.25279  1.0000
  C   C1006     1.0  0.69980  0.32693  0.24885  1.0000
  C   C1007     1.0  0.68305  0.32526  0.24762  1.0000
  H   H1597     1.0  0.65801  0.36432  0.25815  1.0000
  H   H1598     1.0  0.68779  0.36771  0.25945  1.0000
  H   H1599     1.0  0.71139  0.31650  0.24609  1.0000
  H   H1600     1.0  0.68200  0.31370  0.24368  1.0000
  C   C1008     1.0  0.60153  0.29157  0.32705  1.0000
  C   C1009     1.0  0.61894  0.28523  0.33003  1.0000
  C   C1010     1.0  0.62327  0.28804  0.34489  1.0000
  C   C1011     1.0  0.61035  0.29751  0.35674  1.0000
  C   C1012     1.0  0.59291  0.30386  0.35384  1.0000
  C   C1013     1.0  0.58846  0.30071  0.33913  1.0000
  H   H1601     1.0  0.62907  0.27790  0.32100  1.0000
  H   H1602     1.0  0.63678  0.28301  0.34706  1.0000
  H   H1603     1.0  0.58281  0.31107  0.36299  1.0000
  H   H1604     1.0  0.57496  0.30563  0.33694  1.0000
  C   C1014     1.0  0.68347  0.28568  0.30602  1.0000
  C   C1015     1.0  0.68928  0.28207  0.32200  1.0000
  C   C1016     1.0  0.69027  0.29611  0.32905  1.0000
  C   C1017     1.0  0.68508  0.31382  0.32031  1.0000
  C   C1018     1.0  0.67943  0.31740  0.30428  1.0000
  C   C1019     1.0  0.67887  0.30338  0.29704  1.0000
  H   H1605     1.0  0.69306  0.26839  0.32889  1.0000
  H   H1606     1.0  0.69492  0.29317  0.34127  1.0000
  H   H1607     1.0  0.67618  0.33102  0.29705  1.0000
  H   H1608     1.0  0.67534  0.30628  0.28424  1.0000
  H   H1609     1.0  0.60904  0.24032  0.29779  1.0000
  H   H1610     1.0  0.52702  0.02473  0.13100  1.0000
  H   H1611     1.0  0.56566  0.36407  0.48433  1.0000
  C   C1020     1.0  0.63490  0.44326  0.26442  1.0000
  Fe  Fe228     1.0  0.65229  0.47304  0.31276  1.0000
  C   C1021     1.0  0.52554  0.15445  0.13304  1.0000
  C   C1022     1.0  0.57467  0.32165  0.47904  1.0000
  Fe  Fe229     1.0  0.58019  0.02584  0.16761  1.0000
  C   C1023     1.0  0.67683  0.04493  0.19693  1.0000
  C   C1024     1.0  0.66487  0.04298  0.21341  1.0000
  C   C1025     1.0  0.64721  0.04189  0.21446  1.0000
  C   C1026     1.0  0.64112  0.04320  0.19905  1.0000
  C   C1027     1.0  0.65301  0.04535  0.18249  1.0000
  C   C1028     1.0  0.67089  0.04595  0.18148  1.0000
  H   H1612     1.0  0.66940  0.04176  0.22543  1.0000
  H   H1613     1.0  0.63821  0.03988  0.22735  1.0000
  H   H1614     1.0  0.68013  0.04712  0.16870  1.0000
  H   H1615     1.0  0.72496  0.26627  0.07470  1.0000
  C   C1029     1.0  0.66776  0.06125  0.09288  1.0000
  C   C1030     1.0  0.65572  0.07243  0.08257  1.0000
  C   C1031     1.0  0.63731  0.07358  0.08887  1.0000
  C   C1032     1.0  0.63073  0.06426  0.10589  1.0000
  C   C1033     1.0  0.64264  0.05374  0.11667  1.0000
  C   C1034     1.0  0.66119  0.05208  0.11007  1.0000
  H   H1616     1.0  0.66056  0.08014  0.06969  1.0000
  H   H1617     1.0  0.62816  0.08164  0.08050  1.0000
  H   H1618     1.0  0.63762  0.04655  0.12989  1.0000
  H   H1619     1.0  0.67044  0.04352  0.11817  1.0000
  H   H1620     1.0  0.73523  0.37254  0.37641  1.0000
  C   C1035     1.0  0.59819  0.10658  0.04289  1.0000
  C   C1036     1.0  0.61363  0.09418  0.04660  1.0000
  C   C1037     1.0  0.63024  0.09919  0.04093  1.0000
  C   C1038     1.0  0.63142  0.11649  0.03135  1.0000
  C   C1039     1.0  0.61606  0.12871  0.02727  1.0000
  C   C1040     1.0  0.59946  0.12375  0.03305  1.0000
  H   H1621     1.0  0.61267  0.08089  0.05435  1.0000
  H   H1622     1.0  0.64197  0.08980  0.04446  1.0000
  H   H1623     1.0  0.61691  0.14211  0.01981  1.0000
  H   H1624     1.0  0.58768  0.13323  0.02977  1.0000
  C   C1041     1.0  0.51718  0.11442  0.13073  1.0000
  S   S455      1.0  0.61726  0.45054  0.28124  1.0000
  C   C1042     1.0  0.51455  0.10358  0.16262  1.0000
  C   C1043     1.0  0.53288  0.09615  0.16002  1.0000
  C   C1044     1.0  0.54343  0.09793  0.14272  1.0000
  C   C1045     1.0  0.53559  0.10724  0.12809  1.0000
  C   C1046     1.0  0.68323  0.17910  0.01263  1.0000
  C   C1047     1.0  0.60577  0.37576  0.46494  1.0000
  H   H1625     1.0  0.55765  0.09238  0.14070  1.0000
  H   H1626     1.0  0.54375  0.10874  0.11485  1.0000
  C   C1048     1.0  0.61227  0.24326  0.20136  1.0000
  C   C1049     1.0  0.60594  0.25732  0.21056  1.0000
  C   C1050     1.0  0.61643  0.26069  0.22061  1.0000
  C   C1051     1.0  0.63322  0.24969  0.22198  1.0000
  C   C1052     1.0  0.63957  0.23568  0.21274  1.0000
  C   C1053     1.0  0.62926  0.23257  0.20237  1.0000
  H   H1627     1.0  0.59285  0.26571  0.20979  1.0000
  H   H1628     1.0  0.61144  0.27169  0.22736  1.0000
  H   H1629     1.0  0.65244  0.22700  0.21388  1.0000
  H   H1630     1.0  0.63415  0.22157  0.19561  1.0000
  C   C1054     1.0  0.66561  0.13614  0.20789  1.0000
  C   C1055     1.0  0.68080  0.13698  0.19423  1.0000
  C   C1056     1.0  0.67989  0.14931  0.17819  1.0000
  C   C1057     1.0  0.66377  0.16098  0.17564  1.0000
  C   C1058     1.0  0.64869  0.16083  0.18961  1.0000
  C   C1059     1.0  0.64961  0.14842  0.20580  1.0000
  H   H1631     1.0  0.69334  0.12807  0.19597  1.0000
  H   H1632     1.0  0.69175  0.14970  0.16779  1.0000
  H   H1633     1.0  0.63630  0.17009  0.18797  1.0000
  H   H1634     1.0  0.63791  0.14815  0.21652  1.0000
  C   C1060     1.0  0.57786  0.18184  0.12265  1.0000
  C   C1061     1.0  0.57035  0.16797  0.12196  1.0000
  C   C1062     1.0  0.56613  0.16724  0.10609  1.0000
  C   C1063     1.0  0.56911  0.18060  0.09079  1.0000
  C   C1064     1.0  0.57697  0.19426  0.09137  1.0000
  C   C1065     1.0  0.58141  0.19485  0.10718  1.0000
  H   H1635     1.0  0.56788  0.15770  0.13380  1.0000
  H   H1636     1.0  0.56042  0.15647  0.10575  1.0000
  H   H1637     1.0  0.57944  0.20462  0.07960  1.0000
  H   H1638     1.0  0.58719  0.20562  0.10751  1.0000
  C   C1066     1.0  0.65165  0.24543  0.09229  1.0000
  C   C1067     1.0  0.65681  0.25705  0.07618  1.0000
  C   C1068     1.0  0.67489  0.25563  0.06778  1.0000
  C   C1069     1.0  0.68798  0.24261  0.07545  1.0000
  C   C1070     1.0  0.68293  0.23102  0.09170  1.0000
  C   C1071     1.0  0.66472  0.23238  0.10010  1.0000
  H   H1639     1.0  0.64674  0.26713  0.07014  1.0000
  H   H1640     1.0  0.67870  0.26461  0.05526  1.0000
  H   H1641     1.0  0.69296  0.22104  0.09778  1.0000
  H   H1642     1.0  0.66078  0.22336  0.11254  1.0000
  H   H1643     1.0  0.73568  0.06927  0.12178  1.0000
  H   H1644     1.0  0.58804  0.31466  0.48065  1.0000
  N   N100      1.0  0.74177  0.39589  0.37973  1.0000
  C   C1072     1.0  0.63021  0.12103  0.07875  1.0000
  C   C1073     1.0  0.60199  0.14054  0.07430  1.0000
  H   H1645     1.0  0.63018  0.11370  0.06871  1.0000
  H   H1646     1.0  0.63761  0.13186  0.07164  1.0000
  H   H1647     1.0  0.60852  0.15198  0.06710  1.0000
  H   H1648     1.0  0.58807  0.14622  0.08057  1.0000
  H   H1649     1.0  0.60114  0.13366  0.06420  1.0000
  N   N101      1.0  0.70200  0.14632  0.11815  1.0000
  C   C1074     1.0  0.70596  0.15938  0.12586  1.0000
  C   C1075     1.0  0.70038  0.15444  0.09950  1.0000
  C   C1076     1.0  0.68503  0.14123  0.12867  1.0000
  C   C1077     1.0  0.71672  0.13037  0.11859  1.0000
  H   H1650     1.0  0.69536  0.17179  0.12559  1.0000
  H   H1651     1.0  0.71887  0.16308  0.11853  1.0000
  H   H1652     1.0  0.70727  0.15380  0.13988  1.0000
  H   H1653     1.0  0.69773  0.14489  0.09306  1.0000
  H   H1654     1.0  0.68939  0.16653  0.09872  1.0000
  H   H1655     1.0  0.71292  0.15868  0.09136  1.0000
  H   H1656     1.0  0.68170  0.13116  0.12344  1.0000
  H   H1657     1.0  0.67369  0.15303  0.12846  1.0000
  H   H1658     1.0  0.68572  0.13556  0.14292  1.0000
  H   H1659     1.0  0.71438  0.12026  0.11267  1.0000
  H   H1660     1.0  0.71835  0.12399  0.13249  1.0000
  H   H1661     1.0  0.72975  0.13393  0.11093  1.0000
  N   N102      1.0  0.62493  0.34411  0.31600  1.0000
  C   C1078     1.0  0.63551  0.33082  0.32823  1.0000
  C   C1079     1.0  0.63658  0.34809  0.29816  1.0000
  C   C1080     1.0  0.61752  0.36063  0.32298  1.0000
  C   C1081     1.0  0.61010  0.33688  0.31470  1.0000
  H   H1662     1.0  0.62720  0.32768  0.34187  1.0000
  H   H1663     1.0  0.64700  0.33569  0.32934  1.0000
  H   H1664     1.0  0.64105  0.31804  0.32356  1.0000
  H   H1665     1.0  0.62900  0.35778  0.28844  1.0000
  H   H1666     1.0  0.64780  0.35379  0.29862  1.0000
  H   H1667     1.0  0.64261  0.33584  0.29265  1.0000
  H   H1668     1.0  0.60950  0.37102  0.31407  1.0000
  H   H1669     1.0  0.62830  0.36637  0.32438  1.0000
  H   H1670     1.0  0.60848  0.35812  0.33636  1.0000
  H   H1671     1.0  0.60205  0.34634  0.30527  1.0000
  H   H1672     1.0  0.60087  0.33410  0.32786  1.0000
  H   H1673     1.0  0.61514  0.32414  0.30996  1.0000
  H   H1674     1.0  0.67324  0.29834  0.41543  1.0000
  H   H1675     1.0  0.66000  0.29222  0.37624  1.0000
  N   N103      1.0  0.66710  0.38372  0.20486  1.0000
  C   C1082     1.0  0.67821  0.39650  0.19355  1.0000
  C   C1083     1.0  0.65862  0.38903  0.22210  1.0000
  C   C1084     1.0  0.67849  0.36563  0.20794  1.0000
  C   C1085     1.0  0.65303  0.38373  0.19588  1.0000
  H   H1676     1.0  0.68446  0.39325  0.18024  1.0000
  H   H1677     1.0  0.68918  0.39645  0.19984  1.0000
  H   H1678     1.0  0.67021  0.41042  0.19153  1.0000
  H   H1679     1.0  0.64972  0.37995  0.23075  1.0000
  H   H1680     1.0  0.66883  0.38879  0.22948  1.0000
  H   H1681     1.0  0.65040  0.40284  0.22027  1.0000
  H   H1682     1.0  0.68861  0.36484  0.21565  1.0000
  H   H1683     1.0  0.68579  0.36152  0.19520  1.0000
  H   H1684     1.0  0.67036  0.35552  0.21561  1.0000
  H   H1685     1.0  0.64439  0.37422  0.20418  1.0000
  H   H1686     1.0  0.65890  0.37968  0.18286  1.0000
  H   H1687     1.0  0.64419  0.39719  0.19337  1.0000
  S   S456      1.0  0.50695  0.12642  0.11285  1.0000
  H   H1688     1.0  0.73341  0.36467  0.31294  1.0000
  H   H1689     1.0  0.51245  0.19751  0.11207  1.0000
  H   H1690     1.0  0.56746  0.06651  0.06948  1.0000
  C   C1086     1.0  0.74863  0.40975  0.30002  1.0000
  C   C1087     1.0  0.64501  0.43704  0.23472  1.0000
  H   H1691     1.0  0.67504  0.46675  0.24888  1.0000
  H   H1692     1.0  0.57130  0.08017  0.10941  1.0000
  H   H1693     1.0  0.74200  0.15405  0.01780  1.0000
  H   H1694     1.0  0.51744  0.18070  0.15084  1.0000
  H   H1695     1.0  0.56177  0.48504  0.36711  1.0000
  H   H1696     1.0  0.64203  0.48007  0.37383  1.0000
  S   S457      1.0  0.73975  0.10514  0.16263  1.0000
  S   S458      1.0  0.73313  0.18866  0.14085  1.0000
  H   H1697     1.0  0.74521  0.41739  0.38932  1.0000
  H   H1698     1.0  0.54808  0.47810  0.31125  1.0000
  H   H1699     1.0  0.61876  0.14959  0.09444  1.0000
  H   H1700     1.0  0.66663  0.06522  0.00804  1.0000
  H   H1701     1.0  0.66424  0.33024  0.40324  1.0000
  H   H1702     1.0  0.67339  0.00870  0.02092  1.0000
  H   H1703     1.0  0.62601  0.08219  0.19107  1.0000
  S   S459      1.0  0.60916  0.02838  0.15873  1.0000
  H   H1704     1.0  0.60988  0.12155  0.21235  1.0000
  C   C1088     1.0  0.62235  0.08659  0.22415  1.0000
  H   H1705     1.0  0.60753  0.09066  0.22788  1.0000
  N   N104      1.0  0.66365  0.40697  0.36348  1.0000
  C   C1089     1.0  0.67015  0.39227  0.37761  1.0000
  C   C1090     1.0  0.65619  0.42347  0.37044  1.0000
  C   C1091     1.0  0.64951  0.40228  0.35780  1.0000
  C   C1092     1.0  0.67868  0.40992  0.34813  1.0000
  H   H1706     1.0  0.67604  0.37963  0.37279  1.0000
  H   H1707     1.0  0.65908  0.38962  0.38925  1.0000
  H   H1708     1.0  0.68056  0.39544  0.38255  1.0000
  H   H1709     1.0  0.65173  0.43495  0.35993  1.0000
  H   H1710     1.0  0.64428  0.42206  0.38145  1.0000
  H   H1711     1.0  0.66611  0.42703  0.37570  1.0000
  H   H1712     1.0  0.64414  0.41314  0.34729  1.0000
  H   H1713     1.0  0.63795  0.40008  0.36913  1.0000
  H   H1714     1.0  0.65460  0.38990  0.35243  1.0000
  H   H1715     1.0  0.67422  0.42087  0.33716  1.0000
  H   H1716     1.0  0.68479  0.39770  0.34258  1.0000
  H   H1717     1.0  0.68941  0.41377  0.35197  1.0000
  H   H1718     1.0  0.63012  0.12589  0.19685  1.0000
  H   H1719     1.0  0.60765  0.10033  0.19540  1.0000
  C   C1093     1.0  0.70855  0.46388  0.32572  1.0000
  H   H1720     1.0  0.50337  0.39341  0.48977  1.0000
  H   H1721     1.0  0.71984  0.27667  0.05331  1.0000
  C   C1094     1.0  0.70490  0.45585  0.35788  1.0000
  H   H1722     1.0  0.73925  0.19025  0.40192  1.0000
  C   C1095     1.0  0.74447  0.15470  0.04392  1.0000
  H   H1723     1.0  0.59623  0.35008  0.45559  1.0000
  H   H1724     1.0  0.63227  0.46081  0.37924  1.0000
  H   H1725     1.0  0.69315  0.18080  0.01934  1.0000
  C   C1096     1.0  0.74585  0.38158  0.32071  1.0000
  C   C1097     1.0  0.73318  0.12211  0.05499  1.0000
  N   N105      1.0  0.55303  0.45694  0.33387  1.0000
  C   C1098     1.0  0.74565  0.19587  0.40943  1.0000
  S   S460      1.0  0.64354  0.44720  0.31851  1.0000
  H   H1726     1.0  0.51669  0.43585  0.46224  1.0000
  C   C1099     1.0  0.50668  0.11248  0.14800  1.0000
  H   H1727     1.0  0.72521  0.03484  0.16286  1.0000
  N   N106      1.0  0.68359  0.21281  0.16762  1.0000
  C   C1100     1.0  0.67401  0.23161  0.16664  1.0000
  C   C1101     1.0  0.70069  0.21027  0.17300  1.0000
  C   C1102     1.0  0.68722  0.20829  0.14998  1.0000
  C   C1103     1.0  0.67249  0.20100  0.18089  1.0000
  H   H1728     1.0  0.68189  0.24084  0.15652  1.0000
  H   H1729     1.0  0.67123  0.23552  0.17969  1.0000
  H   H1730     1.0  0.66090  0.23397  0.16293  1.0000
  H   H1731     1.0  0.69853  0.21379  0.18613  1.0000
  H   H1732     1.0  0.70813  0.19618  0.17408  1.0000
  H   H1733     1.0  0.70965  0.21857  0.16301  1.0000
  H   H1734     1.0  0.69390  0.19400  0.15047  1.0000
  H   H1735     1.0  0.69616  0.21640  0.13972  1.0000
  H   H1736     1.0  0.67469  0.21048  0.14522  1.0000
  H   H1737     1.0  0.66922  0.20416  0.19432  1.0000
  H   H1738     1.0  0.67948  0.18674  0.18212  1.0000
  H   H1739     1.0  0.65965  0.20223  0.17704  1.0000
  C   C1104     1.0  0.70557  0.15801  0.99716  1.0000
  H   H1740     1.0  0.73768  0.30642  0.25875  1.0000
  S   S461      1.0  0.50437  0.16346  0.02925  1.0000
  H   H1741     1.0  0.61287  0.26163  0.25977  1.0000
  H   H1742     1.0  0.64105  0.31212  0.41640  1.0000
  C   C1105     1.0  0.58804  0.36381  0.45249  1.0000
  C   C1106     1.0  0.56893  0.08021  0.09624  1.0000
  H   H1743     1.0  0.68751  0.03278  0.02177  1.0000
  H   H1744     1.0  0.59250  0.47742  0.41159  1.0000
  C   C1107     1.0  0.65255  0.43794  0.26680  1.0000
  H   H1745     1.0  0.74316  0.16208  0.36527  1.0000
  H   H1746     1.0  0.71844  0.41304  0.37092  1.0000
  C   C1108     1.0  0.50621  0.17866  0.14618  1.0000
  H   H1747     1.0  0.62387  0.23278  0.27863  1.0000
  H   H1748     1.0  0.70837  0.06596  0.15738  1.0000
  H   H1749     1.0  0.52908  0.13478  0.01292  1.0000
  C   C1109     1.0  0.67421  0.15919  0.00009  1.0000
  H   H1750     1.0  0.52765  0.17945  0.10294  1.0000
  H   H1751     1.0  0.73888  0.42016  0.35975  1.0000
  N   N107      1.0  0.69968  0.46522  0.25625  1.0000
  H   H1752     1.0  0.51429  0.37045  0.49075  1.0000
  H   H1753     1.0  0.67824  0.45391  0.37275  1.0000
  H   H1754     1.0  0.54563  0.42521  0.47212  1.0000
  H   H1755     1.0  0.68252  0.45153  0.27843  1.0000
  H   H1756     1.0  0.74611  0.39629  0.40518  1.0000
  H   H1757     1.0  0.69127  0.47673  0.23135  1.0000
  C   C1110     1.0  0.73958  0.40511  0.39425  1.0000
  H   H1758     1.0  0.56246  0.39186  0.46112  1.0000
  H   H1759     1.0  0.57193  0.45803  0.34834  1.0000
  C   C1111     1.0  0.74089  0.40521  0.28847  1.0000
  H   H1760     1.0  0.72937  0.38539  0.28425  1.0000
  H   H1761     1.0  0.53062  0.14863  0.12094  1.0000
  C   C1112     1.0  0.73929  0.11810  0.27105  1.0000
  H   H1762     1.0  0.73739  0.12189  0.08070  1.0000
  H   H1763     1.0  0.68320  0.18956  0.00015  1.0000
  C   C1113     1.0  0.64297  0.30879  0.40320  1.0000
  H   H1764     1.0  0.74554  0.14878  0.33978  1.0000
  C   C1114     1.0  0.57841  0.24381  0.28733  1.0000
  C   C1115     1.0  0.73357  0.38008  0.38687  1.0000
  C   C1116     1.0  0.53538  0.45215  0.33787  1.0000
  S   S462      1.0  0.63590  0.48730  0.29203  1.0000
  H   H1765     1.0  0.70980  0.47181  0.44360  1.0000
  H   H1766     1.0  0.66053  0.16112  0.00871  1.0000
  H   H1767     1.0  0.57645  0.25085  0.29829  1.0000
  Fe  Fe230     1.0  0.62536  0.46217  0.29978  1.0000
  C   C1117     1.0  0.54463  0.33592  0.49144  1.0000
  H   H1768     1.0  0.62011  0.08771  0.00394  1.0000
  S   S463      1.0  0.68165  0.47148  0.30796  1.0000
  H   H1769     1.0  0.51917  0.14447  0.14382  1.0000
  S   S464      1.0  0.73908  0.41956  0.26788  1.0000
  S   S465      1.0  0.65181  0.12337  0.02478  1.0000
  C   C1118     1.0  0.68758  0.03017  0.00910  1.0000
  C   C1119     1.0  0.60628  0.49062  0.37790  1.0000
  S   S466      1.0  0.57062  0.00042  0.17005  1.0000
  H   H1770     1.0  0.60833  0.21963  0.29310  1.0000
  H   H1771     1.0  0.57857  0.37322  0.49361  1.0000
  C   C1120     1.0  0.52184  0.18458  0.11544  1.0000
  C   C1121     1.0  0.63114  0.44263  0.24845  1.0000
  H   H1772     1.0  0.53557  0.05709  0.11295  1.0000
  C   C1122     1.0  0.54293  0.06770  0.11142  1.0000
  H   H1773     1.0  0.59775  0.26900  0.27887  1.0000
  H   H1774     1.0  0.73433  0.23965  0.38974  1.0000
  N   N108      1.0  0.73928  0.29762  0.28628  1.0000
  H   H1775     1.0  0.68814  0.29587  0.39472  1.0000
  H   H1776     1.0  0.58746  0.35185  0.48760  1.0000
  C   C1123     1.0  0.73209  0.22612  0.39713  1.0000
  C   C1124     1.0  0.61002  0.23354  0.28689  1.0000
  Fe  Fe231     1.0  0.67533  0.10155  0.03047  1.0000
  S   S467      1.0  0.72541  0.19319  0.09408  1.0000
  Fe  Fe232     1.0  0.73024  0.21940  0.07727  1.0000
  H   H1777     1.0  0.74970  0.22119  0.42350  1.0000
  Fe  Fe233     1.0  0.73784  0.34264  0.34696  1.0000
  H   H1778     1.0  0.60398  0.48042  0.37202  1.0000
  H   H1779     1.0  0.63398  0.05611  0.00183  1.0000
  H   H1780     1.0  0.57571  0.40073  0.47029  1.0000
  H   H1781     1.0  0.64190  0.46499  0.39516  1.0000
  H   H1782     1.0  0.72518  0.22141  0.38935  1.0000
  N   N109      1.0  0.61180  0.12820  0.08770  1.0000
  H   H1783     1.0  0.63797  0.11151  0.08843  1.0000
  C   C1125     1.0  0.62251  0.09629  0.19273  1.0000
  H   H1784     1.0  0.72046  0.31057  0.30623  1.0000
  S   S468      1.0  0.73086  0.12150  0.02100  1.0000
  H   H1785     1.0  0.65653  0.08791  0.00953  1.0000
  N   N110      1.0  0.62974  0.09807  0.20731  1.0000
  C   C1126     1.0  0.68670  0.45650  0.35963  1.0000
  C   C1127     1.0  0.67416  0.29573  0.40212  1.0000
  H   H1786     1.0  0.72570  0.49362  0.44656  1.0000
  N   N111      1.0  0.51279  0.17167  0.12966  1.0000
  C   C1128     1.0  0.73741  0.03996  0.16145  1.0000
  H   H1787     1.0  0.56261  0.44727  0.30950  1.0000
  C   C1129     1.0  0.61248  0.13784  0.10091  1.0000
  H   H1788     1.0  0.60169  0.10576  0.08727  1.0000
  H   H1789     1.0  0.50638  0.10220  0.17598  1.0000
  C   C1130     1.0  0.62466  0.11682  0.20926  1.0000
  H   H1790     1.0  0.62999  0.11847  0.22019  1.0000
  S   S469      1.0  0.74990  0.36674  0.34050  1.0000
  H   H1791     1.0  0.54651  0.08093  0.07608  1.0000
  C   C1131     1.0  0.71000  0.36535  0.42914  1.0000
  C   C1132     1.0  0.72060  0.33554  0.42291  1.0000
  H   H1792     1.0  0.64851  0.04623  0.17055  1.0000
  H   H1793     1.0  0.58918  0.49403  0.34734  1.0000
  H   H1794     1.0  0.70455  0.44941  0.28167  1.0000
  C   C1133     1.0  0.73485  0.13088  0.03709  1.0000
  C   C1134     1.0  0.66274  0.30557  0.37498  1.0000
  H   H1795     1.0  0.67184  0.28208  0.40413  1.0000
  H   H1796     1.0  0.65295  0.31553  0.36763  1.0000
  C   C1135     1.0  0.60250  0.11334  0.09684  1.0000
  H   H1797     1.0  0.59886  0.14290  0.10833  1.0000
  H   H1798     1.0  0.62020  0.12903  0.11094  1.0000
  H   H1799     1.0  0.71605  0.15908  0.00351  1.0000
  H   H1800     1.0  0.70083  0.48256  0.27228  1.0000
  H   H1801     1.0  0.57443  0.36252  0.45240  1.0000
  H   H1802     1.0  0.61247  0.23282  0.25312  1.0000
  H   H1803     1.0  0.61294  0.46428  0.41780  1.0000
  H   H1804     1.0  0.58858  0.11823  0.10382  1.0000
  H   H1805     1.0  0.62546  0.07243  0.22298  1.0000
  S   S470      1.0  0.71338  0.38226  0.43760  1.0000
  C   C1136     1.0  0.72249  0.34912  0.43000  1.0000
  H   H1806     1.0  0.53720  0.15595  0.13731  1.0000
  H   H1807     1.0  0.57984  0.44831  0.31959  1.0000
  C   C1137     1.0  0.72985  0.13882  0.16980  1.0000
  N   N112      1.0  0.66123  0.30930  0.39260  1.0000
  C   C1138     1.0  0.66484  0.32718  0.39021  1.0000
  H   H1808     1.0  0.73169  0.14839  0.28324  1.0000
  H   H1809     1.0  0.73679  0.19637  0.42278  1.0000
  H   H1810     1.0  0.67626  0.30609  0.36645  1.0000
  H   H1811     1.0  0.73971  0.37069  0.39780  1.0000
  S   S471      1.0  0.74671  0.31922  0.36800  1.0000
  H   H1812     1.0  0.70132  0.43716  0.26733  1.0000
  Fe  Fe234     1.0  0.62201  0.45920  0.33912  1.0000
  C   C1139     1.0  0.72850  0.15738  0.16489  1.0000
  H   H1813     1.0  0.72351  0.13287  0.18302  1.0000
  H   H1814     1.0  0.64203  0.43698  0.22227  1.0000
  C   C1140     1.0  0.60617  0.47020  0.40636  1.0000
  C   C1141     1.0  0.66263  0.43153  0.23711  1.0000
  C   C1142     1.0  0.64946  0.09255  0.20319  1.0000
  H   H1815     1.0  0.65556  0.10154  0.19112  1.0000
  H   H1816     1.0  0.65382  0.07880  0.20073  1.0000
  H   H1817     1.0  0.56729  0.43102  0.32911  1.0000
  C   C1143     1.0  0.53236  0.01339  0.14050  1.0000
  H   H1818     1.0  0.54573  0.06669  0.12465  1.0000
  S   S472      1.0  0.74371  0.22476  0.09608  1.0000
  H   H1819     1.0  0.72107  0.16555  0.17440  1.0000
  H   H1820     1.0  0.73250  0.32507  0.28871  1.0000
  H   H1821     1.0  0.65491  0.33783  0.38367  1.0000
  C   C1144     1.0  0.72798  0.27689  0.06266  1.0000
  S   S473      1.0  0.74379  0.06827  0.24987  1.0000
  H   H1822     1.0  0.65544  0.43824  0.27922  1.0000
  H   H1823     1.0  0.65531  0.09280  0.21435  1.0000
  H   H1824     1.0  0.72021  0.08397  0.14742  1.0000
  C   C1145     1.0  0.73913  0.12812  0.15750  1.0000
  H   H1825     1.0  0.74927  0.02992  0.15677  1.0000
  C   C1146     1.0  0.68963  0.46543  0.24298  1.0000
  C   C1147     1.0  0.69328  0.48217  0.26248  1.0000
  H   H1826     1.0  0.67839  0.32816  0.38194  1.0000
  H   H1827     1.0  0.63971  0.29548  0.40543  1.0000
  H   H1828     1.0  0.67718  0.14561  0.99724  1.0000
  C   C1148     1.0  0.70334  0.48073  0.45266  1.0000
  H   H1829     1.0  0.63302  0.31859  0.39613  1.0000
  H   H1830     1.0  0.73022  0.32299  0.42382  1.0000
  H   H1831     1.0  0.72126  0.07160  0.16955  1.0000
  H   H1832     1.0  0.53375  0.08084  0.10816  1.0000
  C   C1149     1.0  0.67940  0.46105  0.34433  1.0000
  H   H1833     1.0  0.72170  0.47439  0.23664  1.0000
  C   C1150     1.0  0.57945  0.36549  0.48354  1.0000
  Fe  Fe235     1.0  0.74538  0.39780  0.21359  1.0000
  H   H1834     1.0  0.66979  0.18177  0.02152  1.0000
  C   C1151     1.0  0.73536  0.38896  0.29314  1.0000
  N   N113      1.0  0.59657  0.24323  0.27600  1.0000
  C   C1152     1.0  0.50438  0.15401  0.01145  1.0000
  H   H1835     1.0  0.53297  0.18751  0.11951  1.0000
  C   C1153     1.0  0.56625  0.44539  0.32253  1.0000
  C   C1154     1.0  0.66638  0.43182  0.25323  1.0000
  N   N114      1.0  0.58742  0.37436  0.46543  1.0000
  H   H1836     1.0  0.72696  0.46237  0.25786  1.0000
  C   C1155     1.0  0.71580  0.45936  0.34093  1.0000
  H   H1837     1.0  0.69747  0.14860  0.03296  1.0000
  H   H1838     1.0  0.72418  0.45058  0.24295  1.0000
  H   H1839     1.0  0.56436  0.48026  0.32200  1.0000
  C   C1156     1.0  0.67957  0.01650  0.00858  1.0000
  H   H1840     1.0  0.52670  0.34603  0.47312  1.0000
  N   N115      1.0  0.61643  0.48211  0.39215  1.0000
  C   C1157     1.0  0.54012  0.33940  0.47476  1.0000
  H   H1841     1.0  0.60478  0.45888  0.40140  1.0000
  S   S474      1.0  0.71449  0.45068  0.37655  1.0000
  H   H1842     1.0  0.72733  0.11237  0.27836  1.0000
  Fe  Fe236     1.0  0.74190  0.19688  0.11109  1.0000
  C   C1158     1.0  0.73771  0.37720  0.30936  1.0000
  H   H1843     1.0  0.54108  0.48479  0.33224  1.0000
  N   N116      1.0  0.68763  0.16103  0.00891  1.0000
  H   H1844     1.0  0.61189  0.38304  0.45167  1.0000
  S   S475      1.0  0.69907  0.10109  0.00802  1.0000
  C   C1159     1.0  0.69033  0.46496  0.32737  1.0000
  H   H1845     1.0  0.54801  0.05722  0.08074  1.0000
  H   H1846     1.0  0.71705  0.46684  0.31267  1.0000
  H   H1847     1.0  0.58220  0.07858  0.08689  1.0000
  C   C1160     1.0  0.69686  0.45017  0.27156  1.0000
  H   H1848     1.0  0.67413  0.14913  0.03491  1.0000
  C   C1161     1.0  0.63394  0.47159  0.38472  1.0000
  N   N117      1.0  0.74916  0.21364  0.39966  1.0000
  C   C1162     1.0  0.53319  0.42475  0.48182  1.0000
  C   C1163     1.0  0.73607  0.05617  0.13134  1.0000
  H   H1849     1.0  0.72389  0.05143  0.13183  1.0000
  H   H1850     1.0  0.56458  0.03727  0.10427  1.0000
  H   H1851     1.0  0.56013  0.44023  0.35811  1.0000
  H   H1852     1.0  0.61751  0.44678  0.24658  1.0000
  C   C1164     1.0  0.72996  0.28296  0.28913  1.0000
  H   H1853     1.0  0.57589  0.04704  0.11473  1.0000
  H   H1854     1.0  0.69429  0.45293  0.23779  1.0000
  H   H1855     1.0  0.72987  0.45887  0.33954  1.0000
  H   H1856     1.0  0.71499  0.31743  0.28463  1.0000
  C   C1165     1.0  0.65391  0.07534  0.00808  1.0000
  N   N118      1.0  0.74807  0.12207  0.28332  1.0000
  H   H1857     1.0  0.56797  0.25102  0.27946  1.0000
  N   N119      1.0  0.55959  0.06598  0.09757  1.0000
  H   H1858     1.0  0.73368  0.34703  0.43620  1.0000
  H   H1859     1.0  0.60589  0.38309  0.47500  1.0000
  H   H1860     1.0  0.69117  0.13395  0.02332  1.0000
  C   C1166     1.0  0.72625  0.31333  0.29171  1.0000
  H   H1861     1.0  0.56107  0.09358  0.09126  1.0000
  H   H1862     1.0  0.58382  0.04655  0.09178  1.0000
  C   C1167     1.0  0.54585  0.01455  0.14833  1.0000
  C   C1168     1.0  0.57141  0.04840  0.10228  1.0000
  H   H1863     1.0  0.53056  0.45397  0.32548  1.0000
  S   S476      1.0  0.50913  0.99686  0.13424  1.0000
  C   C1169     1.0  0.55516  0.06768  0.08023  1.0000
  H   H1864     1.0  0.72321  0.13108  0.30058  1.0000
  C   C1170     1.0  0.59926  0.26162  0.26829  1.0000
  C   C1171     1.0  0.52585  0.99766  0.14478  1.0000
  C   C1172     1.0  0.51684  0.43078  0.47624  1.0000
  H   H1865     1.0  0.58932  0.24138  0.25243  1.0000
  H   H1866     1.0  0.72389  0.27869  0.30346  1.0000
  C   C1173     1.0  0.55876  0.45437  0.35073  1.0000
  H   H1867     1.0  0.59615  0.22027  0.26678  1.0000
  C   C1174     1.0  0.59866  0.23402  0.26149  1.0000
  H   H1868     1.0  0.73490  0.13027  0.26116  1.0000
  N   N120      1.0  0.73692  0.05763  0.14919  1.0000
  H   H1869     1.0  0.58950  0.26936  0.25981  1.0000
  H   H1870     1.0  0.72284  0.22757  0.41013  1.0000
  H   H1871     1.0  0.72524  0.40932  0.40038  1.0000
  C   C1175     1.0  0.55291  0.99998  0.16062  1.0000
  H   H1872     1.0  0.73922  0.27104  0.28470  1.0000
  C   C1176     1.0  0.73563  0.13571  0.29274  1.0000
  Fe  Fe237     1.0  0.74373  0.30272  0.35046  1.0000
  H   H1873     1.0  0.71902  0.38395  0.39239  1.0000
  H   H1874     1.0  0.72910  0.10942  0.05932  1.0000
  H   H1875     1.0  0.74189  0.13885  0.30221  1.0000
  C   C1177     1.0  0.68754  0.14766  0.02583  1.0000
  C   C1178     1.0  0.56197  0.32714  0.49355  1.0000
  H   H1876     1.0  0.74123  0.10020  0.30461  1.0000
  H   H1877     1.0  0.64406  0.07062  0.02016  1.0000
  C   C1179     1.0  0.74739  0.13595  0.14045  1.0000
  C   C1180     1.0  0.73289  0.40815  0.36560  1.0000
  C   C1181     1.0  0.73782  0.12925  0.06712  1.0000
  H   H1878     1.0  0.74662  0.30150  0.04209  1.0000
  H   H1879     1.0  0.67889  0.48395  0.26928  1.0000
  H   H1880     1.0  0.74852  0.10826  0.26335  1.0000
  C   C1182     1.0  0.74039  0.14727  0.03165  1.0000
  C   C1183     1.0  0.74777  0.30235  0.26723  1.0000
  C   C1184     1.0  0.74598  0.15444  0.13554  1.0000
  H   H1881     1.0  0.50208  0.16422  0.11128  1.0000
  H   H1882     1.0  0.62709  0.48991  0.41034  1.0000
  H   H1883     1.0  0.74698  0.28809  0.31155  1.0000
  C   C1185     1.0  0.74359  0.14551  0.06165  1.0000
  H   H1884     1.0  0.74789  0.04658  0.12575  1.0000
  C   C1186     1.0  0.67797  0.49148  0.47455  1.0000
  H   H1885     1.0  0.69484  0.49388  0.25128  1.0000
  H   H1886     1.0  0.66462  0.49094  0.48239  1.0000
  H   H1887     1.0  0.74321  0.28847  0.02847  1.0000
  H   H1888     1.0  0.74545  0.25577  0.03944  1.0000
  C   C1187     1.0  0.50226  0.38055  0.48753  1.0000
  H   H1889     1.0  0.50285  0.38241  0.47305  1.0000
  N   N121      1.0  0.74730  0.27385  0.05444  1.0000
  H   H1890     1.0  0.74914  0.16709  0.03948  1.0000
  H   H1891     1.0  0.70940  0.14436  0.99429  1.0000
  H   H1892     1.0  0.75057  0.24540  0.06076  1.0000
  Fe  Fe238     1.0  0.61481  0.49555  0.31523  1.0000
  C   C1188     1.0  0.61934  0.49597  0.39962  1.0000
  C   C1189     1.0  0.75073  0.28816  0.03855  1.0000
  H   H1893     1.0  0.72477  0.46001  0.50632  1.0000
  S   S477      1.0  0.56722  0.01182  0.80860  1.0000
  H   H1894     1.0  0.70269  0.45530  0.51473  1.0000
  H   H1895     1.0  0.56522  0.01651  0.91861  1.0000
  N   N122      1.0  0.59213  0.00620  0.92274  1.0000
  C   C1190     1.0  0.51726  0.41690  0.51231  1.0000
  H   H1896     1.0  0.54528  0.41359  0.56674  1.0000
  H   H1897     1.0  0.72700  0.46061  0.53676  1.0000
  H   H1898     1.0  0.53357  0.38248  0.65037  1.0000
  S   S478      1.0  0.61044  0.04025  0.85357  1.0000
  H   H1899     1.0  0.56691  0.40703  0.53929  1.0000
  H   H1900     1.0  0.70518  0.45536  0.54542  1.0000
  C   C1191     1.0  0.54273  0.29032  0.58980  1.0000
  C   C1192     1.0  0.57519  0.48617  0.65785  1.0000
  H   H1901     1.0  0.50704  0.17577  0.94947  1.0000
  H   H1902     1.0  0.70623  0.16779  0.98421  1.0000
  H   H1903     1.0  0.53767  0.27882  0.62526  1.0000
  H   H1904     1.0  0.70970  0.47471  0.54957  1.0000
  S   S479      1.0  0.52721  0.45216  0.64386  1.0000
  H   H1905     1.0  0.52443  0.04214  0.83358  1.0000
  Fe  Fe239     1.0  0.53924  0.43621  0.62258  1.0000
  S   S480      1.0  0.55745  0.40948  0.62924  1.0000
  S   S481      1.0  0.54592  0.45967  0.60105  1.0000
  H   H1906     1.0  0.54833  0.99978  0.84424  1.0000
  Fe  Fe240     1.0  0.55280  0.35816  0.56249  1.0000
  S   S482      1.0  0.53163  0.38239  0.55579  1.0000
  S   S483      1.0  0.56344  0.34989  0.58763  1.0000
  Fe  Fe241     1.0  0.55415  0.34446  0.52972  1.0000
  S   S484      1.0  0.53274  0.36718  0.52075  1.0000
  S   S485      1.0  0.56830  0.32343  0.51396  1.0000
  Fe  Fe242     1.0  0.54765  0.38370  0.52775  1.0000
  H   H1907     1.0  0.55144  0.46000  0.54864  1.0000
  C   C1193     1.0  0.50824  0.01106  0.83181  1.0000
  H   H1908     1.0  0.50476  0.20546  0.91570  1.0000
  S   S486      1.0  0.57006  0.36122  0.53493  1.0000
  S   S487      1.0  0.53927  0.33892  0.55796  1.0000
  C   C1194     1.0  0.68773  0.02296  0.97643  1.0000
  H   H1909     1.0  0.53624  0.02492  0.79275  1.0000
  H   H1910     1.0  0.66071  0.46094  0.69972  1.0000
  Fe  Fe243     1.0  0.60216  0.01639  0.85105  1.0000
  H   H1911     1.0  0.52482  0.19039  0.92110  1.0000
  H   H1912     1.0  0.56093  0.27229  0.61536  1.0000
  C   C1195     1.0  0.54445  0.01218  0.81762  1.0000
  H   H1913     1.0  0.67382  0.16905  0.98726  1.0000
  C   C1196     1.0  0.52075  0.00424  0.84273  1.0000
  S   S488      1.0  0.50358  0.13081  0.96457  1.0000
  H   H1914     1.0  0.50409  0.02417  0.80540  1.0000
  H   H1915     1.0  0.61710  0.47053  0.68621  1.0000
  C   C1197     1.0  0.69597  0.04014  0.99328  1.0000
  H   H1916     1.0  0.65689  0.08629  0.96335  1.0000
  H   H1917     1.0  0.66414  0.09680  0.97682  1.0000
  H   H1918     1.0  0.52995  0.44708  0.54165  1.0000
  C   C1198     1.0  0.66118  0.08412  0.97610  1.0000
  C   C1199     1.0  0.53877  0.00504  0.83571  1.0000
  C   C1200     1.0  0.58628  0.00169  0.94234  1.0000
  H   H1919     1.0  0.54020  0.30059  0.57764  1.0000
  C   C1201     1.0  0.53189  0.01931  0.80675  1.0000
  H   H1920     1.0  0.70243  0.04405  0.96464  1.0000
  C   C1202     1.0  0.50341  0.13979  0.98275  1.0000
  H   H1921     1.0  0.53502  0.05831  0.83607  1.0000
  C   C1203     1.0  0.55897  0.39340  0.61717  1.0000
  C   C1204     1.0  0.54838  0.39654  0.60468  1.0000
  C   C1205     1.0  0.54957  0.38322  0.59561  1.0000
  C   C1206     1.0  0.56143  0.36678  0.59889  1.0000
  C   C1207     1.0  0.57176  0.36357  0.61160  1.0000
  C   C1208     1.0  0.57055  0.37683  0.62069  1.0000
  H   H1922     1.0  0.53920  0.40917  0.60212  1.0000
  H   H1923     1.0  0.54112  0.38555  0.58630  1.0000
  H   H1924     1.0  0.58090  0.35086  0.61428  1.0000
  H   H1925     1.0  0.57870  0.37427  0.63040  1.0000
  C   C1209     1.0  0.56241  0.44974  0.54287  1.0000
  H   H1926     1.0  0.52056  0.30843  0.61451  1.0000
  H   H1927     1.0  0.58572  0.03440  0.92197  1.0000
  H   H1928     1.0  0.64967  0.46563  0.65590  1.0000
  H   H1929     1.0  0.68781  0.02037  0.96375  1.0000
  N   N123      1.0  0.55630  0.43308  0.54529  1.0000
  C   C1210     1.0  0.55018  0.28390  0.61861  1.0000
  C   C1211     1.0  0.62429  0.03656  0.86862  1.0000
  C   C1212     1.0  0.62671  0.05127  0.87342  1.0000
  C   C1213     1.0  0.63682  0.04881  0.88616  1.0000
  C   C1214     1.0  0.64436  0.03162  0.89438  1.0000
  H   H1930     1.0  0.51804  0.03606  0.88270  1.0000
  C   C1215     1.0  0.71240  0.46649  0.53941  1.0000
  H   H1931     1.0  0.62067  0.06462  0.86734  1.0000
  H   H1932     1.0  0.63862  0.06028  0.88980  1.0000
  Fe  Fe244     1.0  0.51856  0.46269  0.59615  1.0000
  S   S489      1.0  0.61169  0.00390  0.82718  1.0000
  N   N124      1.0  0.70668  0.47741  0.52293  1.0000
  H   H1933     1.0  0.55387  0.28912  0.62847  1.0000
  H   H1934     1.0  0.56311  0.31463  0.58165  1.0000
  H   H1935     1.0  0.50273  0.36928  0.67935  1.0000
  H   H1936     1.0  0.67406  0.07409  0.97545  1.0000
  H   H1937     1.0  0.55864  0.47308  0.65006  1.0000
  S   S490      1.0  0.55354  0.40766  0.50679  1.0000
  C   C1216     1.0  0.64579  0.47805  0.66115  1.0000
  H   H1938     1.0  0.55350  0.27921  0.58540  1.0000
  C   C1217     1.0  0.63234  0.01931  0.87636  1.0000
  H   H1939     1.0  0.52189  0.07377  0.86165  1.0000
  H   H1940     1.0  0.52648  0.15747  0.92853  1.0000
  C   C1218     1.0  0.51371  0.40998  0.66492  1.0000
  H   H1941     1.0  0.53694  0.31942  0.61632  1.0000
  C   C1219     1.0  0.53337  0.41747  0.49983  1.0000
  H   H1942     1.0  0.56851  0.31027  0.60298  1.0000
  H   H1943     1.0  0.50804  0.14920  0.92753  1.0000
  C   C1220     1.0  0.56450  0.30419  0.59397  1.0000
  C   C1221     1.0  0.64219  0.01682  0.88945  1.0000
  Fe  Fe245     1.0  0.53174  0.47600  0.62185  1.0000
  H   H1944     1.0  0.57574  0.29317  0.59016  1.0000
  H   H1945     1.0  0.66609  0.45144  0.68034  1.0000
  H   H1946     1.0  0.56692  0.45557  0.52851  1.0000
  H   H1947     1.0  0.60869  0.02379  0.92256  1.0000
  H   H1948     1.0  0.51649  0.99823  0.85663  1.0000
  C   C1222     1.0  0.51765  0.13313  0.99170  1.0000
  H   H1949     1.0  0.73133  0.48663  0.51159  1.0000
  C   C1223     1.0  0.55043  0.42587  0.56451  1.0000
  H   H1950     1.0  0.62855  0.46027  0.70417  1.0000
  C   C1224     1.0  0.56342  0.48520  0.64778  1.0000
  H   H1951     1.0  0.53037  0.28494  0.59593  1.0000
  H   H1952     1.0  0.63389  0.45048  0.68496  1.0000
  H   H1953     1.0  0.56156  0.42253  0.57168  1.0000
  C   C1225     1.0  0.51372  0.01897  0.81390  1.0000
  C   C1226     1.0  0.54118  0.43683  0.53637  1.0000
  H   H1954     1.0  0.51353  0.06517  0.82996  1.0000
  H   H1955     1.0  0.52759  0.02533  0.86419  1.0000
  H   H1956     1.0  0.51989  0.39708  0.63559  1.0000
  C   C1227     1.0  0.53326  0.31291  0.60745  1.0000
  C   C1228     1.0  0.69600  0.03642  0.97696  1.0000
  H   H1957     1.0  0.51903  0.19220  0.90025  1.0000
  H   H1958     1.0  0.63275  0.10473  0.99344  1.0000
  H   H1959     1.0  0.53588  0.42467  0.53840  1.0000
  H   H1960     1.0  0.57567  0.42463  0.52289  1.0000
  H   H1961     1.0  0.63108  0.00797  0.87219  1.0000
  N   N125      1.0  0.64412  0.47411  0.68067  1.0000
  C   C1229     1.0  0.71029  0.46619  0.50974  1.0000
  C   C1230     1.0  0.57112  0.41980  0.53749  1.0000
  C   C1231     1.0  0.50928  0.06933  0.86323  1.0000
  N   N126      1.0  0.54767  0.29784  0.60244  1.0000
  C   C1232     1.0  0.67960  0.01279  0.99227  1.0000
  C   C1233     1.0  0.51345  0.19209  0.91466  1.0000
  H   H1962     1.0  0.53945  0.43560  0.57095  1.0000
  H   H1963     1.0  0.54522  0.44179  0.52174  1.0000
  S   S491      1.0  0.70632  0.05750  0.99312  1.0000
  N   N127      1.0  0.50333  0.17777  0.92312  1.0000
  C   C1234     1.0  0.59701  0.02386  0.91724  1.0000
  H   H1964     1.0  0.57370  0.44743  0.54959  1.0000
  N   N128      1.0  0.51286  0.05228  0.85750  1.0000
  H   H1965     1.0  0.58284  0.41673  0.54379  1.0000
  H   H1966     1.0  0.50222  0.06817  0.87747  1.0000
  C   C1235     1.0  0.57743  0.00660  0.91438  1.0000
  H   H1967     1.0  0.52123  0.15952  0.90730  1.0000
  H   H1968     1.0  0.53748  0.04201  0.86680  1.0000
  H   H1969     1.0  0.67933  0.47465  0.53319  1.0000
  H   H1970     1.0  0.53462  0.33962  0.50274  1.0000
  C   C1236     1.0  0.51533  0.16028  0.92148  1.0000
  C   C1237     1.0  0.52186  0.05461  0.83846  1.0000
  H   H1971     1.0  0.62533  0.09435  0.98002  1.0000
  S   S492      1.0  0.57324  0.01894  0.85187  1.0000
  C   C1238     1.0  0.63879  0.49098  0.68701  1.0000
  H   H1972     1.0  0.63937  0.06265  0.97790  1.0000
  H   H1973     1.0  0.65658  0.05053  0.98990  1.0000
  H   H1974     1.0  0.57429  0.01152  0.94721  1.0000
  C   C1239     1.0  0.68731  0.48518  0.52714  1.0000
  Fe  Fe246     1.0  0.58277  0.00359  0.83023  1.0000
  H   H1975     1.0  0.60074  0.02800  0.90247  1.0000
  C   C1240     1.0  0.64415  0.06114  0.99024  1.0000
  H   H1976     1.0  0.67206  0.47218  0.67880  1.0000
  H   H1977     1.0  0.50491  0.41626  0.67602  1.0000
  S   S493      1.0  0.51336  0.43762  0.61575  1.0000
  H   H1978     1.0  0.51534  0.37541  0.64667  1.0000
  C   C1241     1.0  0.66152  0.46418  0.68508  1.0000
  H   H1979     1.0  0.53043  0.32340  0.59556  1.0000
  H   H1980     1.0  0.57938  0.47472  0.66786  1.0000
  S   S494      1.0  0.51420  0.46782  0.56819  1.0000
  Fe  Fe247     1.0  0.51911  0.36325  0.54957  1.0000
  S   S495      1.0  0.65639  0.02923  0.91071  1.0000
  C   C1242     1.0  0.52448  0.03834  0.86828  1.0000
  H   H1981     1.0  0.64831  0.00356  0.89546  1.0000
  H   H1982     1.0  0.63289  0.48562  0.65734  1.0000
  C   C1243     1.0  0.63036  0.46332  0.68942  1.0000
  C   C1244     1.0  0.50099  0.42356  0.50683  1.0000
  H   H1983     1.0  0.52842  0.12250  0.98754  1.0000
  C   C1245     1.0  0.51955  0.38701  0.64837  1.0000
  H   H1984     1.0  0.51728  0.41139  0.52626  1.0000
  N   N129      1.0  0.64745  0.07811  0.99163  1.0000
  H   H1985     1.0  0.58128  0.01019  0.89958  1.0000
  C   C1246     1.0  0.63067  0.09182  0.99223  1.0000
  C   C1247     1.0  0.71670  0.49189  0.51545  1.0000
  H   H1986     1.0  0.65603  0.48622  0.65408  1.0000
  H   H1987     1.0  0.63765  0.48860  0.70164  1.0000
  H   H1988     1.0  0.50591  0.29677  0.57650  1.0000
  H   H1989     1.0  0.52768  0.40607  0.66703  1.0000
  S   S496      1.0  0.50450  0.48060  0.61540  1.0000
  H   H1990     1.0  0.50502  0.32620  0.55563  1.0000
  H   H1991     1.0  0.52104  0.37623  0.68301  1.0000
  H   H1992     1.0  0.51361  0.42054  0.65261  1.0000
  Fe  Fe248     1.0  0.65943  0.00316  0.93029  1.0000
  S   S497      1.0  0.64033  0.00116  0.95678  1.0000
  H   H1993     1.0  0.68247  0.49319  0.51493  1.0000
  C   C1248     1.0  0.50739  0.38104  0.68007  1.0000
  N   N130      1.0  0.50744  0.39469  0.66333  1.0000
  H   H1994     1.0  0.59705  0.00136  0.94905  1.0000
  H   H1995     1.0  0.68419  0.49416  0.53667  1.0000
  H   H1996     1.0  0.70640  0.47418  0.49704  1.0000
  Fe  Fe249     1.0  0.50138  0.45511  0.63556  1.0000
  H   H1997     1.0  0.50253  0.77918  0.16559  1.0000
  H   H1998     1.0  0.56890  0.65403  0.44541  1.0000
  H   H1999     1.0  0.54391  0.89102  0.99590  1.0000
  H   H2000     1.0  0.57127  0.96505  0.14053  1.0000
  H   H2001     1.0  0.54476  0.56197  0.36083  1.0000
  C   C1249     1.0  0.58178  0.95336  0.10988  1.0000
  H   H2002     1.0  0.55132  0.97698  0.11891  1.0000
  H   H2003     1.0  0.53118  0.58390  0.31770  1.0000
  C   C1250     1.0  0.51369  0.77120  0.10725  1.0000
  H   H2004     1.0  0.51517  0.81388  0.16150  1.0000
  H   H2005     1.0  0.56141  0.93001  0.11348  1.0000
  H   H2006     1.0  0.55789  0.94884  0.15256  1.0000
  C   C1251     1.0  0.53050  0.56903  0.36202  1.0000
  Fe  Fe250     1.0  0.53605  0.62152  0.46612  1.0000
  S   S498      1.0  0.69638  0.56712  0.48312  1.0000
  C   C1252     1.0  0.54613  0.98435  0.16515  1.0000
  H   H2007     1.0  0.52233  0.55879  0.36485  1.0000
  S   S499      1.0  0.71624  0.51967  0.46847  1.0000
  Fe  Fe251     1.0  0.70574  0.53716  0.48912  1.0000
  H   H2008     1.0  0.58475  0.63156  0.49159  1.0000
  C   C1253     1.0  0.61754  0.57255  0.47400  1.0000
  H   H2009     1.0  0.53379  0.80598  0.13293  1.0000
  H   H2010     1.0  0.53423  0.60302  0.35427  1.0000
  H   H2011     1.0  0.54777  0.56747  0.32824  1.0000
  S   S500      1.0  0.53171  0.91267  0.11970  1.0000
  H   H2012     1.0  0.50479  0.78155  0.10004  1.0000
  H   H2013     1.0  0.54718  0.96228  0.10749  1.0000
  N   N131      1.0  0.54846  0.67788  0.44167  1.0000
  H   H2014     1.0  0.50359  0.59732  0.35965  1.0000
  H   H2015     1.0  0.52524  0.78223  0.15904  1.0000
  Fe  Fe252     1.0  0.52179  0.85000  0.05299  1.0000
  S   S501      1.0  0.51769  0.82452  0.04923  1.0000
  S   S502      1.0  0.53275  0.87169  0.03153  1.0000
  H   H2016     1.0  0.57544  0.92135  0.12949  1.0000
  S   S503      1.0  0.51339  0.66136  0.41243  1.0000
  Fe  Fe253     1.0  0.52342  0.81251  0.07655  1.0000
  S   S504      1.0  0.54146  0.78597  0.08432  1.0000
  S   S505      1.0  0.50961  0.73025  0.15059  1.0000
  S   S506      1.0  0.53068  0.83714  0.07878  1.0000
  H   H2017     1.0  0.53796  0.96085  0.13079  1.0000
  C   C1254     1.0  0.57505  0.51645  0.33096  1.0000
  S   S507      1.0  0.55954  0.62325  0.47647  1.0000
  H   H2018     1.0  0.52327  0.62689  0.40317  1.0000
  C   C1255     1.0  0.56363  0.93174  0.12609  1.0000
  S   S508      1.0  0.54143  0.61800  0.43784  1.0000
  N   N132      1.0  0.60107  0.57758  0.48720  1.0000
  H   H2019     1.0  0.52417  0.79808  0.11937  1.0000
  S   S509      1.0  0.52486  0.49796  0.36594  1.0000
  C   C1256     1.0  0.53657  0.74351  0.12541  1.0000
  C   C1257     1.0  0.54362  0.75585  0.11074  1.0000
  C   C1258     1.0  0.53220  0.76987  0.10174  1.0000
  C   C1259     1.0  0.51695  0.63639  0.39299  1.0000
  H   H2020     1.0  0.61858  0.55926  0.47129  1.0000
  H   H2021     1.0  0.54551  0.73284  0.13240  1.0000
  H   H2022     1.0  0.55795  0.75466  0.10650  1.0000
  H   H2023     1.0  0.57983  0.95233  0.09689  1.0000
  H   H2024     1.0  0.62974  0.57183  0.47880  1.0000
  C   C1260     1.0  0.52254  0.89464  0.12042  1.0000
  C   C1261     1.0  0.58521  0.57842  0.48034  1.0000
  H   H2025     1.0  0.50946  0.90279  0.05375  1.0000
  C   C1262     1.0  0.54386  0.50628  0.35334  1.0000
  C   C1263     1.0  0.52039  0.87224  0.10599  1.0000
  C   C1264     1.0  0.52927  0.88493  0.10693  1.0000
  H   H2026     1.0  0.57337  0.68489  0.43977  1.0000
  C   C1265     1.0  0.51127  0.55698  0.42376  1.0000
  H   H2027     1.0  0.52536  0.86530  0.09519  1.0000
  H   H2028     1.0  0.54096  0.88770  0.09682  1.0000
  C   C1266     1.0  0.56936  0.95145  0.14131  1.0000
  C   C1267     1.0  0.52110  0.80697  0.12893  1.0000
  C   C1268     1.0  0.55648  0.63613  0.49251  1.0000
  Fe  Fe254     1.0  0.52327  0.59844  0.44856  1.0000
  S   S510      1.0  0.50511  0.94542  0.15265  1.0000
  C   C1269     1.0  0.54988  0.87703  0.99639  1.0000
  C   C1270     1.0  0.55821  0.52651  0.32830  1.0000
  C   C1271     1.0  0.54260  0.52136  0.33944  1.0000
  H   H2029     1.0  0.53602  0.69121  0.46353  1.0000
  H   H2030     1.0  0.58473  0.58846  0.46760  1.0000
  H   H2031     1.0  0.52663  0.57516  0.37390  1.0000
  H   H2032     1.0  0.55729  0.53769  0.31708  1.0000
  N   N133      1.0  0.52761  0.58262  0.34570  1.0000
  H   H2033     1.0  0.59423  0.94361  0.11259  1.0000
  C   C1272     1.0  0.50309  0.81442  0.15664  1.0000
  H   H2034     1.0  0.52271  0.67616  0.43900  1.0000
  H   H2035     1.0  0.61799  0.58246  0.46112  1.0000
  H   H2036     1.0  0.52610  0.69845  0.43457  1.0000
  Fe  Fe255     1.0  0.50931  0.93464  0.12825  1.0000
  H   H2037     1.0  0.58515  0.56532  0.47789  1.0000
  H   H2038     1.0  0.51895  0.90485  0.07105  1.0000
  H   H2039     1.0  0.50575  0.88845  0.07536  1.0000
  H   H2040     1.0  0.55175  0.92877  0.13668  1.0000
  N   N134      1.0  0.56619  0.94991  0.12437  1.0000
  C   C1273     1.0  0.50689  0.90233  0.06830  1.0000
  H   H2041     1.0  0.51659  0.54423  0.43160  1.0000
  S   S511      1.0  0.52707  0.57183  0.44145  1.0000
  H   H2042     1.0  0.56623  0.69008  0.41902  1.0000
  C   C1274     1.0  0.55000  0.96308  0.12018  1.0000
  C   C1275     1.0  0.51302  0.78360  0.15402  1.0000
  H   H2043     1.0  0.51837  0.61670  0.37843  1.0000
  H   H2044     1.0  0.52968  0.52849  0.33668  1.0000
  C   C1276     1.0  0.56538  0.84097  0.99758  1.0000
  H   H2045     1.0  0.52569  0.56357  0.33193  1.0000
  C   C1277     1.0  0.60036  0.59524  0.49037  1.0000
  S   S512      1.0  0.51181  0.64363  0.46363  1.0000
  H   H2046     1.0  0.51708  0.82086  0.12151  1.0000
  C   C1278     1.0  0.57623  0.50172  0.34516  1.0000
  C   C1279     1.0  0.53286  0.68461  0.43310  1.0000
  C   C1280     1.0  0.55443  0.84649  0.01300  1.0000
  C   C1281     1.0  0.54672  0.86454  0.01244  1.0000
  C   C1282     1.0  0.53332  0.57402  0.33021  1.0000
  H   H2047     1.0  0.55220  0.83678  0.02536  1.0000
  H   H2048     1.0  0.55387  0.67236  0.46794  1.0000
  H   H2049     1.0  0.57146  0.82699  0.99813  1.0000
  C   C1283     1.0  0.53265  0.98316  0.15729  1.0000
  S   S513      1.0  0.52042  0.59972  0.47701  1.0000
  H   H2050     1.0  0.50993  0.82826  0.01169  1.0000
  H   H2051     1.0  0.50397  0.93723  0.06739  1.0000
  H   H2052     1.0  0.55141  0.97309  0.17479  1.0000
  H   H2053     1.0  0.52758  0.97106  0.16093  1.0000
  C   C1284     1.0  0.51151  0.65437  0.39394  1.0000
  H   H2054     1.0  0.50579  0.60199  0.33594  1.0000
  H   H2055     1.0  0.58152  0.94176  0.14485  1.0000
  H   H2056     1.0  0.53259  0.66899  0.46747  1.0000
  H   H2057     1.0  0.61351  0.49979  0.36693  1.0000
  C   C1285     1.0  0.53817  0.59628  0.34283  1.0000
  S   S514      1.0  0.59463  0.52136  0.31589  1.0000
  N   N135      1.0  0.50693  0.80205  0.14452  1.0000
  C   C1286     1.0  0.51805  0.74509  0.13125  1.0000
  C   C1287     1.0  0.51426  0.63067  0.37888  1.0000
  C   C1288     1.0  0.56070  0.49666  0.35633  1.0000
  C   C1289     1.0  0.50589  0.64284  0.36571  1.0000
  C   C1290     1.0  0.55709  0.65961  0.43906  1.0000
  C   C1291     1.0  0.56144  0.68963  0.43357  1.0000
  Fe  Fe256     1.0  0.51612  0.63866  0.43615  1.0000
  H   H2058     1.0  0.55275  0.59038  0.34108  1.0000
  C   C1292     1.0  0.51486  0.57264  0.42568  1.0000
  H   H2059     1.0  0.59292  0.49854  0.38301  1.0000
  H   H2060     1.0  0.58409  0.96696  0.10829  1.0000
  H   H2061     1.0  0.56158  0.65916  0.42468  1.0000
  H   H2062     1.0  0.54772  0.65039  0.44517  1.0000
  C   C1293     1.0  0.54248  0.67765  0.46096  1.0000
  C   C1294     1.0  0.70418  0.50478  0.46612  1.0000
  H   H2063     1.0  0.53678  0.68456  0.41859  1.0000
  H   H2064     1.0  0.55538  0.70354  0.43532  1.0000
  C   C1295     1.0  0.50843  0.59122  0.34772  1.0000
  H   H2065     1.0  0.68019  0.51316  0.48478  1.0000
  C   C1296     1.0  0.50748  0.89095  0.13349  1.0000
  C   C1297     1.0  0.50490  0.86906  0.11865  1.0000
  H   H2066     1.0  0.53599  0.60695  0.33082  1.0000
  H   H2067     1.0  0.50249  0.89806  0.14424  1.0000
  H   H2068     1.0  0.60642  0.50409  0.40547  1.0000
  Fe  Fe257     1.0  0.50173  0.84456  0.09134  1.0000
  H   H2069     1.0  0.62701  0.50521  0.38921  1.0000
  S   S515      1.0  0.50151  0.63488  0.34895  1.0000
  H   H2070     1.0  0.51140  0.60098  0.41624  1.0000
  C   C1298     1.0  0.50080  0.66092  0.36644  1.0000
  C   C1299     1.0  0.50815  0.58898  0.41535  1.0000
  S   S516      1.0  0.50597  0.96138  0.10967  1.0000
  H   H2071     1.0  0.57255  0.58249  0.48989  1.0000
  C   C1300     1.0  0.50663  0.75896  0.12207  1.0000
  H   H2072     1.0  0.59990  0.60574  0.47795  1.0000
  C   C1301     1.0  0.68684  0.50402  0.47604  1.0000
  C   C1302     1.0  0.50378  0.66670  0.38042  1.0000
  H   H2073     1.0  0.51070  0.85507  0.02123  1.0000
  H   H2074     1.0  0.51642  0.77401  0.14512  1.0000
  C   C1303     1.0  0.64100  0.70117  0.55390  1.0000
  C   C1304     1.0  0.66815  0.93493  0.80450  1.0000
  H   H2075     1.0  0.67598  0.58654  0.59710  1.0000
  S   S517      1.0  0.64459  0.57531  0.50667  1.0000
  H   H2076     1.0  0.74495  0.93818  0.97500  1.0000
  Fe  Fe258     1.0  0.72764  0.90909  0.77972  1.0000
  H   H2077     1.0  0.59395  0.55507  0.61170  1.0000
  H   H2078     1.0  0.74095  0.56962  0.52986  1.0000
  Fe  Fe259     1.0  0.69237  0.91463  0.76919  1.0000
  S   S518      1.0  0.70407  0.89792  0.74849  1.0000
  S   S519      1.0  0.66283  0.92634  0.77539  1.0000
  Fe  Fe260     1.0  0.71816  0.87919  0.76939  1.0000
  S   S520      1.0  0.72150  0.84949  0.77614  1.0000
  S   S521      1.0  0.68154  0.53225  0.51036  1.0000
  S   S522      1.0  0.70482  0.89486  0.79068  1.0000
  S   S523      1.0  0.71416  0.93018  0.75982  1.0000
  H   H2079     1.0  0.74844  0.61353  0.79456  1.0000
  S   S524      1.0  0.68732  0.83788  0.89991  1.0000
  S   S525      1.0  0.70613  0.87078  0.87533  1.0000
  Fe  Fe261     1.0  0.69811  0.85938  0.90447  1.0000
  S   S526      1.0  0.68058  0.87678  0.92349  1.0000
  Fe  Fe262     1.0  0.69814  0.84754  0.87092  1.0000
  S   S527      1.0  0.68303  0.85086  0.84966  1.0000
  S   S528      1.0  0.72492  0.82957  0.87060  1.0000
  H   H2080     1.0  0.53220  0.70805  0.61163  1.0000
  H   H2081     1.0  0.64003  0.88111  0.93724  1.0000
  S   S529      1.0  0.68415  0.99230  0.94152  1.0000
  Fe  Fe263     1.0  0.64083  0.97379  0.95352  1.0000
  S   S530      1.0  0.65806  0.97698  0.92605  1.0000
  S   S531      1.0  0.61584  0.96322  0.95792  1.0000
  Fe  Fe264     1.0  0.68077  0.96553  0.94019  1.0000
  H   H2082     1.0  0.63093  0.90236  0.95725  1.0000
  H   H2083     1.0  0.67046  0.90848  0.84934  1.0000
  S   S532      1.0  0.66349  0.96072  0.96761  1.0000
  C   C1305     1.0  0.55766  0.50001  0.63496  1.0000
  Fe  Fe265     1.0  0.63804  0.77930  0.78288  1.0000
  S   S533      1.0  0.62698  0.80749  0.76990  1.0000
  S   S534      1.0  0.63172  0.75464  0.77848  1.0000
  Fe  Fe266     1.0  0.65919  0.79151  0.80327  1.0000
  S   S535      1.0  0.64982  0.82018  0.79120  1.0000
  S   S536      1.0  0.67783  0.78483  0.82245  1.0000
  Fe  Fe267     1.0  0.62301  0.81359  0.79691  1.0000
  S   S537      1.0  0.59949  0.83232  0.81006  1.0000
  Fe  Fe268     1.0  0.65506  0.81101  0.76586  1.0000
  S   S538      1.0  0.67029  0.82712  0.74206  1.0000
  S   S539      1.0  0.63186  0.78513  0.81044  1.0000
  S   S540      1.0  0.66646  0.78256  0.77725  1.0000
  Fe  Fe269     1.0  0.56765  0.89268  0.90754  1.0000
  S   S541      1.0  0.59366  0.89370  0.88775  1.0000
  S   S542      1.0  0.54243  0.91190  0.90220  1.0000
  Fe  Fe270     1.0  0.58424  0.86492  0.93570  1.0000
  S   S543      1.0  0.61168  0.86386  0.91836  1.0000
  S   S544      1.0  0.58216  0.84590  0.96247  1.0000
  Fe  Fe271     1.0  0.60390  0.89362  0.91146  1.0000
  S   S545      1.0  0.62489  0.90894  0.90908  1.0000
  Fe  Fe272     1.0  0.59913  0.86394  0.89624  1.0000
  S   S546      1.0  0.61650  0.84502  0.87870  1.0000
  S   S547      1.0  0.57750  0.89479  0.93066  1.0000
  S   S548      1.0  0.57205  0.86272  0.91414  1.0000
  Fe  Fe273     1.0  0.72730  0.60356  0.71686  1.0000
  S   S549      1.0  0.72189  0.58876  0.69932  1.0000
  S   S550      1.0  0.71893  0.63324  0.71331  1.0000
  H   H2084     1.0  0.52717  0.95419  0.82286  1.0000
  H   H2085     1.0  0.66735  0.59713  0.50852  1.0000
  H   H2086     1.0  0.69397  0.93996  0.88793  1.0000
  H   H2087     1.0  0.53677  0.92533  0.85490  1.0000
  H   H2088     1.0  0.71992  0.83512  0.81412  1.0000
  Fe  Fe274     1.0  0.71313  0.56986  0.72470  1.0000
  S   S551      1.0  0.68585  0.56322  0.72951  1.0000
  H   H2089     1.0  0.73150  0.86692  0.84237  1.0000
  S   S552      1.0  0.71678  0.58592  0.74241  1.0000
  Fe  Fe275     1.0  0.64197  0.53759  0.66599  1.0000
  S   S553      1.0  0.66821  0.52768  0.67518  1.0000
  Fe  Fe276     1.0  0.60712  0.56414  0.66666  1.0000
  S   S554      1.0  0.59857  0.55386  0.64736  1.0000
  S   S555      1.0  0.58981  0.58788  0.67721  1.0000
  Fe  Fe277     1.0  0.62697  0.55252  0.63241  1.0000
  S   S556      1.0  0.63099  0.56141  0.60272  1.0000
  S   S557      1.0  0.61476  0.53703  0.68372  1.0000
  S   S558      1.0  0.63464  0.56542  0.65025  1.0000
  Fe  Fe278     1.0  0.61640  0.72295  0.69886  1.0000
  S   S559      1.0  0.60249  0.70003  0.70482  1.0000
  S   S560      1.0  0.60834  0.74797  0.71030  1.0000
  Fe  Fe279     1.0  0.64635  0.70776  0.67106  1.0000
  S   S561      1.0  0.63579  0.68339  0.67472  1.0000
  S   S562      1.0  0.67235  0.71315  0.65317  1.0000
  Fe  Fe280     1.0  0.60897  0.70178  0.67517  1.0000
  S   S563      1.0  0.59054  0.69201  0.66425  1.0000
  Fe  Fe281     1.0  0.62994  0.68287  0.70379  1.0000
  S   S564      1.0  0.63549  0.65510  0.72005  1.0000
  S   S565      1.0  0.62003  0.72661  0.66906  1.0000
  S   S566      1.0  0.64343  0.70540  0.70028  1.0000
  Fe  Fe282     1.0  0.58526  0.67874  0.57450  1.0000
  S   S567      1.0  0.55809  0.67370  0.57714  1.0000
  S   S568      1.0  0.59192  0.70114  0.58235  1.0000
  Fe  Fe283     1.0  0.60395  0.64503  0.56140  1.0000
  S   S569      1.0  0.57859  0.63614  0.56372  1.0000
  S   S570      1.0  0.63262  0.63223  0.55264  1.0000
  Fe  Fe284     1.0  0.56881  0.66468  0.55111  1.0000
  S   S571      1.0  0.55001  0.67132  0.53211  1.0000
  Fe  Fe285     1.0  0.56967  0.64563  0.58938  1.0000
  S   S572      1.0  0.55229  0.63294  0.61413  1.0000
  S   S573      1.0  0.59491  0.67301  0.54697  1.0000
  S   S574      1.0  0.59605  0.65125  0.58852  1.0000
  S   S575      1.0  0.69628  0.67796  0.58590  1.0000
  S   S576      1.0  0.68659  0.56406  0.52640  1.0000
  H   H2090     1.0  0.55156  0.69081  0.60750  1.0000
  Fe  Fe286     1.0  0.69709  0.53479  0.52879  1.0000
  S   S577      1.0  0.69556  0.51713  0.55606  1.0000
  H   H2091     1.0  0.67180  0.94081  0.82798  1.0000
  H   H2092     1.0  0.62015  0.89579  0.98009  1.0000
  H   H2093     1.0  0.52418  0.97301  0.83238  1.0000
  S   S578      1.0  0.73473  0.63859  0.59316  1.0000
  C   C1306     1.0  0.63522  0.61757  0.53876  1.0000
  C   C1307     1.0  0.65188  0.61293  0.52769  1.0000
  C   C1308     1.0  0.65449  0.60050  0.51723  1.0000
  C   C1309     1.0  0.64054  0.59246  0.51802  1.0000
  C   C1310     1.0  0.62108  0.60996  0.53914  1.0000
  H   H2094     1.0  0.66279  0.61895  0.52715  1.0000
  H   H2095     1.0  0.61288  0.56334  0.50969  1.0000
  C   C1311     1.0  0.59270  0.69406  0.64121  1.0000
  C   C1312     1.0  0.59961  0.70780  0.62845  1.0000
  C   C1313     1.0  0.59945  0.70986  0.61036  1.0000
  C   C1314     1.0  0.59280  0.69794  0.60493  1.0000
  C   C1315     1.0  0.58662  0.68378  0.61764  1.0000
  C   C1316     1.0  0.58631  0.68203  0.63571  1.0000
  H   H2096     1.0  0.60447  0.71722  0.63258  1.0000
  H   H2097     1.0  0.60427  0.72086  0.60061  1.0000
  H   H2098     1.0  0.58165  0.67444  0.61361  1.0000
  H   H2099     1.0  0.58102  0.67135  0.64549  1.0000
  C   C1317     1.0  0.67834  0.70424  0.63396  1.0000
  C   C1318     1.0  0.69485  0.70564  0.62234  1.0000
  C   C1319     1.0  0.70026  0.69784  0.60739  1.0000
  C   C1320     1.0  0.68926  0.68850  0.60409  1.0000
  C   C1321     1.0  0.67262  0.68736  0.61556  1.0000
  C   C1322     1.0  0.66715  0.69526  0.63045  1.0000
  H   H2100     1.0  0.70348  0.71275  0.62487  1.0000
  H   H2101     1.0  0.71285  0.69929  0.59831  1.0000
  H   H2102     1.0  0.66405  0.68015  0.61314  1.0000
  H   H2103     1.0  0.65424  0.69445  0.63912  1.0000
  C   C1323     1.0  0.57970  0.60164  0.65991  1.0000
  C   C1324     1.0  0.59002  0.60575  0.64270  1.0000
  C   C1325     1.0  0.58177  0.61606  0.62866  1.0000
  C   C1326     1.0  0.56314  0.62156  0.63169  1.0000
  C   C1327     1.0  0.55286  0.61747  0.64890  1.0000
  C   C1328     1.0  0.56116  0.60781  0.66307  1.0000
  H   H2104     1.0  0.60438  0.60091  0.64021  1.0000
  H   H2105     1.0  0.58983  0.61923  0.61545  1.0000
  H   H2106     1.0  0.53843  0.62156  0.65127  1.0000
  H   H2107     1.0  0.55315  0.60443  0.67632  1.0000
  C   C1329     1.0  0.64794  0.54729  0.59065  1.0000
  C   C1330     1.0  0.66143  0.53502  0.59847  1.0000
  C   C1331     1.0  0.67573  0.52507  0.58803  1.0000
  C   C1332     1.0  0.67658  0.52750  0.56977  1.0000
  C   C1333     1.0  0.66278  0.53935  0.56216  1.0000
  C   C1334     1.0  0.64857  0.54930  0.57254  1.0000
  C   C1335     1.0  0.51730  0.85681  0.98618  1.0000
  H   H2108     1.0  0.66307  0.54098  0.54819  1.0000
  H   H2109     1.0  0.63822  0.55879  0.56639  1.0000
  H   H2110     1.0  0.53220  0.66968  0.60991  1.0000
  H   H2111     1.0  0.59683  0.88796  0.97000  1.0000
  H   H2112     1.0  0.62843  0.94456  0.79176  1.0000
  C   C1336     1.0  0.68119  0.55439  0.71343  1.0000
  C   C1337     1.0  0.69492  0.54552  0.70172  1.0000
  C   C1338     1.0  0.69079  0.53754  0.68994  1.0000
  C   C1339     1.0  0.67293  0.53882  0.68937  1.0000
  C   C1340     1.0  0.65920  0.54819  0.70069  1.0000
  C   C1341     1.0  0.66331  0.55571  0.71284  1.0000
  H   H2113     1.0  0.70873  0.54436  0.70207  1.0000
  H   H2114     1.0  0.70149  0.53030  0.68126  1.0000
  H   H2115     1.0  0.64540  0.54915  0.70046  1.0000
  H   H2116     1.0  0.65259  0.56244  0.72188  1.0000
  C   C1342     1.0  0.69573  0.63933  0.71540  1.0000
  C   C1343     1.0  0.68635  0.62729  0.71411  1.0000
  C   C1344     1.0  0.66785  0.63224  0.71536  1.0000
  C   C1345     1.0  0.65862  0.64910  0.71833  1.0000
  C   C1346     1.0  0.66797  0.66121  0.71956  1.0000
  C   C1347     1.0  0.68656  0.65636  0.71800  1.0000
  H   H2117     1.0  0.69333  0.61419  0.71201  1.0000
  H   H2118     1.0  0.66080  0.62306  0.71377  1.0000
  H   H2119     1.0  0.66084  0.67417  0.72212  1.0000
  H   H2120     1.0  0.69378  0.66570  0.71902  1.0000
  H   H2121     1.0  0.70707  0.56640  0.57240  1.0000
  H   H2122     1.0  0.65315  0.82492  0.87242  1.0000
  H   H2123     1.0  0.55927  0.57646  0.58477  1.0000
  H   H2124     1.0  0.67367  0.97766  0.88819  1.0000
  C   C1348     1.0  0.66229  0.94167  0.82013  1.0000
  H   H2125     1.0  0.56280  0.88115  0.96854  1.0000
  C   C1349     1.0  0.62641  0.75307  0.75875  1.0000
  C   C1350     1.0  0.62676  0.73616  0.75618  1.0000
  C   C1351     1.0  0.62165  0.73436  0.74121  1.0000
  C   C1352     1.0  0.61563  0.74953  0.72891  1.0000
  C   C1353     1.0  0.61529  0.76645  0.73145  1.0000
  C   C1354     1.0  0.62096  0.76822  0.74610  1.0000
  H   H2126     1.0  0.63092  0.72437  0.76588  1.0000
  H   H2127     1.0  0.62193  0.72126  0.73946  1.0000
  H   H2128     1.0  0.61070  0.77826  0.72197  1.0000
  H   H2129     1.0  0.62079  0.78132  0.74776  1.0000
  C   C1355     1.0  0.60355  0.83596  0.82942  1.0000
  C   C1356     1.0  0.59238  0.84959  0.83786  1.0000
  C   C1357     1.0  0.59600  0.85255  0.85313  1.0000
  C   C1358     1.0  0.61084  0.84187  0.85992  1.0000
  C   C1359     1.0  0.62186  0.82827  0.85146  1.0000
  C   C1360     1.0  0.61817  0.82526  0.83639  1.0000
  H   H2130     1.0  0.58095  0.85786  0.83259  1.0000
  H   H2131     1.0  0.58736  0.86304  0.85961  1.0000
  H   H2132     1.0  0.63331  0.81990  0.85656  1.0000
  H   H2133     1.0  0.62662  0.81451  0.83024  1.0000
  C   C1361     1.0  0.61809  0.94781  0.94475  1.0000
  C   C1362     1.0  0.60301  0.94247  0.94358  1.0000
  C   C1363     1.0  0.60475  0.93061  0.93259  1.0000
  C   C1364     1.0  0.62162  0.92402  0.92282  1.0000
  C   C1365     1.0  0.63659  0.92935  0.92407  1.0000
  C   C1366     1.0  0.63486  0.94111  0.93502  1.0000
  H   H2134     1.0  0.58994  0.94764  0.95103  1.0000
  H   H2135     1.0  0.59305  0.92673  0.93155  1.0000
  H   H2136     1.0  0.64967  0.92401  0.91682  1.0000
  H   H2137     1.0  0.64659  0.94472  0.93617  1.0000
  C   C1367     1.0  0.68234  0.83220  0.84220  1.0000
  C   C1368     1.0  0.69506  0.81620  0.84439  1.0000
  C   C1369     1.0  0.69385  0.80171  0.83807  1.0000
  C   C1370     1.0  0.67978  0.80312  0.82984  1.0000
  C   C1371     1.0  0.66692  0.81896  0.82825  1.0000
  C   C1372     1.0  0.66823  0.83344  0.83427  1.0000
  H   H2138     1.0  0.70579  0.81497  0.85089  1.0000
  H   H2139     1.0  0.70372  0.78937  0.83963  1.0000
  H   H2140     1.0  0.65562  0.81992  0.82287  1.0000
  H   H2141     1.0  0.65790  0.84543  0.83327  1.0000
  S   S579      1.0  0.63697  0.95642  0.84593  1.0000
  C   C1373     1.0  0.67666  0.90617  0.93691  1.0000
  C   C1374     1.0  0.68170  0.92123  0.93849  1.0000
  H   H2142     1.0  0.66397  0.90309  0.94450  1.0000
  H   H2143     1.0  0.67294  0.92956  0.94738  1.0000
  C   C1375     1.0  0.54521  0.93317  0.90173  1.0000
  C   C1376     1.0  0.56243  0.93657  0.89771  1.0000
  C   C1377     1.0  0.56480  0.95391  0.89539  1.0000
  C   C1378     1.0  0.54993  0.96782  0.89771  1.0000
  C   C1379     1.0  0.53267  0.96437  0.90255  1.0000
  C   C1380     1.0  0.53030  0.94705  0.90437  1.0000
  H   H2144     1.0  0.57400  0.92599  0.89584  1.0000
  H   H2145     1.0  0.57817  0.95651  0.89175  1.0000
  H   H2146     1.0  0.52115  0.97516  0.90428  1.0000
  H   H2147     1.0  0.51696  0.94446  0.90757  1.0000
  C   C1381     1.0  0.63008  0.89080  0.96877  1.0000
  C   C1382     1.0  0.71065  0.95125  0.97241  1.0000
  C   C1383     1.0  0.58734  0.56004  0.60011  1.0000
  H   H2148     1.0  0.55428  0.57152  0.61797  1.0000
  S   S580      1.0  0.74230  0.89115  0.76093  1.0000
  C   C1384     1.0  0.59035  0.59019  0.59708  1.0000
  C   C1385     1.0  0.65593  0.93578  0.79435  1.0000
  H   H2149     1.0  0.68212  0.92903  0.80036  1.0000
  C   C1386     1.0  0.71008  0.84174  0.76469  1.0000
  C   C1387     1.0  0.70584  0.85181  0.74847  1.0000
  C   C1388     1.0  0.69438  0.84677  0.74087  1.0000
  C   C1389     1.0  0.68718  0.83166  0.74952  1.0000
  C   C1390     1.0  0.69229  0.82108  0.76520  1.0000
  C   C1391     1.0  0.70373  0.82608  0.77276  1.0000
  H   H2150     1.0  0.71124  0.86355  0.74184  1.0000
  H   H2151     1.0  0.69061  0.85491  0.72867  1.0000
  H   H2152     1.0  0.68711  0.80921  0.77181  1.0000
  H   H2153     1.0  0.70696  0.81821  0.78530  1.0000
  H   H2154     1.0  0.64859  0.87127  0.85245  1.0000
  N   N136      1.0  0.64839  0.89518  0.86032  1.0000
  C   C1392     1.0  0.74561  0.81026  0.82810  1.0000
  C   C1393     1.0  0.63860  0.87007  0.94924  1.0000
  Fe  Fe287     1.0  0.66508  0.98863  0.96797  1.0000
  N   N137      1.0  0.57763  0.57880  0.59916  1.0000
  C   C1394     1.0  0.53765  0.65571  0.51214  1.0000
  H   H2155     1.0  0.57365  0.99335  0.91796  1.0000
  C   C1395     1.0  0.68784  0.89520  0.92543  1.0000
  C   C1396     1.0  0.60783  0.99255  0.91702  1.0000
  S   S581      1.0  0.74469  0.91694  0.79341  1.0000
  H   H2156     1.0  0.70456  0.62840  0.66092  1.0000
  H   H2157     1.0  0.57192  0.95154  0.83143  1.0000
  H   H2158     1.0  0.52428  0.69639  0.65218  1.0000
  H   H2159     1.0  0.60305  0.87213  0.95597  1.0000
  H   H2160     1.0  0.60518  0.76715  0.80728  1.0000
  H   H2161     1.0  0.51913  0.87084  0.98182  1.0000
  C   C1397     1.0  0.55881  0.95711  0.82740  1.0000
  C   C1398     1.0  0.63207  0.95073  0.81518  1.0000
  H   H2162     1.0  0.65203  0.86491  0.95264  1.0000
  H   H2163     1.0  0.67135  0.93832  0.86190  1.0000
  H   H2164     1.0  0.65068  0.67231  0.59172  1.0000
  H   H2165     1.0  0.63119  0.68976  0.58921  1.0000
  N   N138      1.0  0.61351  0.63694  0.68248  1.0000
  C   C1399     1.0  0.60088  0.64958  0.69302  1.0000
  C   C1400     1.0  0.61685  0.64586  0.66344  1.0000
  C   C1401     1.0  0.60575  0.62129  0.68476  1.0000
  C   C1402     1.0  0.63055  0.63106  0.68867  1.0000
  H   H2166     1.0  0.59784  0.64328  0.70744  1.0000
  H   H2167     1.0  0.58803  0.65470  0.68841  1.0000
  H   H2168     1.0  0.60645  0.66141  0.69181  1.0000
  H   H2169     1.0  0.62664  0.63688  0.65511  1.0000
  H   H2170     1.0  0.60432  0.65008  0.65830  1.0000
  H   H2171     1.0  0.62209  0.65812  0.66126  1.0000
  H   H2172     1.0  0.60309  0.61409  0.69893  1.0000
  H   H2173     1.0  0.61483  0.61150  0.67688  1.0000
  H   H2174     1.0  0.59284  0.62520  0.68027  1.0000
  H   H2175     1.0  0.64030  0.62123  0.68129  1.0000
  H   H2176     1.0  0.62843  0.62473  0.70312  1.0000
  H   H2177     1.0  0.63689  0.64254  0.68685  1.0000
  N   N139      1.0  0.71388  0.65243  0.65733  1.0000
  C   C1403     1.0  0.69625  0.66235  0.66523  1.0000
  C   C1404     1.0  0.71504  0.63305  0.66427  1.0000
  C   C1405     1.0  0.72812  0.65787  0.66210  1.0000
  C   C1406     1.0  0.71617  0.65647  0.63773  1.0000
  H   H2178     1.0  0.51550  0.95392  0.84562  1.0000
  H   H2179     1.0  0.60448  0.97914  0.92047  1.0000
  H   H2180     1.0  0.74645  0.82149  0.79328  1.0000
  H   H2181     1.0  0.53723  0.65702  0.64738  1.0000
  H   H2182     1.0  0.72829  0.62523  0.65864  1.0000
  H   H2183     1.0  0.71345  0.62955  0.67902  1.0000
  H   H2184     1.0  0.62558  0.49866  0.68418  1.0000
  H   H2185     1.0  0.70610  0.98685  0.96735  1.0000
  H   H2186     1.0  0.70376  0.94888  0.98671  1.0000
  H   H2187     1.0  0.70624  0.59685  0.55322  1.0000
  H   H2188     1.0  0.73293  0.94832  0.99360  1.0000
  H   H2189     1.0  0.72874  0.64826  0.63142  1.0000
  N   N140      1.0  0.67094  0.95638  0.87787  1.0000
  H   H2190     1.0  0.54846  0.92621  0.83205  1.0000
  C   C1407     1.0  0.67637  0.95046  0.86078  1.0000
  C   C1408     1.0  0.67909  0.94239  0.89152  1.0000
  C   C1409     1.0  0.67709  0.97302  0.87549  1.0000
  N   N141      1.0  0.72468  0.96154  0.96892  1.0000
  H   H2191     1.0  0.71459  0.50042  0.52516  1.0000
  H   H2192     1.0  0.72308  0.84165  0.83273  1.0000
  H   H2193     1.0  0.67087  0.96095  0.85005  1.0000
  C   C1410     1.0  0.74506  0.60602  0.54260  1.0000
  H   H2194     1.0  0.53193  0.95088  0.86866  1.0000
  N   N142      1.0  0.74718  0.82830  0.81738  1.0000
  C   C1411     1.0  0.74041  0.76214  0.89923  1.0000
  H   H2195     1.0  0.74129  0.94951  0.76206  1.0000
  H   H2196     1.0  0.58824  0.59929  0.50050  1.0000
  C   C1412     1.0  0.74028  0.87616  0.83620  1.0000
  H   H2197     1.0  0.63672  0.85574  0.98409  1.0000
  H   H2198     1.0  0.66563  0.78131  0.91512  1.0000
  H   H2199     1.0  0.72768  0.67241  0.65711  1.0000
  N   N143      1.0  0.53140  0.68296  0.63040  1.0000
  C   C1413     1.0  0.54300  0.95559  0.85801  1.0000
  C   C1414     1.0  0.58143  0.79822  0.80526  1.0000
  N   N144      1.0  0.64805  0.68368  0.56463  1.0000
  C   C1415     1.0  0.56396  0.51568  0.63221  1.0000
  C   C1416     1.0  0.56130  0.78028  0.80501  1.0000
  N   N145      1.0  0.68325  0.58653  0.56913  1.0000
  H   H2200     1.0  0.58288  0.98824  0.94692  1.0000
  H   H2201     1.0  0.64341  0.88634  0.97245  1.0000
  H   H2202     1.0  0.64314  0.65701  0.57213  1.0000
  H   H2203     1.0  0.61965  0.85013  0.97685  1.0000
  H   H2204     1.0  0.59812  0.55851  0.58803  1.0000
  H   H2205     1.0  0.69404  0.65955  0.68000  1.0000
  C   C1417     1.0  0.74856  0.90088  0.81264  1.0000
  H   H2206     1.0  0.57935  0.79498  0.77310  1.0000
  C   C1418     1.0  0.55266  0.65711  0.51747  1.0000
  C   C1419     1.0  0.63571  0.91199  0.86320  1.0000
  C   C1420     1.0  0.65448  0.88552  0.87699  1.0000
  H   H2207     1.0  0.63106  0.91981  0.85084  1.0000
  H   H2208     1.0  0.64185  0.92059  0.86772  1.0000
  H   H2209     1.0  0.62370  0.90951  0.87363  1.0000
  H   H2210     1.0  0.63423  0.89099  0.84272  1.0000
  H   H2211     1.0  0.64310  0.88195  0.88793  1.0000
  H   H2212     1.0  0.66094  0.89371  0.88171  1.0000
  H   H2213     1.0  0.64608  0.94745  0.88528  1.0000
  C   C1421     1.0  0.56388  0.58028  0.61570  1.0000
  C   C1422     1.0  0.54404  0.66789  0.63884  1.0000
  H   H2214     1.0  0.64798  0.58112  0.74423  1.0000
  H   H2215     1.0  0.57002  0.57639  0.62759  1.0000
  H   H2216     1.0  0.69119  0.94729  0.85628  1.0000
  Fe  Fe288     1.0  0.74939  0.57252  0.70057  1.0000
  H   H2217     1.0  0.57822  0.55103  0.60151  1.0000
  Fe  Fe289     1.0  0.57618  0.99219  0.87009  1.0000
  H   H2218     1.0  0.55047  0.67220  0.64731  1.0000
  H   H2219     1.0  0.54841  0.70161  0.62546  1.0000
  H   H2220     1.0  0.72683  0.98685  0.97232  1.0000
  H   H2221     1.0  0.60131  0.58899  0.58506  1.0000
  S   S582      1.0  0.55300  0.98965  0.89321  1.0000
  H   H2222     1.0  0.55486  0.66188  0.62866  1.0000
  C   C1423     1.0  0.52700  0.95818  0.83527  1.0000
  H   H2223     1.0  0.55564  0.77933  0.81953  1.0000
  H   H2224     1.0  0.68645  0.55960  0.58448  1.0000
  H   H2225     1.0  0.67484  0.94617  0.90473  1.0000
  H   H2226     1.0  0.63973  0.66887  0.55036  1.0000
  H   H2227     1.0  0.51818  0.85193  0.97406  1.0000
  H   H2228     1.0  0.62368  0.67445  0.56970  1.0000
  H   H2229     1.0  0.61226  0.59529  0.49521  1.0000
  H   H2230     1.0  0.54056  0.97026  0.85638  1.0000
  C   C1424     1.0  0.54757  0.93075  0.84436  1.0000
  H   H2231     1.0  0.68513  0.65881  0.66179  1.0000
  C   C1425     1.0  0.64557  0.68529  0.58323  1.0000
  H   H2232     1.0  0.72944  0.75546  0.90597  1.0000
  S   S583      1.0  0.74315  0.92158  0.71410  1.0000
  H   H2233     1.0  0.67526  0.92944  0.89325  1.0000
  H   H2234     1.0  0.63237  0.57942  0.76535  1.0000
  H   H2235     1.0  0.55606  0.59422  0.61526  1.0000
  C   C1426     1.0  0.74692  0.58808  0.54203  1.0000
  H   H2236     1.0  0.52778  0.64375  0.49630  1.0000
  N   N146      1.0  0.65286  0.87428  0.78878  1.0000
  C   C1427     1.0  0.63689  0.86638  0.79700  1.0000
  C   C1428     1.0  0.65594  0.88346  0.80121  1.0000
  C   C1429     1.0  0.65011  0.88723  0.77205  1.0000
  C   C1430     1.0  0.66865  0.86007  0.78474  1.0000
  H   H2237     1.0  0.63870  0.85616  0.80940  1.0000
  H   H2238     1.0  0.63403  0.85963  0.78780  1.0000
  H   H2239     1.0  0.62475  0.87668  0.80051  1.0000
  H   H2240     1.0  0.64446  0.89458  0.80424  1.0000
  H   H2241     1.0  0.65819  0.87410  0.81392  1.0000
  H   H2242     1.0  0.66796  0.88942  0.79534  1.0000
  H   H2243     1.0  0.66209  0.89316  0.76537  1.0000
  H   H2244     1.0  0.63860  0.89849  0.77452  1.0000
  H   H2245     1.0  0.64762  0.88078  0.76239  1.0000
  H   H2246     1.0  0.66700  0.85314  0.77504  1.0000
  H   H2247     1.0  0.67117  0.84976  0.79686  1.0000
  H   H2248     1.0  0.68095  0.86559  0.77883  1.0000
  H   H2249     1.0  0.57354  0.81050  0.79811  1.0000
  C   C1431     1.0  0.73843  0.78018  0.89916  1.0000
  H   H2250     1.0  0.58890  0.56759  0.51438  1.0000
  H   H2251     1.0  0.58597  0.76456  0.82492  1.0000
  N   N147      1.0  0.66516  0.75225  0.68908  1.0000
  C   C1432     1.0  0.64866  0.75634  0.68216  1.0000
  C   C1433     1.0  0.66103  0.74584  0.70864  1.0000
  C   C1434     1.0  0.67242  0.76856  0.68470  1.0000
  C   C1435     1.0  0.67851  0.73827  0.68082  1.0000
  H   H2252     1.0  0.65118  0.76143  0.66747  1.0000
  H   H2253     1.0  0.63805  0.76649  0.68847  1.0000
  H   H2254     1.0  0.64299  0.74428  0.68494  1.0000
  H   H2255     1.0  0.67326  0.74194  0.71427  1.0000
  H   H2256     1.0  0.65155  0.75632  0.71536  1.0000
  H   H2257     1.0  0.65470  0.73405  0.71249  1.0000
  H   H2258     1.0  0.68476  0.76603  0.68993  1.0000
  H   H2259     1.0  0.66255  0.77942  0.69060  1.0000
  H   H2260     1.0  0.67586  0.77366  0.67003  1.0000
  H   H2261     1.0  0.67360  0.72564  0.68428  1.0000
  H   H2262     1.0  0.69134  0.73515  0.68529  1.0000
  H   H2263     1.0  0.68145  0.74234  0.66600  1.0000
  S   S584      1.0  0.72144  0.59186  0.50241  1.0000
  H   H2264     1.0  0.73857  0.95231  0.94482  1.0000
  H   H2265     1.0  0.57898  0.58403  0.57100  1.0000
  C   C1436     1.0  0.56058  0.87146  0.98089  1.0000
  C   C1437     1.0  0.64816  0.59582  0.78051  1.0000
  H   H2266     1.0  0.68516  0.61102  0.54969  1.0000
  N   N148      1.0  0.62497  0.87624  0.96427  1.0000
  H   H2267     1.0  0.69347  0.59130  0.54076  1.0000
  H   H2268     1.0  0.74127  0.95165  0.73047  1.0000
  C   C1438     1.0  0.73505  0.61934  0.53152  1.0000
  H   H2269     1.0  0.59548  0.79996  0.80181  1.0000
  C   C1439     1.0  0.66916  0.59770  0.75230  1.0000
  N   N149      1.0  0.65045  0.59682  0.76127  1.0000
  H   H2270     1.0  0.72056  0.62516  0.51049  1.0000
  H   H2271     1.0  0.65297  0.82928  0.89333  1.0000
  C   C1440     1.0  0.58711  0.78325  0.78105  1.0000
  H   H2272     1.0  0.66436  0.58190  0.55672  1.0000
  H   H2273     1.0  0.67314  0.66491  0.56528  1.0000
  H   H2274     1.0  0.63514  0.85922  0.94530  1.0000
  H   H2275     1.0  0.57659  0.79774  0.81981  1.0000
  H   H2276     1.0  0.62648  0.70593  0.55922  1.0000
  H   H2277     1.0  0.55285  0.79201  0.79776  1.0000
  Fe  Fe290     1.0  0.72613  0.66731  0.58034  1.0000
  C   C1441     1.0  0.56842  0.85341  0.98148  1.0000
  H   H2278     1.0  0.61813  0.95683  0.81924  1.0000
  H   H2279     1.0  0.51469  0.66622  0.62900  1.0000
  H   H2280     1.0  0.72989  0.85386  0.81053  1.0000
  H   H2281     1.0  0.72616  0.88931  0.81516  1.0000
  C   C1442     1.0  0.63940  0.88397  0.85499  1.0000
  H   H2282     1.0  0.58677  0.77107  0.77689  1.0000
  Fe  Fe291     1.0  0.71499  0.82121  0.89992  1.0000
  Fe  Fe292     1.0  0.73230  0.85165  0.87758  1.0000
  H   H2283     1.0  0.74926  0.72912  0.94845  1.0000
  H   H2284     1.0  0.70495  0.65382  0.63360  1.0000
  C   C1443     1.0  0.69807  0.92539  0.92872  1.0000
  Fe  Fe293     1.0  0.71042  0.56742  0.50432  1.0000
  H   H2285     1.0  0.61295  0.59113  0.52947  1.0000
  C   C1444     1.0  0.65122  0.95967  0.88364  1.0000
  H   H2286     1.0  0.66428  0.87290  0.87523  1.0000
  S   S585      1.0  0.63681  0.52470  0.64640  1.0000
  Fe  Fe294     1.0  0.60875  0.52667  0.66261  1.0000
  H   H2287     1.0  0.67567  0.60823  0.58269  1.0000
  Fe  Fe295     1.0  0.72745  0.91127  0.74140  1.0000
  C   C1445     1.0  0.70432  0.89925  0.91573  1.0000
  H   H2288     1.0  0.64805  0.71152  0.55396  1.0000
  C   C1446     1.0  0.63828  0.61293  0.75360  1.0000
  H   H2289     1.0  0.62792  0.88021  0.86565  1.0000
  S   S586      1.0  0.70407  0.94483  0.92994  1.0000
  H   H2290     1.0  0.69187  0.97111  0.87075  1.0000
  N   N150      1.0  0.54410  0.95043  0.84122  1.0000
  C   C1447     1.0  0.57585  0.51660  0.64215  1.0000
  H   H2291     1.0  0.56142  0.59890  0.58267  1.0000
  H   H2292     1.0  0.68127  0.79540  0.90362  1.0000
  H   H2293     1.0  0.66415  0.77576  0.88607  1.0000
  C   C1448     1.0  0.66390  0.89938  0.84607  1.0000
  H   H2294     1.0  0.67424  0.88721  0.84394  1.0000
  H   H2295     1.0  0.58047  0.52876  0.63992  1.0000
  H   H2296     1.0  0.58352  0.60447  0.59580  1.0000
  S   S587      1.0  0.72499  0.84168  0.90720  1.0000
  C   C1449     1.0  0.70947  0.91424  0.91749  1.0000
  H   H2297     1.0  0.71312  0.89081  0.90693  1.0000
  H   H2298     1.0  0.67084  0.98401  0.86558  1.0000
  H   H2299     1.0  0.67507  0.68769  0.55722  1.0000
  C   C1450     1.0  0.56893  0.58479  0.58370  1.0000
  C   C1451     1.0  0.66672  0.79521  0.90813  1.0000
  H   H2300     1.0  0.65983  0.90589  0.83315  1.0000
  H   H2301     1.0  0.66123  0.53367  0.61237  1.0000
  H   H2302     1.0  0.55951  0.52720  0.62240  1.0000
  H   H2303     1.0  0.60830  0.61329  0.54782  1.0000
  C   C1452     1.0  0.60744  0.88287  0.95913  1.0000
  H   H2304     1.0  0.65556  0.56837  0.76389  1.0000
  H   H2305     1.0  0.71688  0.67068  0.63191  1.0000
  C   C1453     1.0  0.52238  0.67634  0.62023  1.0000
  C   C1454     1.0  0.62372  0.59741  0.52874  1.0000
  C   C1455     1.0  0.69243  0.59687  0.55249  1.0000
  H   H2306     1.0  0.60128  0.78464  0.77719  1.0000
  C   C1456     1.0  0.73734  0.88876  0.82066  1.0000
  H   H2307     1.0  0.59679  0.58638  0.60877  1.0000
  S   S588      1.0  0.54244  0.49984  0.62223  1.0000
  H   H2308     1.0  0.66100  0.80385  0.91807  1.0000
  H   H2309     1.0  0.63631  0.78741  0.90654  1.0000
  H   H2310     1.0  0.64157  0.62538  0.75455  1.0000
  H   H2311     1.0  0.66971  0.67624  0.54329  1.0000
  H   H2312     1.0  0.59081  0.75368  0.80648  1.0000
  C   C1457     1.0  0.54128  0.69645  0.61825  1.0000
  H   H2313     1.0  0.72688  0.65484  0.67680  1.0000
  H   H2314     1.0  0.58128  0.64920  0.51402  1.0000
  H   H2315     1.0  0.55666  0.97193  0.82483  1.0000
  C   C1458     1.0  0.66571  0.78973  0.88006  1.0000
  H   H2316     1.0  0.68029  0.78943  0.87520  1.0000
  C   C1459     1.0  0.71668  0.97867  0.97466  1.0000
  C   C1460     1.0  0.63825  0.67043  0.56420  1.0000
  C   C1461     1.0  0.64631  0.58075  0.75865  1.0000
  H   H2317     1.0  0.74020  0.81040  0.84244  1.0000
  Fe  Fe296     1.0  0.61209  0.97814  0.84747  1.0000
  H   H2318     1.0  0.62408  0.61306  0.76050  1.0000
  H   H2319     1.0  0.64467  0.97023  0.87365  1.0000
  H   H2320     1.0  0.55997  0.95356  0.81449  1.0000
  C   C1462     1.0  0.72776  0.61475  0.51944  1.0000
  C   C1463     1.0  0.63789  0.94374  0.79967  1.0000
  C   C1464     1.0  0.56959  0.64798  0.51025  1.0000
  H   H2321     1.0  0.72221  0.91731  0.90993  1.0000
  H   H2322     1.0  0.70031  0.95847  0.96453  1.0000
  C   C1465     1.0  0.72980  0.59681  0.51873  1.0000
  H   H2323     1.0  0.65125  0.60776  0.78286  1.0000
  N   N151      1.0  0.65755  0.80145  0.89300  1.0000
  H   H2324     1.0  0.51301  0.68735  0.61330  1.0000
  S   S589      1.0  0.74050  0.55209  0.72470  1.0000
  S   S590      1.0  0.71850  0.79165  0.91078  1.0000
  C   C1466     1.0  0.59092  0.76615  0.81026  1.0000
  H   H2325     1.0  0.74903  0.65086  0.86752  1.0000
  C   C1467     1.0  0.63834  0.80105  0.89953  1.0000
  H   H2326     1.0  0.67282  0.60986  0.75346  1.0000
  C   C1468     1.0  0.69289  0.56768  0.57187  1.0000
  C   C1469     1.0  0.51790  0.69113  0.64434  1.0000
  S   S591      1.0  0.58390  0.97661  0.84853  1.0000
  H   H2327     1.0  0.69303  0.56139  0.56093  1.0000
  C   C1470     1.0  0.73913  0.58346  0.53036  1.0000
  C   C1471     1.0  0.72926  0.84023  0.81879  1.0000
  H   H2328     1.0  0.65952  0.79439  0.86815  1.0000
  H   H2329     1.0  0.67154  0.59784  0.73787  1.0000
  H   H2330     1.0  0.74009  0.60870  0.82766  1.0000
  H   H2331     1.0  0.63165  0.81018  0.90891  1.0000
  H   H2332     1.0  0.55993  0.76814  0.80150  1.0000
  H   H2333     1.0  0.65292  0.69511  0.58404  1.0000
  C   C1472     1.0  0.57150  0.63784  0.49759  1.0000
  H   H2334     1.0  0.63919  0.61375  0.73925  1.0000
  C   C1473     1.0  0.66732  0.67788  0.55723  1.0000
  H   H2335     1.0  0.71620  0.93810  0.96850  1.0000
  H   H2336     1.0  0.63420  0.59506  0.78776  1.0000
  H   H2337     1.0  0.65730  0.58031  0.58034  1.0000
  C   C1474     1.0  0.66473  0.58761  0.56790  1.0000
  H   H2338     1.0  0.65713  0.60163  0.56571  1.0000
  H   H2339     1.0  0.63113  0.80551  0.88836  1.0000
  H   H2340     1.0  0.67377  0.82073  0.87948  1.0000
  C   C1475     1.0  0.65946  0.81989  0.88420  1.0000
  H   H2341     1.0  0.64253  0.70044  0.53980  1.0000
  C   C1476     1.0  0.64424  0.94951  0.82552  1.0000
  N   N152      1.0  0.58017  0.78198  0.80040  1.0000
  H   H2342     1.0  0.60802  0.89387  0.94712  1.0000
  C   C1477     1.0  0.68289  0.59403  0.58433  1.0000
  H   H2343     1.0  0.69668  0.59343  0.58567  1.0000
  H   H2344     1.0  0.67867  0.58582  0.75793  1.0000
  H   H2345     1.0  0.74161  0.65074  0.65626  1.0000
  H   H2346     1.0  0.51034  0.68126  0.65385  1.0000
  H   H2347     1.0  0.65723  0.58383  0.78665  1.0000
  Fe  Fe297     1.0  0.74509  0.57017  0.73991  1.0000
  H   H2348     1.0  0.64663  0.96396  0.89660  1.0000
  H   H2349     1.0  0.69512  0.67701  0.66039  1.0000
  C   C1478     1.0  0.62369  0.86122  0.97987  1.0000
  H   H2350     1.0  0.74344  0.97266  0.94642  1.0000
  H   H2351     1.0  0.64867  0.49967  0.68045  1.0000
  S   S592      1.0  0.72225  0.53783  0.50811  1.0000
  H   H2352     1.0  0.73648  0.80466  0.82365  1.0000
  H   H2353     1.0  0.56032  0.92450  0.84900  1.0000
  H   H2354     1.0  0.68644  0.51601  0.59395  1.0000
  H   H2355     1.0  0.61348  0.86542  0.99145  1.0000
  H   H2356     1.0  0.60181  0.55064  0.50223  1.0000
  H   H2357     1.0  0.52451  0.66277  0.51763  1.0000
  H   H2358     1.0  0.55561  0.94984  0.86296  1.0000
  H   H2359     1.0  0.61895  0.99147  0.92356  1.0000
  H   H2360     1.0  0.72251  0.97277  0.94165  1.0000
  S   S593      1.0  0.59604  0.50268  0.66826  1.0000
  C   C1479     1.0  0.73863  0.95119  0.97900  1.0000
  Fe  Fe298     1.0  0.67338  0.56192  0.50579  1.0000
  C   C1480     1.0  0.58144  0.50188  0.65512  1.0000
  S   S594      1.0  0.74301  0.66507  0.55303  1.0000
  H   H2361     1.0  0.73336  0.63319  0.53185  1.0000
  C   C1481     1.0  0.73271  0.96499  0.94963  1.0000
  S   S595      1.0  0.74646  0.67649  0.58867  1.0000
  S   S596      1.0  0.60437  0.99073  0.87127  1.0000
  H   H2362     1.0  0.61297  0.99579  0.90242  1.0000
  H   H2363     1.0  0.71237  0.50067  0.50329  1.0000
  C   C1482     1.0  0.53950  0.64501  0.49996  1.0000
  H   H2364     1.0  0.52890  0.84877  0.99214  1.0000
  H   H2365     1.0  0.74948  0.58525  0.82926  1.0000
  S   S597      1.0  0.66979  0.99506  0.99239  1.0000
  H   H2366     1.0  0.71021  0.97661  0.98910  1.0000
  H   H2367     1.0  0.50805  0.70246  0.63844  1.0000
  C   C1483     1.0  0.60114  0.56418  0.50412  1.0000
  H   H2368     1.0  0.74941  0.95860  0.97672  1.0000
  H   H2369     1.0  0.95810  0.18473  0.24159  1.0000
  H   H2370     1.0  0.75406  0.06540  0.16129  1.0000
  S   S598      1.0  0.80739  0.22193  0.39426  1.0000
  H   H2371     1.0  0.84449  0.03652  0.24608  1.0000
  C   C1484     1.0  0.96049  0.17392  0.20252  1.0000
  S   S599      1.0  0.79242  0.22578  0.06962  1.0000
  C   C1485     1.0  0.78503  0.08174  0.26103  1.0000
  C   C1486     1.0  0.78532  0.25396  0.38402  1.0000
  H   H2372     1.0  0.88286  0.35500  0.09483  1.0000
  H   H2373     1.0  0.94351  0.15639  0.23386  1.0000
  H   H2374     1.0  0.84676  0.24994  0.08390  1.0000
  Fe  Fe299     1.0  0.95825  0.27920  0.15971  1.0000
  H   H2375     1.0  0.75759  0.40130  0.32477  1.0000
  S   S600      1.0  0.93984  0.26477  0.18233  1.0000
  Fe  Fe300     1.0  0.96043  0.29792  0.12102  1.0000
  S   S601      1.0  0.98478  0.30787  0.11925  1.0000
  S   S602      1.0  0.94739  0.30647  0.09751  1.0000
  H   H2376     1.0  0.78877  0.37212  0.17079  1.0000
  Fe  Fe301     1.0  0.97134  0.31388  0.14599  1.0000
  S   S603      1.0  0.97316  0.33955  0.15113  1.0000
  S   S604      1.0  0.97109  0.26982  0.13413  1.0000
  S   S605      1.0  0.94581  0.30668  0.14637  1.0000
  Fe  Fe302     1.0  0.92953  0.42628  0.04013  1.0000
  S   S606      1.0  0.91863  0.41846  0.06945  1.0000
  S   S607      1.0  0.95375  0.40969  0.02590  1.0000
  Fe  Fe303     1.0  0.90151  0.45994  0.03518  1.0000
  S   S608      1.0  0.88823  0.45532  0.06412  1.0000
  H   H2377     1.0  0.85925  0.15507  0.45632  1.0000
  Fe  Fe304     1.0  0.91616  0.44724  0.06905  1.0000
  S   S609      1.0  0.92133  0.45392  0.09276  1.0000
  Fe  Fe305     1.0  0.89173  0.42688  0.06222  1.0000
  S   S610      1.0  0.86977  0.41233  0.07859  1.0000
  S   S611      1.0  0.92922  0.45454  0.04013  1.0000
  S   S612      1.0  0.90287  0.43207  0.03278  1.0000
  Fe  Fe306     1.0  0.83579  0.31774  0.12293  1.0000
  S   S613      1.0  0.86228  0.31723  0.10407  1.0000
  S   S614      1.0  0.83126  0.32712  0.14838  1.0000
  Fe  Fe307     1.0  0.82211  0.29901  0.10162  1.0000
  S   S615      1.0  0.84774  0.29727  0.08086  1.0000
  S   S616      1.0  0.79839  0.28645  0.10497  1.0000
  Fe  Fe308     1.0  0.86116  0.28949  0.10409  1.0000
  S   S617      1.0  0.88434  0.26723  0.10966  1.0000
  Fe  Fe309     1.0  0.84638  0.32541  0.08279  1.0000
  S   S618      1.0  0.85519  0.34621  0.05886  1.0000
  S   S619      1.0  0.83588  0.28921  0.12472  1.0000
  S   S620      1.0  0.81954  0.32803  0.10174  1.0000
  Fe  Fe310     1.0  0.89319  0.37904  0.20135  1.0000
  S   S621      1.0  0.90340  0.39076  0.17265  1.0000
  S   S622      1.0  0.90994  0.35497  0.21539  1.0000
  Fe  Fe311     1.0  0.85732  0.40396  0.20314  1.0000
  S   S623      1.0  0.86440  0.41807  0.17479  1.0000
  S   S624      1.0  0.82966  0.41277  0.21883  1.0000
  Fe  Fe312     1.0  0.87636  0.39082  0.16911  1.0000
  S   S625      1.0  0.87459  0.38510  0.14345  1.0000
  Fe  Fe313     1.0  0.89088  0.41693  0.18063  1.0000
  S   S626      1.0  0.90406  0.44039  0.16731  1.0000
  S   S627      1.0  0.86720  0.37660  0.19715  1.0000
  S   S628      1.0  0.88272  0.40528  0.20981  1.0000
  C   C1487     1.0  0.75754  0.14873  0.34381  1.0000
  H   H2378     1.0  0.76035  0.23397  0.40315  1.0000
  S   S629      1.0  0.98183  0.43463  0.17822  1.0000
  H   H2379     1.0  0.85467  0.13321  0.46103  1.0000
  H   H2380     1.0  0.78498  0.25642  0.39684  1.0000
  S   S630      1.0  0.98260  0.28727  0.16163  1.0000
  Fe  Fe314     1.0  0.95755  0.17539  0.30591  1.0000
  S   S631      1.0  0.95122  0.20508  0.29607  1.0000
  S   S632      1.0  0.97219  0.15910  0.32770  1.0000
  Fe  Fe315     1.0  0.93702  0.16871  0.28136  1.0000
  S   S633      1.0  0.92895  0.19774  0.26946  1.0000
  S   S634      1.0  0.92998  0.14661  0.27356  1.0000
  Fe  Fe316     1.0  0.95709  0.19892  0.26882  1.0000
  S   S635      1.0  0.97517  0.21167  0.24445  1.0000
  Fe  Fe317     1.0  0.92377  0.20130  0.29748  1.0000
  S   S636      1.0  0.89835  0.21754  0.31035  1.0000
  S   S637      1.0  0.96573  0.16936  0.27856  1.0000
  S   S638      1.0  0.92961  0.17200  0.30954  1.0000
  H   H2381     1.0  0.75435  0.31383  0.26449  1.0000
  S   S639      1.0  0.97403  0.17197  0.44412  1.0000
  C   C1488     1.0  0.96452  0.17929  0.22941  1.0000
  C   C1489     1.0  0.76101  0.39020  0.37223  1.0000
  S   S640      1.0  0.95838  0.14862  0.42522  1.0000
  C   C1490     1.0  0.98362  0.07646  0.46643  1.0000
  Fe  Fe318     1.0  0.97668  0.16789  0.41656  1.0000
  H   H2382     1.0  0.87998  0.10637  0.46286  1.0000
  Fe  Fe319     1.0  0.95813  0.15045  0.45276  1.0000
  H   H2383     1.0  0.85206  0.02679  0.26659  1.0000
  H   H2384     1.0  0.91596  0.38127  0.09244  1.0000
  C   C1491     1.0  0.75316  0.06404  0.14801  1.0000
  Fe  Fe320     1.0  0.83653  0.13158  0.27716  1.0000
  S   S641      1.0  0.82953  0.11903  0.30618  1.0000
  S   S642      1.0  0.84926  0.15557  0.26928  1.0000
  Fe  Fe321     1.0  0.81708  0.10849  0.26644  1.0000
  S   S643      1.0  0.80869  0.09445  0.29468  1.0000
  S   S644      1.0  0.81005  0.10260  0.24309  1.0000
  Fe  Fe322     1.0  0.80243  0.12147  0.30111  1.0000
  S   S645      1.0  0.77524  0.13181  0.31667  1.0000
  Fe  Fe323     1.0  0.83671  0.09342  0.29671  1.0000
  S   S646      1.0  0.85267  0.06837  0.31087  1.0000
  S   S647      1.0  0.80882  0.13577  0.27266  1.0000
  S   S648      1.0  0.84572  0.10575  0.26784  1.0000
  Fe  Fe324     1.0  0.96011  0.03520  0.35596  1.0000
  S   S649      1.0  0.93735  0.05869  0.35228  1.0000
  S   S650      1.0  0.95767  0.00987  0.37625  1.0000
  H   H2385     1.0  0.97998  0.40409  0.11328  1.0000
  S   S651      1.0  0.96754  0.07789  0.32177  1.0000
  Fe  Fe325     1.0  0.95727  0.07456  0.35115  1.0000
  S   S652      1.0  0.94857  0.09987  0.36146  1.0000
  Fe  Fe326     1.0  0.94916  0.06031  0.32316  1.0000
  S   S653      1.0  0.93374  0.07104  0.30130  1.0000
  S   S654      1.0  0.97910  0.05087  0.35748  1.0000
  S   S655      1.0  0.97030  0.03521  0.32683  1.0000
  S   S656      1.0  0.96520  0.01724  0.45045  1.0000
  Fe  Fe327     1.0  0.82221  0.15503  0.41086  1.0000
  S   S657      1.0  0.82845  0.13751  0.43658  1.0000
  Fe  Fe328     1.0  0.83501  0.16416  0.37130  1.0000
  S   S658      1.0  0.85604  0.15690  0.34792  1.0000
  S   S659      1.0  0.83967  0.17373  0.39342  1.0000
  S   S660      1.0  0.81950  0.14387  0.38889  1.0000
  H   H2386     1.0  0.97160  0.05187  0.44442  1.0000
  C   C1492     1.0  0.78623  0.24775  0.35090  1.0000
  H   H2387     1.0  0.89829  0.44411  0.12703  1.0000
  S   S661      1.0  0.75091  0.15290  0.07712  1.0000
  C   C1493     1.0  0.84471  0.23987  0.12851  1.0000
  H   H2388     1.0  0.76105  0.14102  0.26265  1.0000
  C   C1494     1.0  0.77785  0.39112  0.14096  1.0000
  H   H2389     1.0  0.77856  0.40641  0.25516  1.0000
  N   N153      1.0  0.79549  0.37920  0.14216  1.0000
  H   H2390     1.0  0.80877  0.38242  0.28651  1.0000
  H   H2391     1.0  0.88350  0.41646  0.11593  1.0000
  H   H2392     1.0  0.81772  0.36339  0.27632  1.0000
  H   H2393     1.0  0.97935  0.40780  0.07598  1.0000
  H   H2394     1.0  0.78670  0.35923  0.28007  1.0000
  H   H2395     1.0  0.93538  0.20556  0.22559  1.0000
  S   S662      1.0  0.88985  0.05685  0.47780  1.0000
  C   C1495     1.0  0.96528  0.99660  0.40939  1.0000
  Fe  Fe329     1.0  0.93779  0.03251  0.45989  1.0000
  H   H2396     1.0  0.78674  0.24539  0.33801  1.0000
  C   C1496     1.0  0.87225  0.10544  0.41350  1.0000
  C   C1497     1.0  0.85736  0.11944  0.41600  1.0000
  C   C1498     1.0  0.84615  0.11939  0.43286  1.0000
  H   H2397     1.0  0.88105  0.10565  0.40050  1.0000
  H   H2398     1.0  0.85471  0.13040  0.40495  1.0000
  C   C1499     1.0  0.96097  0.01189  0.39644  1.0000
  C   C1500     1.0  0.95892  0.02877  0.39985  1.0000
  C   C1501     1.0  0.96057  0.03038  0.41637  1.0000
  C   C1502     1.0  0.96500  0.01510  0.42926  1.0000
  H   H2399     1.0  0.87686  0.04998  0.38967  1.0000
  H   H2400     1.0  0.88493  0.04198  0.42670  1.0000
  H   H2401     1.0  0.95520  0.04067  0.39012  1.0000
  H   H2402     1.0  0.95826  0.04348  0.41918  1.0000
  H   H2403     1.0  0.97971  0.14271  0.36209  1.0000
  H   H2404     1.0  0.96972  0.42665  0.11531  1.0000
  C   C1503     1.0  0.77429  0.14107  0.33469  1.0000
  H   H2405     1.0  0.80345  0.39769  0.15230  1.0000
  H   H2406     1.0  0.90578  0.00528  0.40222  1.0000
  H   H2407     1.0  0.99939  0.00038  0.38840  1.0000
  C   C1504     1.0  0.78840  0.14858  0.35453  1.0000
  C   C1505     1.0  0.78976  0.14102  0.34003  1.0000
  H   H2408     1.0  0.97110  0.16513  0.23382  1.0000
  H   H2409     1.0  0.77801  0.37820  0.29024  1.0000
  H   H2410     1.0  0.80034  0.14835  0.35875  1.0000
  H   H2411     1.0  0.80272  0.13497  0.33320  1.0000
  C   C1506     1.0  0.87491  0.06968  0.30905  1.0000
  C   C1507     1.0  0.88493  0.05813  0.32127  1.0000
  C   C1508     1.0  0.90293  0.05872  0.31944  1.0000
  C   C1509     1.0  0.91102  0.07051  0.30504  1.0000
  C   C1510     1.0  0.90097  0.08200  0.29289  1.0000
  C   C1511     1.0  0.88291  0.08182  0.29505  1.0000
  H   H2412     1.0  0.87878  0.04869  0.33211  1.0000
  H   H2413     1.0  0.91068  0.04971  0.32876  1.0000
  H   H2414     1.0  0.90724  0.09101  0.28167  1.0000
  H   H2415     1.0  0.87535  0.09078  0.28559  1.0000
  C   C1512     1.0  0.89513  0.14501  0.44881  1.0000
  H   H2416     1.0  0.92239  0.02176  0.41212  1.0000
  H   H2417     1.0  0.89026  0.11585  0.44057  1.0000
  C   C1513     1.0  0.97761  0.10138  0.40327  1.0000
  H   H2418     1.0  0.93404  0.09095  0.46749  1.0000
  C   C1514     1.0  0.97003  0.08462  0.38589  1.0000
  C   C1515     1.0  0.95932  0.10013  0.37798  1.0000
  C   C1516     1.0  0.95766  0.11624  0.38284  1.0000
  C   C1517     1.0  0.96679  0.11685  0.39544  1.0000
  H   H2419     1.0  0.94953  0.12831  0.37665  1.0000
  H   H2420     1.0  0.96565  0.12937  0.39884  1.0000
  C   C1518     1.0  0.90754  0.14920  0.27238  1.0000
  C   C1519     1.0  0.89580  0.16580  0.27179  1.0000
  C   C1520     1.0  0.87796  0.16756  0.27084  1.0000
  C   C1521     1.0  0.87165  0.15268  0.27084  1.0000
  C   C1522     1.0  0.88333  0.13600  0.27167  1.0000
  C   C1523     1.0  0.90132  0.13435  0.27212  1.0000
  H   H2421     1.0  0.90050  0.17736  0.27177  1.0000
  H   H2422     1.0  0.86907  0.18053  0.27008  1.0000
  H   H2423     1.0  0.87862  0.12446  0.27157  1.0000
  H   H2424     1.0  0.91042  0.12150  0.27249  1.0000
  C   C1524     1.0  0.97341  0.16844  0.34497  1.0000
  C   C1525     1.0  0.97735  0.15692  0.36075  1.0000
  C   C1526     1.0  0.97776  0.16363  0.37514  1.0000
  C   C1527     1.0  0.97425  0.18200  0.37393  1.0000
  C   C1528     1.0  0.97054  0.19367  0.35807  1.0000
  C   C1529     1.0  0.97016  0.18690  0.34357  1.0000
  H   H2425     1.0  0.97151  0.08745  0.46613  1.0000
  H   H2426     1.0  0.75312  0.07747  0.13906  1.0000
  H   H2427     1.0  0.96793  0.20793  0.35701  1.0000
  H   H2428     1.0  0.96738  0.19594  0.33134  1.0000
  C   C1530     1.0  0.88382  0.20280  0.31911  1.0000
  C   C1531     1.0  0.88641  0.18829  0.31131  1.0000
  C   C1532     1.0  0.87743  0.17443  0.31999  1.0000
  C   C1533     1.0  0.86577  0.17511  0.33647  1.0000
  C   C1534     1.0  0.86216  0.19021  0.34373  1.0000
  C   C1535     1.0  0.87119  0.20413  0.33499  1.0000
  H   H2429     1.0  0.89571  0.18758  0.29873  1.0000
  H   H2430     1.0  0.87968  0.16314  0.31399  1.0000
  H   H2431     1.0  0.85278  0.19101  0.35626  1.0000
  H   H2432     1.0  0.86897  0.21551  0.34090  1.0000
  C   C1536     1.0  0.81318  0.40995  0.20948  1.0000
  C   C1537     1.0  0.79519  0.41714  0.21587  1.0000
  H   H2433     1.0  0.76321  0.22549  0.37403  1.0000
  C   C1538     1.0  0.93459  0.11691  0.47029  1.0000
  H   H2434     1.0  0.90894  0.01960  0.38056  1.0000
  C   C1539     1.0  0.81768  0.39948  0.19671  1.0000
  H   H2435     1.0  0.79165  0.42561  0.22539  1.0000
  C   C1540     1.0  0.79014  0.40230  0.26182  1.0000
  C   C1541     1.0  0.75125  0.39788  0.31605  1.0000
  H   H2436     1.0  0.83153  0.39387  0.19172  1.0000
  C   C1542     1.0  0.92534  0.43900  0.17105  1.0000
  C   C1543     1.0  0.93549  0.45151  0.16041  1.0000
  C   C1544     1.0  0.95288  0.45020  0.16243  1.0000
  C   C1545     1.0  0.96002  0.43666  0.17549  1.0000
  C   C1546     1.0  0.94976  0.42430  0.18633  1.0000
  C   C1547     1.0  0.93254  0.42532  0.18397  1.0000
  H   H2437     1.0  0.92994  0.46219  0.15047  1.0000
  H   H2438     1.0  0.96065  0.45984  0.15407  1.0000
  H   H2439     1.0  0.95522  0.41381  0.19647  1.0000
  H   H2440     1.0  0.92479  0.41563  0.19227  1.0000
  C   C1548     1.0  0.84336  0.34315  0.14708  1.0000
  C   C1549     1.0  0.84415  0.34758  0.16269  1.0000
  C   C1550     1.0  0.85364  0.36050  0.16180  1.0000
  C   C1551     1.0  0.86225  0.36912  0.14528  1.0000
  C   C1552     1.0  0.86110  0.36492  0.12972  1.0000
  C   C1553     1.0  0.85182  0.35190  0.13058  1.0000
  H   H2441     1.0  0.83742  0.34102  0.17551  1.0000
  H   H2442     1.0  0.85420  0.36382  0.17388  1.0000
  H   H2443     1.0  0.86722  0.37198  0.11696  1.0000
  H   H2444     1.0  0.85087  0.34896  0.11846  1.0000
  C   C1554     1.0  0.94262  0.45739  0.09176  1.0000
  C   C1555     1.0  0.94574  0.46204  0.10628  1.0000
  C   C1556     1.0  0.96270  0.46450  0.10606  1.0000
  C   C1557     1.0  0.97648  0.46285  0.09104  1.0000
  C   C1558     1.0  0.97332  0.45831  0.07645  1.0000
  C   C1559     1.0  0.95650  0.45536  0.07690  1.0000
  H   H2445     1.0  0.93495  0.46393  0.11769  1.0000
  H   H2446     1.0  0.96496  0.46818  0.11729  1.0000
  H   H2447     1.0  0.80321  0.37980  0.11397  1.0000
  H   H2448     1.0  0.95422  0.45175  0.06565  1.0000
  C   C1560     1.0  0.86517  0.39473  0.07222  1.0000
  C   C1561     1.0  0.85339  0.38457  0.08442  1.0000
  C   C1562     1.0  0.85024  0.36970  0.08036  1.0000
  C   C1563     1.0  0.85847  0.36521  0.06385  1.0000
  C   C1564     1.0  0.86976  0.37576  0.05137  1.0000
  C   C1565     1.0  0.87332  0.39036  0.05563  1.0000
  H   H2449     1.0  0.84682  0.38810  0.09713  1.0000
  H   H2450     1.0  0.84130  0.36180  0.08989  1.0000
  H   H2451     1.0  0.87605  0.37239  0.03852  1.0000
  H   H2452     1.0  0.88228  0.39824  0.04608  1.0000
  C   C1566     1.0  0.97071  0.40320  0.03804  1.0000
  C   C1567     1.0  0.98676  0.39175  0.03223  1.0000
  C   C1568     1.0  0.96818  0.40917  0.05370  1.0000
  C   C1569     1.0  0.81232  0.37804  0.27363  1.0000
  H   H2453     1.0  0.95608  0.41842  0.05800  1.0000
  C   C1570     1.0  0.94984  0.25082  0.19983  1.0000
  C   C1571     1.0  0.93901  0.24520  0.21642  1.0000
  C   C1572     1.0  0.94670  0.23364  0.23040  1.0000
  C   C1573     1.0  0.96523  0.22733  0.22772  1.0000
  C   C1574     1.0  0.97606  0.23305  0.21116  1.0000
  C   C1575     1.0  0.96840  0.24482  0.19726  1.0000
  H   H2454     1.0  0.92466  0.24995  0.21854  1.0000
  H   H2455     1.0  0.93828  0.22964  0.24324  1.0000
  C   C1576     1.0  0.86479  0.14143  0.45362  1.0000
  H   H2456     1.0  0.97685  0.24905  0.18449  1.0000
  C   C1577     1.0  0.95745  0.34288  0.17068  1.0000
  C   C1578     1.0  0.94827  0.32947  0.18082  1.0000
  C   C1579     1.0  0.93433  0.33284  0.19536  1.0000
  C   C1580     1.0  0.92941  0.34970  0.19956  1.0000
  C   C1581     1.0  0.93908  0.36286  0.18986  1.0000
  C   C1582     1.0  0.95333  0.35931  0.17561  1.0000
  H   H2457     1.0  0.95167  0.31658  0.17736  1.0000
  H   H2458     1.0  0.92688  0.32265  0.20290  1.0000
  H   H2459     1.0  0.93540  0.37583  0.19326  1.0000
  H   H2460     1.0  0.96082  0.36942  0.16818  1.0000
  C   C1583     1.0  0.90283  0.27700  0.10545  1.0000
  C   C1584     1.0  0.90499  0.29158  0.09124  1.0000
  C   C1585     1.0  0.91912  0.30016  0.08849  1.0000
  C   C1586     1.0  0.93075  0.29458  0.10030  1.0000
  C   C1587     1.0  0.92857  0.28002  0.11455  1.0000
  C   C1588     1.0  0.91479  0.27104  0.11696  1.0000
  H   H2461     1.0  0.89588  0.29612  0.08220  1.0000
  H   H2462     1.0  0.92094  0.31114  0.07723  1.0000
  H   H2463     1.0  0.93750  0.27560  0.12370  1.0000
  H   H2464     1.0  0.91315  0.25978  0.12797  1.0000
  C   C1589     1.0  0.80207  0.37670  0.24820  1.0000
  H   H2465     1.0  0.87593  0.31683  0.13725  1.0000
  S   S663      1.0  0.76937  0.16588  0.38170  1.0000
  C   C1590     1.0  0.79151  0.09311  0.24525  1.0000
  C   C1591     1.0  0.78335  0.09675  0.23067  1.0000
  H   H2466     1.0  0.98869  0.08733  0.34912  1.0000
  H   H2467     1.0  0.75368  0.28677  0.07182  1.0000
  H   H2468     1.0  0.79125  0.07869  0.27231  1.0000
  H   H2469     1.0  0.78832  0.10545  0.21836  1.0000
  H   H2470     1.0  0.86693  0.06518  0.23247  1.0000
  C   C1592     1.0  0.79463  0.24191  0.08008  1.0000
  C   C1593     1.0  0.78321  0.24520  0.09610  1.0000
  C   C1594     1.0  0.78451  0.25894  0.10344  1.0000
  C   C1595     1.0  0.79752  0.26927  0.09512  1.0000
  C   C1596     1.0  0.80920  0.26578  0.07925  1.0000
  C   C1597     1.0  0.80776  0.25216  0.07179  1.0000
  H   H2471     1.0  0.83465  0.26301  0.10024  1.0000
  Fe  Fe330     1.0  0.98767  0.05275  0.32811  1.0000
  H   H2472     1.0  0.81908  0.27384  0.07252  1.0000
  H   H2473     1.0  0.81662  0.24975  0.05935  1.0000
  C   C1598     1.0  0.93752  0.17075  0.22940  1.0000
  H   H2474     1.0  0.77122  0.21170  0.41152  1.0000
  N   N154      1.0  0.95131  0.18097  0.21873  1.0000
  H   H2475     1.0  0.80495  0.22337  0.35820  1.0000
  H   H2476     1.0  0.82338  0.38454  0.26484  1.0000
  H   H2477     1.0  0.88913  0.06180  0.39677  1.0000
  C   C1599     1.0  0.88652  0.30472  0.14001  1.0000
  C   C1600     1.0  0.88903  0.11555  0.45490  1.0000
  H   H2478     1.0  0.79093  0.38092  0.24094  1.0000
  C   C1601     1.0  0.78232  0.37400  0.27723  1.0000
  N   N155      1.0  0.98032  0.05997  0.46387  1.0000
  C   C1602     1.0  0.98139  0.40323  0.06385  1.0000
  H   H2479     1.0  0.93296  0.20188  0.20519  1.0000
  H   H2480     1.0  0.89522  0.31324  0.17613  1.0000
  H   H2481     1.0  0.78559  0.40730  0.27440  1.0000
  H   H2482     1.0  0.80635  0.36193  0.25031  1.0000
  H   H2483     1.0  0.75196  0.16025  0.12219  1.0000
  S   S664      1.0  0.88983  0.48210  0.01453  1.0000
  H   H2484     1.0  0.98384  0.45712  0.06474  1.0000
  N   N156      1.0  0.85075  0.05499  0.25767  1.0000
  N   N157      1.0  0.90752  0.11685  0.32960  1.0000
  C   C1603     1.0  0.92577  0.11546  0.31837  1.0000
  C   C1604     1.0  0.90433  0.13030  0.34040  1.0000
  C   C1605     1.0  0.90571  0.09938  0.34152  1.0000
  C   C1606     1.0  0.89430  0.12222  0.31813  1.0000
  H   H2485     1.0  0.92843  0.10599  0.30943  1.0000
  H   H2486     1.0  0.93612  0.11077  0.32660  1.0000
  H   H2487     1.0  0.92782  0.12856  0.30969  1.0000
  H   H2488     1.0  0.90533  0.14369  0.33178  1.0000
  H   H2489     1.0  0.89072  0.13156  0.34919  1.0000
  H   H2490     1.0  0.91427  0.12667  0.34904  1.0000
  H   H2491     1.0  0.89190  0.09981  0.34973  1.0000
  H   H2492     1.0  0.91507  0.09528  0.35080  1.0000
  H   H2493     1.0  0.90873  0.08881  0.33374  1.0000
  H   H2494     1.0  0.88033  0.12398  0.32611  1.0000
  H   H2495     1.0  0.89610  0.11213  0.31009  1.0000
  H   H2496     1.0  0.89572  0.13507  0.30862  1.0000
  H   H2497     1.0  0.89921  0.30697  0.13047  1.0000
  H   H2498     1.0  0.81353  0.38236  0.23920  1.0000
  H   H2499     1.0  0.90592  0.31902  0.15317  1.0000
  N   N158      1.0  0.79671  0.38275  0.26522  1.0000
  H   H2500     1.0  0.88270  0.29353  0.13695  1.0000
  H   H2501     1.0  0.77029  0.37750  0.27130  1.0000
  H   H2502     1.0  0.96091  0.41585  0.10357  1.0000
  H   H2503     1.0  0.93096  0.33830  0.07728  1.0000
  S   S665      1.0  0.98161  0.12786  0.45642  1.0000
  C   C1607     1.0  0.89326  0.31599  0.16224  1.0000
  H   H2504     1.0  0.80081  0.40934  0.25307  1.0000
  Fe  Fe331     1.0  0.99780  0.14915  0.44582  1.0000
  C   C1608     1.0  0.94274  0.19997  0.21362  1.0000
  H   H2505     1.0  0.76242  0.09235  0.22062  1.0000
  H   H2506     1.0  0.81076  0.39946  0.12867  1.0000
  H   H2507     1.0  0.92736  0.17153  0.22179  1.0000
  H   H2508     1.0  0.97095  0.18143  0.19421  1.0000
  C   C1609     1.0  0.80839  0.38985  0.14165  1.0000
  C   C1610     1.0  0.79378  0.36576  0.15907  1.0000
  H   H2509     1.0  0.99743  0.99730  0.35162  1.0000
  H   H2510     1.0  0.76521  0.28619  0.03208  1.0000
  H   H2511     1.0  0.87287  0.02993  0.41964  1.0000
  S   S666      1.0  0.92590  0.02888  0.48902  1.0000
  H   H2512     1.0  0.91471  0.49573  0.02608  1.0000
  C   C1611     1.0  0.92927  0.12901  0.48160  1.0000
  N   N159      1.0  0.82166  0.18282  0.30961  1.0000
  C   C1612     1.0  0.82198  0.18925  0.29035  1.0000
  C   C1613     1.0  0.83170  0.16415  0.31294  1.0000
  C   C1614     1.0  0.80294  0.18371  0.31961  1.0000
  C   C1615     1.0  0.83005  0.19410  0.31554  1.0000
  H   H2513     1.0  0.81444  0.20324  0.28732  1.0000
  H   H2514     1.0  0.81606  0.18080  0.28535  1.0000
  H   H2515     1.0  0.83594  0.18873  0.28247  1.0000
  H   H2516     1.0  0.83095  0.15849  0.32743  1.0000
  H   H2517     1.0  0.82630  0.15551  0.30774  1.0000
  H   H2518     1.0  0.84610  0.16302  0.30632  1.0000
  H   H2519     1.0  0.80225  0.17908  0.33420  1.0000
  H   H2520     1.0  0.79634  0.17506  0.31564  1.0000
  H   H2521     1.0  0.79486  0.19754  0.31733  1.0000
  H   H2522     1.0  0.83048  0.18928  0.32989  1.0000
  H   H2523     1.0  0.82264  0.20822  0.31365  1.0000
  H   H2524     1.0  0.84412  0.19391  0.30805  1.0000
  N   N160      1.0  0.91601  0.18254  0.36246  1.0000
  C   C1616     1.0  0.90061  0.19467  0.37118  1.0000
  C   C1617     1.0  0.92795  0.17300  0.37498  1.0000
  C   C1618     1.0  0.92600  0.19307  0.34657  1.0000
  C   C1619     1.0  0.90951  0.16947  0.35698  1.0000
  H   H2525     1.0  0.89150  0.20219  0.36193  1.0000
  H   H2526     1.0  0.90509  0.20468  0.37550  1.0000
  H   H2527     1.0  0.89257  0.18723  0.38313  1.0000
  H   H2528     1.0  0.93952  0.16355  0.36881  1.0000
  H   H2529     1.0  0.93356  0.18240  0.37901  1.0000
  H   H2530     1.0  0.92083  0.16512  0.38729  1.0000
  H   H2531     1.0  0.93728  0.18432  0.33923  1.0000
  H   H2532     1.0  0.93164  0.20270  0.35019  1.0000
  H   H2533     1.0  0.91730  0.20091  0.33709  1.0000
  H   H2534     1.0  0.90143  0.16162  0.36854  1.0000
  H   H2535     1.0  0.92087  0.15989  0.35070  1.0000
  H   H2536     1.0  0.90093  0.17623  0.34707  1.0000
  N   N161      1.0  0.95480  0.40715  0.13208  1.0000
  C   C1620     1.0  0.93727  0.41971  0.13357  1.0000
  C   C1621     1.0  0.95232  0.38937  0.13213  1.0000
  C   C1622     1.0  0.96262  0.40594  0.14736  1.0000
  C   C1623     1.0  0.96691  0.41367  0.11531  1.0000
  H   H2537     1.0  0.93856  0.43312  0.13404  1.0000
  H   H2538     1.0  0.92773  0.41513  0.14598  1.0000
  H   H2539     1.0  0.93110  0.42140  0.12206  1.0000
  H   H2540     1.0  0.94285  0.38433  0.14443  1.0000
  H   H2541     1.0  0.94685  0.38976  0.12052  1.0000
  C   C1624     1.0  0.93044  0.09994  0.47646  1.0000
  C   C1625     1.0  0.00016  0.33911  0.04325  1.0000
  H   H2542     1.0  0.75828  0.18611  0.41145  1.0000
  H   H2543     1.0  0.96514  0.41904  0.14740  1.0000
  H   H2544     1.0  0.99453  0.08138  0.45565  1.0000
  H   H2545     1.0  0.82987  0.22647  0.09890  1.0000
  N   N162      1.0  0.88851  0.30069  0.15868  1.0000
  H   H2546     1.0  0.91595  0.28665  0.15302  1.0000
  H   H2547     1.0  0.86037  0.30922  0.16884  1.0000
  H   H2548     1.0  0.88337  0.46511  0.10437  1.0000
  S   S667      1.0  0.93288  0.15077  0.47360  1.0000
  H   H2549     1.0  0.90244  0.10945  0.45811  1.0000
  N   N163      1.0  0.88222  0.13357  0.45886  1.0000
  C   C1626     1.0  0.87146  0.29740  0.17079  1.0000
  C   C1627     1.0  0.78618  0.40266  0.19748  1.0000
  S   S668      1.0  0.81095  0.18573  0.36691  1.0000
  S   S669      1.0  0.76819  0.18416  0.09596  1.0000
  H   H2550     1.0  0.88263  0.32828  0.16041  1.0000
  Fe  Fe332     1.0  0.79572  0.16636  0.38656  1.0000
  C   C1628     1.0  0.76227  0.07784  0.24764  1.0000
  H   H2551     1.0  0.89460  0.35740  0.07205  1.0000
  S   S670      1.0  0.99758  0.46691  0.08982  1.0000
  C   C1629     1.0  0.90278  0.28463  0.16171  1.0000
  H   H2552     1.0  0.89982  0.27286  0.15892  1.0000
  H   H2553     1.0  0.86744  0.28599  0.16841  1.0000
  H   H2554     1.0  0.82158  0.38120  0.14358  1.0000
  S   S671      1.0  0.76201  0.27821  0.34165  1.0000
  N   N164      1.0  0.89821  0.03330  0.40223  1.0000
  H   H2555     1.0  0.81728  0.23899  0.11549  1.0000
  H   H2556     1.0  0.89043  0.15871  0.45149  1.0000
  C   C1630     1.0  0.84966  0.10518  0.44711  1.0000
  C   C1631     1.0  0.76867  0.08932  0.23191  1.0000
  N   N165      1.0  0.84579  0.23584  0.11114  1.0000
  H   H2557     1.0  0.99314  0.34662  0.07561  1.0000
  H   H2558     1.0  0.87248  0.29433  0.18501  1.0000
  H   H2559     1.0  0.99006  0.11618  0.35329  1.0000
  C   C1632     1.0  0.99664  0.04574  0.46436  1.0000
  H   H2560     1.0  0.76786  0.41879  0.21522  1.0000
  H   H2561     1.0  0.84347  0.06874  0.23258  1.0000
  H   H2562     1.0  0.98888  0.30789  0.08045  1.0000
  C   C1633     1.0  0.76426  0.12887  0.27302  1.0000
  S   S672      1.0  0.97410  0.19024  0.39240  1.0000
  H   H2563     1.0  0.77862  0.40156  0.12846  1.0000
  H   H2564     1.0  0.82903  0.21652  0.12212  1.0000
  Fe  Fe333     1.0  0.90132  0.02745  0.48129  1.0000
  S   S673      1.0  0.89526  0.07468  0.42464  1.0000
  H   H2565     1.0  0.76758  0.25349  0.04308  1.0000
  C   C1634     1.0  0.84649  0.25225  0.09715  1.0000
  H   H2566     1.0  0.95280  0.20823  0.20603  1.0000
  H   H2567     1.0  0.90454  0.28109  0.17573  1.0000
  H   H2568     1.0  0.86338  0.21898  0.09383  1.0000
  H   H2569     1.0  0.97585  0.11510  0.32970  1.0000
  H   H2570     1.0  0.95301  0.06445  0.47831  1.0000
  H   H2571     1.0  0.85640  0.24531  0.12822  1.0000
  H   H2572     1.0  0.83242  0.25003  0.13212  1.0000
  H   H2573     1.0  0.92524  0.03605  0.39036  1.0000
  H   H2574     1.0  0.86158  0.46392  0.10285  1.0000
  C   C1635     1.0  0.82983  0.22912  0.11196  1.0000
  H   H2575     1.0  0.83000  0.05044  0.28112  1.0000
  C   C1636     1.0  0.83227  0.05963  0.26784  1.0000
  Fe  Fe334     1.0  0.90475  0.05822  0.44940  1.0000
  C   C1637     1.0  0.76097  0.21221  0.38207  1.0000
  H   H2576     1.0  0.79265  0.36167  0.12712  1.0000
  H   H2577     1.0  0.86444  0.47058  0.12167  1.0000
  H   H2578     1.0  0.86214  0.20962  0.11721  1.0000
  H   H2579     1.0  0.76661  0.27849  0.37664  1.0000
  C   C1638     1.0  0.86215  0.22223  0.10692  1.0000
  Fe  Fe335     1.0  0.98336  0.12777  0.42788  1.0000
  H   H2580     1.0  0.87438  0.22701  0.10619  1.0000
  H   H2581     1.0  0.86591  0.14243  0.43917  1.0000
  C   C1639     1.0  0.87992  0.13226  0.47816  1.0000
  S   S674      1.0  0.75527  0.20745  0.05970  1.0000
  C   C1640     1.0  0.75307  0.29186  0.29713  1.0000
  C   C1641     1.0  0.75313  0.10564  0.29651  1.0000
  H   H2582     1.0  0.94147  0.12083  0.45663  1.0000
  H   H2583     1.0  0.91554  0.04549  0.40967  1.0000
  H   H2584     1.0  0.97109  0.07207  0.38257  1.0000
  H   H2585     1.0  0.96268  0.04173  0.47657  1.0000
  H   H2586     1.0  0.86777  0.03308  0.24634  1.0000
  H   H2587     1.0  0.76575  0.06510  0.27434  1.0000
  H   H2588     1.0  0.98082  0.15452  0.38721  1.0000
  S   S675      1.0  0.98915  0.10174  0.41920  1.0000
  H   H2589     1.0  0.90344  0.38394  0.07579  1.0000
  C   C1642     1.0  0.78171  0.41334  0.21004  1.0000
  H   H2590     1.0  0.81522  0.36113  0.12744  1.0000
  H   H2591     1.0  0.89890  0.33654  0.08735  1.0000
  S   S676      1.0  0.91405  0.02858  0.45242  1.0000
  H   H2592     1.0  0.76805  0.38081  0.38253  1.0000
  Fe  Fe336     1.0  0.81383  0.19356  0.39079  1.0000
  H   H2593     1.0  0.87011  0.12388  0.48617  1.0000
  H   H2594     1.0  0.77094  0.13239  0.28184  1.0000
  C   C1643     1.0  0.79644  0.23519  0.36238  1.0000
  H   H2595     1.0  0.97561  0.39619  0.14706  1.0000
  H   H2596     1.0  0.77542  0.26152  0.11573  1.0000
  C   C1644     1.0  0.85318  0.06823  0.24065  1.0000
  C   C1645     1.0  0.87052  0.46139  0.11229  1.0000
  S   S677      1.0  0.79676  0.17562  0.41035  1.0000
  H   H2597     1.0  0.76779  0.38353  0.14129  1.0000
  H   H2598     1.0  0.84668  0.44037  0.12333  1.0000
  C   C1646     1.0  0.77528  0.26330  0.35607  1.0000
  C   C1647     1.0  0.87595  0.09142  0.42785  1.0000
  C   C1648     1.0  0.89605  0.35124  0.08599  1.0000
  H   H2599     1.0  0.92615  0.36018  0.06367  1.0000
  C   C1649     1.0  0.90543  0.37647  0.08933  1.0000
  C   C1650     1.0  0.88650  0.03072  0.42019  1.0000
  H   H2600     1.0  0.77261  0.39804  0.15236  1.0000
  N   N166      1.0  0.87345  0.44256  0.12197  1.0000
  H   H2601     1.0  0.85784  0.42382  0.13915  1.0000
  N   N167      1.0  0.91030  0.35702  0.09038  1.0000
  C   C1651     1.0  0.92724  0.35275  0.07747  1.0000
  Fe  Fe337     1.0  0.91580  0.05844  0.48281  1.0000
  H   H2602     1.0  0.89897  0.05246  0.37735  1.0000
  H   H2603     1.0  0.84970  0.44628  0.14249  1.0000
  H   H2604     1.0  0.82227  0.05928  0.26050  1.0000
  H   H2605     1.0  0.89276  0.38038  0.09888  1.0000
  H   H2606     1.0  0.93849  0.35623  0.08077  1.0000
  H   H2607     1.0  0.86185  0.04547  0.28127  1.0000
  H   H2608     1.0  0.90000  0.35084  0.11866  1.0000
  C   C1652     1.0  0.85612  0.43812  0.13220  1.0000
  H   H2609     1.0  0.91615  0.33294  0.10986  1.0000
  C   C1653     1.0  0.91252  0.34766  0.10862  1.0000
  H   H2610     1.0  0.92332  0.35153  0.11232  1.0000
  C   C1654     1.0  0.85392  0.03704  0.25400  1.0000
  C   C1655     1.0  0.91610  0.03419  0.40368  1.0000
  C   C1656     1.0  0.77059  0.07402  0.26215  1.0000
  H   H2611     1.0  0.96872  0.05134  0.49159  1.0000
  H   H2612     1.0  0.77215  0.27137  0.06183  1.0000
  C   C1657     1.0  0.88170  0.43081  0.10915  1.0000
  H   H2613     1.0  0.84090  0.10503  0.46012  1.0000
  H   H2614     1.0  0.76554  0.05478  0.14288  1.0000
  H   H2615     1.0  0.99455  0.03326  0.46210  1.0000
  H   H2616     1.0  0.77321  0.23730  0.10277  1.0000
  C   C1658     1.0  0.80420  0.39581  0.19073  1.0000
  C   C1659     1.0  0.89044  0.05010  0.39098  1.0000
  H   H2617     1.0  0.76324  0.28005  0.29349  1.0000
  H   H2618     1.0  0.80683  0.35676  0.16070  1.0000
  H   H2619     1.0  0.89505  0.43330  0.10158  1.0000
  H   H2620     1.0  0.89275  0.12607  0.48258  1.0000
  C   C1660     1.0  0.86449  0.09116  0.44458  1.0000
  H   H2621     1.0  0.85085  0.08195  0.24293  1.0000
  Fe  Fe338     1.0  0.76880  0.21184  0.07937  1.0000
  H   H2622     1.0  0.95349  0.40181  0.16028  1.0000
  H   H2623     1.0  0.87320  0.43299  0.09943  1.0000
  H   H2624     1.0  0.98495  0.31079  0.05867  1.0000
  H   H2625     1.0  0.89732  0.14612  0.43420  1.0000
  H   H2626     1.0  0.86699  0.08018  0.45558  1.0000
  H   H2627     1.0  0.85864  0.25740  0.09582  1.0000
  H   H2628     1.0  0.78440  0.35726  0.15981  1.0000
  C   C1661     1.0  0.86352  0.05508  0.26819  1.0000
  H   H2629     1.0  0.95092  0.17495  0.19412  1.0000
  H   H2630     1.0  0.96517  0.37933  0.13162  1.0000
  H   H2631     1.0  0.97516  0.18686  0.22184  1.0000
  H   H2632     1.0  0.87764  0.05162  0.26099  1.0000
  C   C1662     1.0  0.97928  0.08527  0.39836  1.0000
  S   S678      1.0  0.76919  0.39737  0.19078  1.0000
  H   H2633     1.0  0.93027  0.17586  0.24167  1.0000
  H   H2634     1.0  0.75524  0.20625  0.37427  1.0000
  C   C1663     1.0  0.80188  0.37010  0.12699  1.0000
  H   H2635     1.0  0.84439  0.22776  0.13941  1.0000
  H   H2636     1.0  0.87929  0.44784  0.14467  1.0000
  H   H2637     1.0  0.00065  0.20905  0.40573  1.0000
  H   H2638     1.0  0.92638  0.46968  0.99865  1.0000
  H   H2639     1.0  0.77428  0.20356  0.38347  1.0000
  H   H2640     1.0  0.98742  0.07437  0.47942  1.0000
  C   C1664     1.0  0.77489  0.26645  0.37263  1.0000
  H   H2641     1.0  0.88895  0.42564  0.14091  1.0000
  C   C1665     1.0  0.88548  0.43989  0.13418  1.0000
  S   S679      1.0  0.92987  0.06229  0.45411  1.0000
  C   C1666     1.0  0.77157  0.15618  0.36366  1.0000
  H   H2642     1.0  0.80779  0.38714  0.18143  1.0000
  H   H2643     1.0  0.76015  0.30270  0.29562  1.0000
  S   S680      1.0  0.99499  0.47564  0.13826  1.0000
  C   C1667     1.0  0.97552  0.06350  0.44638  1.0000
  H   H2644     1.0  0.86152  0.06839  0.27127  1.0000
  H   H2645     1.0  0.82930  0.07335  0.27014  1.0000
  C   C1668     1.0  0.79582  0.23813  0.37908  1.0000
  H   H2646     1.0  0.96716  0.15962  0.20595  1.0000
  H   H2647     1.0  0.99041  0.22828  0.20903  1.0000
  C   C1669     1.0  0.89993  0.01815  0.39403  1.0000
  H   H2648     1.0  0.89208  0.01827  0.42911  1.0000
  H   H2649     1.0  0.99692  0.17505  0.47381  1.0000
  H   H2650     1.0  0.90837  0.13960  0.45260  1.0000
  H   H2651     1.0  0.76762  0.40182  0.36679  1.0000
  Fe  Fe339     1.0  0.99433  0.28062  0.13471  1.0000
  H   H2652     1.0  0.98772  0.07324  0.40419  1.0000
  H   H2653     1.0  0.98929  0.10644  0.31054  1.0000
  H   H2654     1.0  0.98701  0.06639  0.43533  1.0000
  H   H2655     1.0  0.76313  0.38323  0.36120  1.0000
  C   C1670     1.0  0.75794  0.22040  0.40994  1.0000
  Fe  Fe340     1.0  0.75161  0.18110  0.07827  1.0000
  C   C1671     1.0  0.75301  0.25644  0.04910  1.0000
  C   C1672     1.0  0.75749  0.27385  0.06748  1.0000
  C   C1673     1.0  0.96758  0.99819  0.42571  1.0000
  H   H2656     1.0  0.99039  0.12785  0.31303  1.0000
  H   H2657     1.0  0.96428  0.07525  0.44475  1.0000
  H   H2658     1.0  0.88672  0.01707  0.39254  1.0000
  C   C1674     1.0  0.99730  0.39155  0.05821  1.0000
  H   H2659     1.0  0.75800  0.29096  0.26275  1.0000
  C   C1675     1.0  0.98921  0.11406  0.32042  1.0000
  H   H2660     1.0  0.97470  0.32794  0.07121  1.0000
  H   H2661     1.0  0.77422  0.11878  0.26614  1.0000
  H   H2662     1.0  0.98825  0.35006  0.04556  1.0000
  H   H2663     1.0  0.98885  0.38732  0.01998  1.0000
  H   H2664     1.0  0.87519  0.14562  0.48164  1.0000
  H   H2665     1.0  0.75288  0.42233  0.29643  1.0000
  C   C1676     1.0  0.75618  0.15626  0.35824  1.0000
  H   H2666     1.0  0.99818  0.33246  0.03349  1.0000
  H   H2667     1.0  0.00058  0.04250  0.47743  1.0000
  C   C1677     1.0  0.98717  0.31791  0.06790  1.0000
  H   H2668     1.0  0.75995  0.10816  0.30588  1.0000
  H   H2669     1.0  0.75468  0.12776  0.13087  1.0000
  H   H2670     1.0  0.75509  0.26320  0.07962  1.0000
  H   H2671     1.0  0.76246  0.09503  0.28994  1.0000
  C   C1678     1.0  0.96555  0.05410  0.47821  1.0000
  C   C1679     1.0  0.00012  0.38605  0.04225  1.0000
  H   H2672     1.0  0.00024  0.31251  0.16797  1.0000
  Fe  Fe341     1.0  0.00057  0.44778  0.15482  1.0000
  C   C1680     1.0  0.91685  0.10671  0.50557  1.0000
  H   H2673     1.0  0.95465  0.47256  0.94451  1.0000
  H   H2674     1.0  0.94888  0.45728  0.99368  1.0000
  H   H2675     1.0  0.99976  0.19042  0.49599  1.0000
  C   C1681     1.0  0.92165  0.09479  0.49416  1.0000
  S   S681      1.0  0.91640  0.07363  0.50250  1.0000
  H   H2676     1.0  0.92327  0.48897  0.95121  1.0000
  H   H2677     1.0  0.91108  0.48715  0.97394  1.0000
  H   H2678     1.0  0.96562  0.45977  0.96235  1.0000
  C   C1682     1.0  0.95250  0.46416  0.95826  1.0000
  C   C1683     1.0  0.90983  0.00505  0.53652  1.0000
  H   H2679     1.0  0.93101  0.45064  0.98895  1.0000
  C   C1684     1.0  0.99660  0.05466  0.67075  1.0000
  S   S682      1.0  0.88519  0.00740  0.49841  1.0000
  N   N168      1.0  0.93883  0.47408  0.97080  1.0000
  H   H2680     1.0  0.99200  0.04835  0.68495  1.0000
  C   C1685     1.0  0.92037  0.12390  0.49922  1.0000
  H   H2681     1.0  0.91011  0.10276  0.51928  1.0000
  H   H2682     1.0  0.90114  0.01163  0.54744  1.0000
  H   H2683     1.0  0.91633  0.13320  0.50800  1.0000
  H   H2684     1.0  0.98456  0.06192  0.66519  1.0000
  H   H2685     1.0  0.94846  0.45204  0.95753  1.0000
  C   C1686     1.0  0.92179  0.47989  0.96462  1.0000
  C   C1687     1.0  0.94485  0.48991  0.97146  1.0000
  C   C1688     1.0  0.93619  0.46241  0.98877  1.0000
  H   H2686     1.0  0.91694  0.46833  0.96372  1.0000
  H   H2687     1.0  0.92308  0.00877  0.53326  1.0000
  C   C1689     1.0  0.99765  0.02810  0.66085  1.0000
  H   H2688     1.0  0.99277  0.02111  0.67473  1.0000
  H   H2689     1.0  0.98582  0.03453  0.65469  1.0000
  H   H2690     1.0  0.95727  0.48604  0.97679  1.0000
  H   H2691     1.0  0.90373  0.01093  0.52459  1.0000
  S   S683      1.0  0.91496  0.92918  0.48473  1.0000
  C   C1690     1.0  0.97919  0.86258  0.47804  1.0000
  N   N169      1.0  0.97111  0.88171  0.47742  1.0000
  H   H2692     1.0  0.79853  0.64991  0.48754  1.0000
  H   H2693     1.0  0.94550  0.87663  0.49258  1.0000
  H   H2694     1.0  0.86634  0.58674  0.99983  1.0000
  C   C1691     1.0  0.87089  0.57384  0.00874  1.0000
  H   H2695     1.0  0.93719  0.58790  0.99820  1.0000
  H   H2696     1.0  0.94789  0.88070  0.46890  1.0000
  H   H2697     1.0  0.84394  0.57288  0.99501  1.0000
  C   C1692     1.0  0.91547  0.96468  0.47817  1.0000
  H   H2698     1.0  0.98990  0.98270  0.37214  1.0000
  C   C1693     1.0  0.84868  0.56052  0.00458  1.0000
  H   H2699     1.0  0.87348  0.53883  0.02241  1.0000
  H   H2700     1.0  0.99339  0.89049  0.45796  1.0000
  H   H2701     1.0  0.92762  0.96173  0.46836  1.0000
  C   C1694     1.0  0.91637  0.52135  0.00824  1.0000
  H   H2702     1.0  0.94492  0.89888  0.47945  1.0000
  H   H2703     1.0  0.98984  0.88581  0.49025  1.0000
  H   H2704     1.0  0.83654  0.58915  0.01938  1.0000
  H   H2705     1.0  0.92569  0.52409  0.01440  1.0000
  H   H2706     1.0  0.86817  0.55045  0.04020  1.0000
  H   H2707     1.0  0.87706  0.57677  0.01835  1.0000
  N   N170      1.0  0.85597  0.56465  0.01791  1.0000
  C   C1695     1.0  0.89789  0.50190  0.00709  1.0000
  H   H2708     1.0  0.91626  0.99241  0.47379  1.0000
  H   H2709     1.0  0.96886  0.57438  0.99983  1.0000
  H   H2710     1.0  0.97063  0.98638  0.43584  1.0000
  H   H2711     1.0  0.88160  0.56558  0.00041  1.0000
  C   C1696     1.0  0.95151  0.88461  0.47967  1.0000
  H   H2712     1.0  0.96673  0.98353  0.40687  1.0000
  H   H2713     1.0  0.97632  0.85789  0.46734  1.0000
  C   C1697     1.0  0.91015  0.50532  0.01489  1.0000
  C   C1698     1.0  0.86260  0.54787  0.02993  1.0000
  H   H2714     1.0  0.97581  0.88855  0.44880  1.0000
  C   C1699     1.0  0.90899  0.98209  0.48118  1.0000
  H   H2715     1.0  0.85176  0.54044  0.03696  1.0000
  H   H2716     1.0  0.83713  0.55393  0.01101  1.0000
  H   H2717     1.0  0.99399  0.85993  0.47630  1.0000
  C   C1700     1.0  0.84176  0.57642  0.02826  1.0000
  H   H2718     1.0  0.83024  0.56997  0.03541  1.0000
  C   C1701     1.0  0.97859  0.89239  0.46008  1.0000
  H   H2719     1.0  0.84682  0.57999  0.03832  1.0000
  C   C1702     1.0  0.90643  0.95107  0.48806  1.0000
  H   H2720     1.0  0.97277  0.90690  0.45919  1.0000
  H   H2721     1.0  0.85896  0.55138  0.99674  1.0000
  C   C1703     1.0  0.97516  0.88725  0.49194  1.0000
  H   H2722     1.0  0.96873  0.90146  0.49224  1.0000
  H   H2723     1.0  0.97397  0.85414  0.49103  1.0000
  C   C1704     1.0  0.89327  0.98595  0.49385  1.0000
  Fe  Fe342     1.0  0.94168  0.68367  0.82162  1.0000
  S   S684      1.0  0.94604  0.65469  0.83484  1.0000
  S   S685      1.0  0.92063  0.70241  0.83681  1.0000
  Fe  Fe343     1.0  0.97067  0.67790  0.78921  1.0000
  S   S686      1.0  0.97775  0.64847  0.80013  1.0000
  S   S687      1.0  0.98556  0.68704  0.76119  1.0000
  Fe  Fe344     1.0  0.94824  0.65009  0.80777  1.0000
  S   S688      1.0  0.93873  0.62808  0.80250  1.0000
  Fe  Fe345     1.0  0.97511  0.65569  0.82620  1.0000
  C   C1705     1.0  0.89205  0.51438  0.99264  1.0000
  S   S689      1.0  0.94116  0.67909  0.79514  1.0000
  S   S690      1.0  0.97074  0.68514  0.81471  1.0000
  H   H2724     1.0  0.79043  0.94512  0.74625  1.0000
  H   H2725     1.0  0.99837  0.54773  0.91579  1.0000
  H   H2726     1.0  0.78135  0.96600  0.73292  1.0000
  C   C1706     1.0  0.76666  0.75622  0.93581  1.0000
  H   H2727     1.0  0.77854  0.54542  0.70779  1.0000
  S   S691      1.0  0.98388  0.84434  0.59058  1.0000
  H   H2728     1.0  0.76173  0.94698  0.76871  1.0000
  H   H2729     1.0  0.82411  0.52504  0.71629  1.0000
  C   C1707     1.0  0.77229  0.64045  0.51495  1.0000
  H   H2730     1.0  0.76855  0.81875  0.79683  1.0000
  H   H2731     1.0  0.97516  0.59554  0.98976  1.0000
  C   C1708     1.0  0.76614  0.88729  0.83536  1.0000
  H   H2732     1.0  0.77126  0.62909  0.65963  1.0000
  H   H2733     1.0  0.75863  0.63077  0.81076  1.0000
  S   S692      1.0  0.76729  0.67464  0.87296  1.0000
  Fe  Fe346     1.0  0.95714  0.55490  0.86502  1.0000
  S   S693      1.0  0.95994  0.52591  0.86633  1.0000
  S   S694      1.0  0.93541  0.57715  0.85513  1.0000
  Fe  Fe347     1.0  0.96758  0.52195  0.89245  1.0000
  H   H2734     1.0  0.78956  0.86293  0.58076  1.0000
  H   H2735     1.0  0.99262  0.91979  0.54685  1.0000
  S   S695      1.0  0.96302  0.55119  0.89189  1.0000
  H   H2736     1.0  0.94776  0.49856  0.95795  1.0000
  Fe  Fe348     1.0  0.84728  0.61694  0.80576  1.0000
  S   S696      1.0  0.84548  0.59991  0.83327  1.0000
  S   S697      1.0  0.85703  0.64235  0.80023  1.0000
  Fe  Fe349     1.0  0.83139  0.59310  0.79250  1.0000
  S   S698      1.0  0.82896  0.57357  0.81882  1.0000
  S   S699      1.0  0.82142  0.59416  0.76792  1.0000
  Fe  Fe350     1.0  0.81883  0.59781  0.83075  1.0000
  S   S700      1.0  0.79435  0.59908  0.85261  1.0000
  Fe  Fe351     1.0  0.85607  0.57727  0.81909  1.0000
  S   S701      1.0  0.87644  0.55457  0.83060  1.0000
  S   S702      1.0  0.81929  0.61720  0.80462  1.0000
  S   S703      1.0  0.85977  0.59445  0.79148  1.0000
  Fe  Fe352     1.0  0.82544  0.68542  0.87580  1.0000
  H   H2737     1.0  0.94170  0.81930  0.57325  1.0000
  S   S704      1.0  0.85053  0.67140  0.85988  1.0000
  Fe  Fe353     1.0  0.80128  0.68812  0.91185  1.0000
  H   H2738     1.0  0.98781  0.89272  0.54020  1.0000
  S   S705      1.0  0.80815  0.66752  0.89529  1.0000
  S   S706      1.0  0.82060  0.70461  0.89358  1.0000
  S   S707      1.0  0.88375  0.56668  0.91391  1.0000
  C   C1709     1.0  0.80275  0.83530  0.56438  1.0000
  H   H2739     1.0  0.77294  0.59143  0.74220  1.0000
  H   H2740     1.0  0.94338  0.60922  0.98883  1.0000
  S   S708      1.0  0.75577  0.58925  0.71566  1.0000
  H   H2741     1.0  0.93319  0.98037  0.55502  1.0000
  C   C1710     1.0  0.79156  0.65646  0.52040  1.0000
  H   H2742     1.0  0.94560  0.64845  0.72905  1.0000
  Fe  Fe354     1.0  0.83303  0.77426  0.60645  1.0000
  S   S709      1.0  0.86244  0.76643  0.59579  1.0000
  S   S710      1.0  0.82289  0.78984  0.62824  1.0000
  Fe  Fe355     1.0  0.82277  0.75582  0.58224  1.0000
  S   S711      1.0  0.85153  0.74733  0.56899  1.0000
  S   S712      1.0  0.79747  0.74894  0.57972  1.0000
  Fe  Fe356     1.0  0.85687  0.74002  0.59664  1.0000
  S   S713      1.0  0.87125  0.71240  0.60745  1.0000
  Fe  Fe357     1.0  0.85447  0.77474  0.56929  1.0000
  S   S714      1.0  0.87128  0.79159  0.54726  1.0000
  S   S715      1.0  0.82804  0.74702  0.60993  1.0000
  S   S716      1.0  0.82519  0.78406  0.57995  1.0000
  H   H2743     1.0  0.77342  0.82071  0.60197  1.0000
  S   S717      1.0  0.88657  0.91296  0.53396  1.0000
  N   N171      1.0  0.99690  0.89330  0.56312  1.0000
  Fe  Fe358     1.0  0.92573  0.87283  0.52823  1.0000
  S   S718      1.0  0.90541  0.87355  0.55374  1.0000
  S   S719      1.0  0.94950  0.85041  0.52612  1.0000
  Fe  Fe359     1.0  0.88561  0.88440  0.53620  1.0000
  S   S720      1.0  0.86033  0.87371  0.54667  1.0000
  Fe  Fe360     1.0  0.90848  0.90172  0.54923  1.0000
  S   S721      1.0  0.90992  0.91172  0.57263  1.0000
  S   S722      1.0  0.90582  0.88139  0.51075  1.0000
  S   S723      1.0  0.93047  0.89999  0.52512  1.0000
  Fe  Fe361     1.0  0.94777  0.74108  0.67963  1.0000
  S   S724      1.0  0.96361  0.75778  0.65674  1.0000
  S   S725      1.0  0.94202  0.74466  0.70786  1.0000
  Fe  Fe362     1.0  0.93955  0.72165  0.65566  1.0000
  S   S726      1.0  0.95489  0.73627  0.63064  1.0000
  S   S727      1.0  0.92524  0.70019  0.65758  1.0000
  H   H2744     1.0  0.96630  0.57865  0.77672  1.0000
  Fe  Fe363     1.0  0.94177  0.76031  0.64258  1.0000
  S   S728      1.0  0.92816  0.78552  0.62646  1.0000
  S   S729      1.0  0.96122  0.71540  0.67097  1.0000
  S   S730      1.0  0.92478  0.74597  0.66639  1.0000
  Fe  Fe364     1.0  0.87840  0.86416  0.66081  1.0000
  S   S731      1.0  0.87898  0.87959  0.63288  1.0000
  S   S732      1.0  0.90218  0.84606  0.67057  1.0000
  Fe  Fe365     1.0  0.83894  0.87766  0.67277  1.0000
  S   S733      1.0  0.83583  0.89467  0.64573  1.0000
  S   S734      1.0  0.81941  0.87116  0.69851  1.0000
  Fe  Fe366     1.0  0.85371  0.87075  0.63549  1.0000
  S   S735      1.0  0.85265  0.85993  0.61251  1.0000
  Fe  Fe367     1.0  0.86158  0.90195  0.64547  1.0000
  S   S736      1.0  0.86985  0.92833  0.63310  1.0000
  S   S737      1.0  0.85474  0.85328  0.66233  1.0000
  S   S738      1.0  0.86295  0.88707  0.67340  1.0000
  H   H2745     1.0  0.91095  0.67496  0.82686  1.0000
  S   S739      1.0  0.97284  0.95019  0.56448  1.0000
  C   C1711     1.0  0.95737  0.57176  0.97179  1.0000
  C   C1712     1.0  0.80269  0.63838  0.49817  1.0000
  S   S740      1.0  0.75961  0.55952  0.76292  1.0000
  S   S741      1.0  0.94255  0.92929  0.65164  1.0000
  S   S742      1.0  0.96256  0.96602  0.61007  1.0000
  C   C1713     1.0  0.89702  0.82321  0.57764  1.0000
  S   S743      1.0  0.99207  0.63846  0.84568  1.0000
  H   H2746     1.0  0.89345  0.83792  0.57275  1.0000
  C   C1714     1.0  0.88417  0.97238  0.50359  1.0000
  N   N172      1.0  0.94093  0.87754  0.63247  1.0000
  H   H2747     1.0  0.98868  0.76590  0.70076  1.0000
  S   S744      1.0  0.78529  0.68843  0.54758  1.0000
  H   H2748     1.0  0.98724  0.54459  0.79631  1.0000
  H   H2749     1.0  0.78630  0.71565  0.95736  1.0000
  C   C1715     1.0  0.92934  0.70592  0.87631  1.0000
  H   H2750     1.0  0.94714  0.57481  0.96357  1.0000
  H   H2751     1.0  0.88449  0.98695  0.55659  1.0000
  H   H2752     1.0  0.93921  0.69189  0.90761  1.0000
  H   H2753     1.0  0.93390  0.64319  0.76200  1.0000
  C   C1716     1.0  0.92908  0.65790  0.76035  1.0000
  C   C1717     1.0  0.95865  0.85827  0.57053  1.0000
  H   H2754     1.0  0.92888  0.66125  0.77309  1.0000
  C   C1718     1.0  0.96078  0.70165  0.87570  1.0000
  H   H2755     1.0  0.92524  0.71528  0.88553  1.0000
  H   H2756     1.0  0.77159  0.85689  0.57549  1.0000
  H   H2757     1.0  0.94989  0.89277  0.60647  1.0000
  H   H2758     1.0  0.77725  0.88676  0.84109  1.0000
  C   C1719     1.0  0.75899  0.83547  0.82398  1.0000
  H   H2759     1.0  0.94746  0.63144  0.89119  1.0000
  C   C1720     1.0  0.88972  0.92938  0.63841  1.0000
  C   C1721     1.0  0.90163  0.93933  0.62607  1.0000
  C   C1722     1.0  0.91789  0.93954  0.62995  1.0000
  C   C1723     1.0  0.92211  0.93007  0.64634  1.0000
  C   C1724     1.0  0.90997  0.92054  0.65882  1.0000
  C   C1725     1.0  0.89393  0.92008  0.65483  1.0000
  H   H2760     1.0  0.89841  0.94667  0.61338  1.0000
  H   H2761     1.0  0.92702  0.94720  0.62039  1.0000
  H   H2762     1.0  0.91302  0.91342  0.67163  1.0000
  H   H2763     1.0  0.88470  0.91276  0.66461  1.0000
  C   C1726     1.0  0.92146  0.80250  0.63849  1.0000
  C   C1727     1.0  0.90901  0.81785  0.63316  1.0000
  C   C1728     1.0  0.90300  0.83115  0.64313  1.0000
  C   C1729     1.0  0.90969  0.82934  0.65822  1.0000
  C   C1730     1.0  0.92218  0.81404  0.66353  1.0000
  C   C1731     1.0  0.92787  0.80052  0.65380  1.0000
  H   H2764     1.0  0.90370  0.81938  0.62156  1.0000
  H   H2765     1.0  0.89314  0.84275  0.63907  1.0000
  H   H2766     1.0  0.92725  0.81248  0.67531  1.0000
  H   H2767     1.0  0.93720  0.78860  0.65821  1.0000
  C   C1732     1.0  0.92737  0.92259  0.56995  1.0000
  C   C1733     1.0  0.93753  0.92851  0.55311  1.0000
  C   C1734     1.0  0.95132  0.93727  0.55144  1.0000
  C   C1735     1.0  0.95506  0.93998  0.56664  1.0000
  C   C1736     1.0  0.94484  0.93414  0.58343  1.0000
  C   C1737     1.0  0.93099  0.92554  0.58507  1.0000
  H   H2768     1.0  0.93462  0.92659  0.54135  1.0000
  H   H2769     1.0  0.95914  0.94185  0.53840  1.0000
  H   H2770     1.0  0.94749  0.93639  0.59517  1.0000
  H   H2771     1.0  0.92302  0.92116  0.59810  1.0000
  C   C1738     1.0  0.95929  0.84861  0.54391  1.0000
  H   H2772     1.0  0.78838  0.62525  0.54286  1.0000
  C   C1739     1.0  0.95160  0.86017  0.55569  1.0000
  C   C1740     1.0  1.00000  0.64639  0.86016  1.0000
  H   H2773     1.0  0.94027  0.87073  0.55343  1.0000
  C   C1741     1.0  0.79473  0.73190  0.57063  1.0000
  C   C1742     1.0  0.80796  0.72439  0.55752  1.0000
  C   C1743     1.0  0.80497  0.71106  0.55063  1.0000
  C   C1744     1.0  0.78885  0.70490  0.55691  1.0000
  C   C1745     1.0  0.77576  0.71231  0.57012  1.0000
  C   C1746     1.0  0.77860  0.72585  0.57675  1.0000
  H   H2774     1.0  0.82030  0.72916  0.55237  1.0000
  H   H2775     1.0  0.81511  0.70561  0.54026  1.0000
  C   C1747     1.0  0.92331  0.97741  0.52665  1.0000
  H   H2776     1.0  0.76819  0.73166  0.58673  1.0000
  C   C1748     1.0  0.88631  0.70987  0.62109  1.0000
  C   C1749     1.0  0.88930  0.69385  0.63354  1.0000
  C   C1750     1.0  0.90124  0.69114  0.64462  1.0000
  C   C1751     1.0  0.91056  0.70429  0.64316  1.0000
  C   C1752     1.0  0.90792  0.72025  0.63043  1.0000
  C   C1753     1.0  0.89563  0.72312  0.61949  1.0000
  H   H2777     1.0  0.88229  0.68350  0.63473  1.0000
  H   H2778     1.0  0.90333  0.67875  0.65432  1.0000
  H   H2779     1.0  0.91550  0.73021  0.62893  1.0000
  H   H2780     1.0  0.89374  0.73530  0.60950  1.0000
  C   C1754     1.0  0.86789  0.81442  0.54723  1.0000
  C   C1755     1.0  0.85329  0.82281  0.55858  1.0000
  C   C1756     1.0  0.85097  0.84106  0.55822  1.0000
  C   C1757     1.0  0.86345  0.85089  0.54684  1.0000
  C   C1758     1.0  0.87818  0.84243  0.53568  1.0000
  C   C1759     1.0  0.88021  0.82434  0.53568  1.0000
  H   H2781     1.0  0.84376  0.81527  0.56751  1.0000
  H   H2782     1.0  0.83972  0.84754  0.56699  1.0000
  H   H2783     1.0  0.88775  0.84994  0.52670  1.0000
  H   H2784     1.0  0.89136  0.81800  0.52666  1.0000
  C   C1760     1.0  0.83208  0.80868  0.62436  1.0000
  C   C1761     1.0  0.82739  0.81896  0.63735  1.0000
  C   C1762     1.0  0.83407  0.83448  0.63409  1.0000
  C   C1763     1.0  0.84518  0.83990  0.61769  1.0000
  C   C1764     1.0  0.85002  0.82949  0.60483  1.0000
  C   C1765     1.0  0.84369  0.81379  0.60822  1.0000
  H   H2785     1.0  0.81837  0.81508  0.64985  1.0000
  H   H2786     1.0  0.83013  0.84255  0.64403  1.0000
  H   H2787     1.0  0.85858  0.83370  0.59215  1.0000
  H   H2788     1.0  0.84747  0.80586  0.59819  1.0000
  H   H2789     1.0  0.89318  0.82050  0.59245  1.0000
  C   C1766     1.0  0.78115  0.82155  0.58797  1.0000
  H   H2790     1.0  0.96709  0.58265  0.90386  1.0000
  C   C1767     1.0  0.96039  0.58133  0.81084  1.0000
  H   H2791     1.0  0.91980  0.69124  0.74201  1.0000
  C   C1768     1.0  0.76393  0.90723  0.70844  1.0000
  C   C1769     1.0  0.77771  0.91374  0.69518  1.0000
  C   C1770     1.0  0.79475  0.90265  0.69161  1.0000
  C   C1771     1.0  0.79803  0.88511  0.70145  1.0000
  C   C1772     1.0  0.78417  0.87858  0.71443  1.0000
  C   C1773     1.0  0.76712  0.88951  0.71771  1.0000
  H   H2792     1.0  0.77525  0.92740  0.68782  1.0000
  H   H2793     1.0  0.80540  0.90776  0.68151  1.0000
  H   H2794     1.0  0.78655  0.86495  0.72186  1.0000
  H   H2795     1.0  0.94204  0.69486  0.73242  1.0000
  H   H2796     1.0  0.94431  0.57521  0.78826  1.0000
  H   H2797     1.0  0.93280  0.60751  0.89339  1.0000
  Fe  Fe368     1.0  0.88697  0.58079  0.93334  1.0000
  S   S745      1.0  0.80411  0.70174  0.86106  1.0000
  N   N173      1.0  0.79258  0.83482  0.58294  1.0000
  H   H2798     1.0  0.76302  0.64165  0.52798  1.0000
  H   H2799     1.0  0.95787  0.53876  0.81298  1.0000
  C   C1774     1.0  0.76133  0.72723  0.93762  1.0000
  C   C1775     1.0  0.80517  0.82981  0.59504  1.0000
  H   H2800     1.0  0.80529  0.65651  0.52136  1.0000
  H   H2801     1.0  0.77260  0.82678  0.82322  1.0000
  H   H2802     1.0  0.75468  0.57766  0.55048  1.0000
  H   H2803     1.0  0.97809  0.59999  0.90273  1.0000
  H   H2804     1.0  0.96220  0.66939  0.86974  1.0000
  C   C1776     1.0  0.80963  0.66356  0.95168  1.0000
  C   C1777     1.0  0.83286  0.63680  0.94979  1.0000
  C   C1778     1.0  0.82284  0.65268  0.94141  1.0000
  H   H2805     1.0  0.84275  0.62835  0.94180  1.0000
  H   H2806     1.0  0.82539  0.65652  0.92704  1.0000
  C   C1779     1.0  0.80430  0.58423  0.76696  1.0000
  C   C1780     1.0  0.79447  0.59217  0.75355  1.0000
  C   C1781     1.0  0.78058  0.58492  0.75237  1.0000
  H   H2807     1.0  0.94071  0.60907  0.86969  1.0000
  N   N174      1.0  0.94064  0.66767  0.74524  1.0000
  C   C1782     1.0  0.80036  0.56868  0.77899  1.0000
  H   H2808     1.0  0.79747  0.60417  0.74413  1.0000
  H   H2809     1.0  0.81363  0.71275  0.61658  1.0000
  H   H2810     1.0  0.80812  0.56220  0.78912  1.0000
  S   S746      1.0  0.99631  0.62975  0.93550  1.0000
  H   H2811     1.0  0.93418  0.86637  0.66054  1.0000
  H   H2812     1.0  0.98614  0.57655  0.98005  1.0000
  C   C1783     1.0  0.78727  0.61991  0.85859  1.0000
  C   C1784     1.0  0.79953  0.62864  0.86068  1.0000
  C   C1785     1.0  0.79344  0.64520  0.86578  1.0000
  H   H2813     1.0  0.94915  0.67021  0.71685  1.0000
  C   C1786     1.0  0.78129  0.85264  0.58443  1.0000
  H   H2814     1.0  0.81361  0.62248  0.85874  1.0000
  H   H2815     1.0  0.80281  0.65174  0.86781  1.0000
  C   C1787     1.0  0.91891  0.57074  0.84863  1.0000
  C   C1788     1.0  0.91733  0.55293  0.85279  1.0000
  C   C1789     1.0  0.90452  0.54803  0.84689  1.0000
  C   C1790     1.0  0.89305  0.56094  0.83697  1.0000
  C   C1791     1.0  0.89449  0.57879  0.83295  1.0000
  C   C1792     1.0  0.90743  0.58365  0.83872  1.0000
  H   H2816     1.0  0.92585  0.54291  0.86067  1.0000
  H   H2817     1.0  0.90341  0.53420  0.85017  1.0000
  H   H2818     1.0  0.88571  0.58882  0.82529  1.0000
  H   H2819     1.0  0.90876  0.59741  0.83527  1.0000
  C   C1793     1.0  0.93077  0.51956  0.91816  1.0000
  C   C1794     1.0  0.92234  0.52748  0.93276  1.0000
  C   C1795     1.0  0.90706  0.54112  0.93181  1.0000
  C   C1796     1.0  0.90026  0.54704  0.91627  1.0000
  C   C1797     1.0  0.90790  0.53829  0.90216  1.0000
  C   C1798     1.0  0.92314  0.52453  0.90313  1.0000
  H   H2820     1.0  0.92824  0.52404  0.94431  1.0000
  H   H2821     1.0  0.90107  0.54761  0.94286  1.0000
  H   H2822     1.0  0.90276  0.54281  0.89009  1.0000
  H   H2823     1.0  0.92937  0.51817  0.89196  1.0000
  H   H2824     1.0  0.95249  0.86723  0.57959  1.0000
  C   C1799     1.0  0.89075  0.95498  0.50072  1.0000
  H   H2825     1.0  0.96525  0.65376  0.93295  1.0000
  H   H2826     1.0  0.78755  0.58681  0.82608  1.0000
  H   H2827     1.0  0.81407  0.83947  0.59174  1.0000
  H   H2828     1.0  0.75128  0.80266  0.89028  1.0000
  C   C1800     1.0  0.98204  0.83402  0.56115  1.0000
  N   N175      1.0  0.95945  0.58811  0.97579  1.0000
  H   H2829     1.0  0.87191  0.97535  0.51328  1.0000
  C   C1801     1.0  0.89848  0.53014  0.98588  1.0000
  H   H2830     1.0  0.99619  0.67389  0.84628  1.0000
  C   C1802     1.0  0.95382  0.72824  0.72265  1.0000
  C   C1803     1.0  0.94831  0.72767  0.74101  1.0000
  C   C1804     1.0  0.95779  0.71486  0.75302  1.0000
  C   C1805     1.0  0.97311  0.70292  0.74662  1.0000
  C   C1806     1.0  0.97869  0.70358  0.72826  1.0000
  C   C1807     1.0  0.96886  0.71597  0.71633  1.0000
  H   H2831     1.0  0.93668  0.73716  0.74597  1.0000
  H   H2832     1.0  0.95349  0.71450  0.76717  1.0000
  C   C1808     1.0  0.79868  0.55265  0.72600  1.0000
  H   H2833     1.0  0.97310  0.71626  0.70224  1.0000
  C   C1809     1.0  0.91589  0.63216  0.80241  1.0000
  C   C1810     1.0  0.90471  0.64875  0.80403  1.0000
  C   C1811     1.0  0.88665  0.65192  0.80317  1.0000
  C   C1812     1.0  0.87967  0.63837  0.80105  1.0000
  C   C1813     1.0  0.89085  0.62177  0.79953  1.0000
  C   C1814     1.0  0.90895  0.61872  0.80006  1.0000
  H   H2834     1.0  0.91001  0.65923  0.80571  1.0000
  H   H2835     1.0  0.87805  0.66481  0.80433  1.0000
  H   H2836     1.0  0.88562  0.61134  0.79764  1.0000
  H   H2837     1.0  0.91755  0.60588  0.79870  1.0000
  H   H2838     1.0  0.94113  0.84965  0.63640  1.0000
  H   H2839     1.0  0.78718  0.66856  0.51043  1.0000
  C   C1815     1.0  0.81638  0.64260  0.97863  1.0000
  N   N176      1.0  0.77467  0.73694  0.93806  1.0000
  H   H2840     1.0  0.75689  0.59778  0.84060  1.0000
  Fe  Fe369     1.0  0.96459  0.94022  0.63047  1.0000
  C   C1816     1.0  0.79042  0.73401  0.92345  1.0000
  C   C1817     1.0  0.75466  0.87543  0.84358  1.0000
  H   H2841     1.0  0.76877  0.73226  0.96667  1.0000
  Fe  Fe370     1.0  0.98811  0.64089  0.96011  1.0000
  C   C1818     1.0  0.90056  0.69486  0.84275  1.0000
  C   C1819     1.0  0.88566  0.70248  0.85445  1.0000
  C   C1820     1.0  0.86992  0.69571  0.85958  1.0000
  C   C1821     1.0  0.86916  0.68142  0.85289  1.0000
  C   C1822     1.0  0.88396  0.67414  0.84097  1.0000
  C   C1823     1.0  0.89961  0.68075  0.83600  1.0000
  H   H2842     1.0  0.88633  0.71346  0.85967  1.0000
  H   H2843     1.0  0.85853  0.70139  0.86882  1.0000
  H   H2844     1.0  0.88337  0.66331  0.83555  1.0000
  C   C1824     1.0  0.93383  0.68707  0.74390  1.0000
  C   C1825     1.0  0.95911  0.66275  0.74823  1.0000
  H   H2845     1.0  0.96829  0.66982  0.73711  1.0000
  H   H2846     1.0  0.96462  0.64817  0.74957  1.0000
  H   H2847     1.0  0.95970  0.66626  0.76065  1.0000
  N   N177      1.0  0.87578  0.77563  0.64760  1.0000
  C   C1826     1.0  0.87636  0.79051  0.63185  1.0000
  C   C1827     1.0  0.88167  0.78003  0.66171  1.0000
  C   C1828     1.0  0.88782  0.75929  0.64251  1.0000
  C   C1829     1.0  0.85732  0.77264  0.65423  1.0000
  H   H2848     1.0  0.89017  0.79283  0.62631  1.0000
  H   H2849     1.0  0.86768  0.80318  0.63522  1.0000
  H   H2850     1.0  0.87173  0.78768  0.62107  1.0000
  H   H2851     1.0  0.87304  0.79247  0.66566  1.0000
  H   H2852     1.0  0.88137  0.76909  0.67383  1.0000
  H   H2853     1.0  0.89565  0.78211  0.65716  1.0000
  H   H2854     1.0  0.88790  0.74770  0.65404  1.0000
  H   H2855     1.0  0.90186  0.76109  0.63724  1.0000
  H   H2856     1.0  0.88363  0.75559  0.63196  1.0000
  H   H2857     1.0  0.85630  0.76171  0.66630  1.0000
  H   H2858     1.0  0.85267  0.76885  0.64400  1.0000
  H   H2859     1.0  0.84770  0.78488  0.65764  1.0000
  H   H2860     1.0  0.96764  0.61258  0.96158  1.0000
  H   H2861     1.0  0.91600  0.89664  0.63405  1.0000
  H   H2862     1.0  0.75440  0.75897  0.94626  1.0000
  H   H2863     1.0  0.88272  0.51170  0.98644  1.0000
  S   S747      1.0  0.99716  0.51880  0.88085  1.0000
  H   H2864     1.0  0.00055  0.55409  0.94397  1.0000
  H   H2865     1.0  0.77167  0.59955  0.67958  1.0000
  H   H2866     1.0  0.99053  0.69432  0.72329  1.0000
  H   H2867     1.0  0.97760  0.75498  0.69124  1.0000
  H   H2868     1.0  0.97022  0.87902  0.50519  1.0000
  H   H2869     1.0  0.95258  0.68684  0.85330  1.0000
  C   C1830     1.0  0.77662  0.56937  0.76436  1.0000
  H   H2870     1.0  0.97807  0.59411  0.95100  1.0000
  C   C1831     1.0  0.82399  0.70017  0.61796  1.0000
  H   H2871     1.0  0.96714  0.59174  0.80120  1.0000
  H   H2872     1.0  0.99399  0.82406  0.56304  1.0000
  S   S748      1.0  0.84237  0.61214  0.97922  1.0000
  N   N178      1.0  0.88338  0.62149  0.87378  1.0000
  C   C1832     1.0  0.86525  0.62089  0.88486  1.0000
  C   C1833     1.0  0.89004  0.63563  0.87731  1.0000
  C   C1834     1.0  0.88262  0.62533  0.85475  1.0000
  C   C1835     1.0  0.89561  0.60414  0.87825  1.0000
  H   H2873     1.0  0.85978  0.61045  0.88254  1.0000
  H   H2874     1.0  0.85576  0.63391  0.88188  1.0000
  H   H2875     1.0  0.86527  0.61797  0.89929  1.0000
  H   H2876     1.0  0.88068  0.64877  0.87498  1.0000
  H   H2877     1.0  0.89147  0.63274  0.89139  1.0000
  H   H2878     1.0  0.90328  0.63718  0.86851  1.0000
  H   H2879     1.0  0.89584  0.62689  0.84587  1.0000
  H   H2880     1.0  0.87275  0.63783  0.85117  1.0000
  H   H2881     1.0  0.87851  0.61448  0.85145  1.0000
  H   H2882     1.0  0.90936  0.60426  0.87012  1.0000
  H   H2883     1.0  0.89122  0.59305  0.87571  1.0000
  H   H2884     1.0  0.89644  0.60066  0.89254  1.0000
  N   N179      1.0  0.76479  0.94659  0.74113  1.0000
  H   H2885     1.0  0.88735  0.98667  0.53357  1.0000
  H   H2886     1.0  0.98070  0.82667  0.53743  1.0000
  C   C1836     1.0  0.89369  0.98120  0.54535  1.0000
  C   C1837     1.0  0.75266  0.59837  0.82814  1.0000
  C   C1838     1.0  0.78255  0.95130  0.73567  1.0000
  H   H2887     1.0  0.77126  0.60634  0.78378  1.0000
  H   H2888     1.0  0.88337  0.94473  0.50793  1.0000
  H   H2889     1.0  0.80053  0.74161  0.92294  1.0000
  H   H2890     1.0  0.94577  0.58720  0.81354  1.0000
  H   H2891     1.0  0.79285  0.52509  0.71624  1.0000
  H   H2892     1.0  0.77168  0.90952  0.81382  1.0000
  H   H2893     1.0  0.81086  0.62319  0.53012  1.0000
  H   H2894     1.0  0.81280  0.57319  0.69528  1.0000
  S   S749      1.0  0.95249  0.50649  0.91712  1.0000
  H   H2895     1.0  0.78926  0.80794  0.58699  1.0000
  H   H2896     1.0  0.76318  0.70801  0.57490  1.0000
  N   N180      1.0  0.82880  0.69262  0.60185  1.0000
  C   C1839     1.0  0.78315  0.58841  0.81354  1.0000
  C   C1840     1.0  0.81266  0.68884  0.59888  1.0000
  C   C1841     1.0  0.84251  0.67597  0.60423  1.0000
  C   C1842     1.0  0.83607  0.70559  0.58630  1.0000
  C   C1843     1.0  0.76872  0.77933  0.88158  1.0000
  N   N181      1.0  0.79084  0.63991  0.51572  1.0000
  C   C1844     1.0  0.76708  0.92701  0.74472  1.0000
  H   H2897     1.0  0.81554  0.68382  0.58641  1.0000
  H   H2898     1.0  0.80708  0.67868  0.61009  1.0000
  H   H2899     1.0  0.80190  0.70107  0.59762  1.0000
  H   H2900     1.0  0.84654  0.67005  0.59222  1.0000
  S   S750      1.0  0.76742  0.56649  0.67505  1.0000
  H   H2901     1.0  0.94779  0.86058  0.61360  1.0000
  H   H2902     1.0  0.83874  0.70095  0.57367  1.0000
  H   H2903     1.0  0.84886  0.70790  0.58757  1.0000
  H   H2904     1.0  0.82665  0.71875  0.58491  1.0000
  S   S751      1.0  0.92059  0.62834  0.92214  1.0000
  C   C1845     1.0  0.75482  0.95486  0.72669  1.0000
  C   C1846     1.0  0.92135  0.63654  0.95333  1.0000
  C   C1847     1.0  0.76311  0.64465  0.86569  1.0000
  H   H2905     1.0  0.76336  0.60892  0.61801  1.0000
  H   H2906     1.0  0.77501  0.92147  0.73287  1.0000
  H   H2907     1.0  0.79896  0.54043  0.73683  1.0000
  H   H2908     1.0  0.93453  0.79054  0.57329  1.0000
  H   H2909     1.0  0.78120  0.62347  0.79936  1.0000
  C   C1848     1.0  0.97867  0.89591  0.57429  1.0000
  N   N182      1.0  0.96435  0.56480  0.80407  1.0000
  H   H2910     1.0  0.75639  0.88408  0.72723  1.0000
  C   C1849     1.0  0.92945  0.63668  0.93541  1.0000
  H   H2911     1.0  0.97117  0.62905  0.88331  1.0000
  H   H2912     1.0  0.93204  0.67523  0.90140  1.0000
  H   H2913     1.0  0.84820  0.56082  0.91035  1.0000
  N   N183      1.0  0.91624  0.81600  0.57133  1.0000
  N   N184      1.0  0.81331  0.67920  0.81703  1.0000
  C   C1850     1.0  0.80799  0.66297  0.81640  1.0000
  C   C1851     1.0  0.82562  0.67451  0.82939  1.0000
  C   C1852     1.0  0.79717  0.69218  0.82328  1.0000
  C   C1853     1.0  0.82249  0.68712  0.79904  1.0000
  H   H2914     1.0  0.80048  0.65705  0.82961  1.0000
  H   H2915     1.0  0.81986  0.65260  0.81247  1.0000
  H   H2916     1.0  0.79928  0.66589  0.80668  1.0000
  H   H2917     1.0  0.81919  0.66870  0.84316  1.0000
  H   H2918     1.0  0.83787  0.66457  0.82526  1.0000
  H   H2919     1.0  0.83013  0.68639  0.83003  1.0000
  H   H2920     1.0  0.80061  0.70467  0.82384  1.0000
  H   H2921     1.0  0.79003  0.68663  0.83694  1.0000
  H   H2922     1.0  0.78749  0.69586  0.81440  1.0000
  H   H2923     1.0  0.82682  0.69931  0.79910  1.0000
  H   H2924     1.0  0.81366  0.69086  0.78931  1.0000
  H   H2925     1.0  0.83470  0.67757  0.79397  1.0000
  N   N185      1.0  0.96105  0.60637  0.88398  1.0000
  C   C1854     1.0  0.95907  0.62581  0.88152  1.0000
  C   C1855     1.0  0.97565  0.59979  0.86982  1.0000
  C   C1856     1.0  0.94412  0.60263  0.88294  1.0000
  C   C1857     1.0  0.96536  0.59737  0.90159  1.0000
  H   H2926     1.0  0.79805  0.82912  0.60922  1.0000
  H   H2927     1.0  0.95705  0.63287  0.86793  1.0000
  H   H2928     1.0  0.91121  0.98459  0.56887  1.0000
  H   H2929     1.0  0.97732  0.58524  0.87106  1.0000
  H   H2930     1.0  0.97311  0.60659  0.85630  1.0000
  H   H2931     1.0  0.98871  0.60212  0.87035  1.0000
  H   H2932     1.0  0.94501  0.58810  0.88483  1.0000
  S   S752      1.0  0.89419  0.60254  0.96801  1.0000
  C   C1858     1.0  0.94055  0.66300  0.72852  1.0000
  H   H2933     1.0  0.95788  0.71153  0.88422  1.0000
  H   H2934     1.0  0.77142  0.82487  0.57916  1.0000
  H   H2935     1.0  0.91500  0.66117  0.75867  1.0000
  H   H2936     1.0  0.79572  0.61164  0.52671  1.0000
  H   H2937     1.0  0.92681  0.66659  0.72584  1.0000
  H   H2938     1.0  0.96359  0.70885  0.86152  1.0000
  C   C1859     1.0  0.78655  0.56131  0.77770  1.0000
  H   H2939     1.0  0.89452  0.96652  0.54886  1.0000
  S   S753      1.0  0.98553  0.55508  0.85087  1.0000
  H   H2940     1.0  0.93411  0.69118  0.75612  1.0000
  H   H2941     1.0  0.86489  0.57456  0.86172  1.0000
  H   H2942     1.0  0.86973  0.54170  0.87014  1.0000
  C   C1860     1.0  0.94203  0.87605  0.65106  1.0000
  H   H2943     1.0  0.95610  0.87156  0.65281  1.0000
  C   C1861     1.0  0.95006  0.67988  0.86756  1.0000
  H   H2944     1.0  0.92058  0.88419  0.61710  1.0000
  C   C1862     1.0  0.92204  0.88327  0.63087  1.0000
  H   H2945     1.0  0.93667  0.88914  0.65513  1.0000
  H   H2946     1.0  0.91395  0.87377  0.64016  1.0000
  H   H2947     1.0  0.94584  0.90414  0.62424  1.0000
  S   S754      1.0  0.87735  0.61007  0.93219  1.0000
  C   C1863     1.0  0.75652  0.75272  0.89048  1.0000
  C   C1864     1.0  0.95103  0.89087  0.62048  1.0000
  C   C1865     1.0  0.76985  0.60142  0.66624  1.0000
  H   H2948     1.0  0.96546  0.88681  0.62103  1.0000
  H   H2949     1.0  0.81151  0.84520  0.56011  1.0000
  H   H2950     1.0  0.76730  0.65197  0.50475  1.0000
  H   H2951     1.0  0.79368  0.83892  0.55487  1.0000
  C   C1866     1.0  0.95331  0.64846  0.93876  1.0000
  Fe  Fe371     1.0  0.78653  0.68506  0.88160  1.0000
  C   C1867     1.0  0.94851  0.86000  0.62751  1.0000
  H   H2952     1.0  0.78660  0.73825  0.91027  1.0000
  C   C1868     1.0  0.76083  0.60317  0.79597  1.0000
  H   H2953     1.0  0.83583  0.70339  0.62046  1.0000
  H   H2954     1.0  0.79044  0.94658  0.72334  1.0000
  H   H2955     1.0  0.96284  0.85523  0.62838  1.0000
  H   H2956     1.0  0.87009  0.88808  0.59473  1.0000
  S   S755      1.0  0.87573  0.57269  0.96243  1.0000
  H   H2957     1.0  0.85917  0.91279  0.60992  1.0000
  H   H2958     1.0  0.83706  0.89698  0.60813  1.0000
  H   H2959     1.0  0.93881  0.67313  0.86965  1.0000
  H   H2960     1.0  0.97500  0.88293  0.58152  1.0000
  C   C1869     1.0  0.97457  0.83553  0.54661  1.0000
  C   C1870     1.0  0.76716  0.62098  0.63758  1.0000
  C   C1871     1.0  0.85739  0.92167  0.59686  1.0000
  C   C1872     1.0  0.83542  0.90643  0.59531  1.0000
  C   C1873     1.0  0.86654  0.89686  0.58222  1.0000
  H   H2961     1.0  0.83130  0.89925  0.58734  1.0000
  H   H2962     1.0  0.86255  0.88859  0.57528  1.0000
  H   H2963     1.0  0.87894  0.90100  0.57384  1.0000
  C   C1874     1.0  0.79263  0.53785  0.70615  1.0000
  S   S756      1.0  0.95859  0.64887  0.97122  1.0000
  C   C1875     1.0  0.97394  0.84526  0.57321  1.0000
  H   H2964     1.0  0.79010  0.57329  0.69561  1.0000
  C   C1876     1.0  0.97297  0.58342  0.98687  1.0000
  C   C1877     1.0  0.76966  0.61820  0.65489  1.0000
  H   H2965     1.0  0.81155  0.82211  0.56277  1.0000
  S   S757      1.0  0.91443  0.57998  0.93667  1.0000
  H   H2966     1.0  0.95159  0.64320  0.91425  1.0000
  N   N186      1.0  0.85220  0.91246  0.58579  1.0000
  H   H2967     1.0  0.84714  0.93375  0.59965  1.0000
  H   H2968     1.0  0.87038  0.92583  0.59035  1.0000
  H   H2969     1.0  0.82429  0.91780  0.59839  1.0000
  C   C1878     1.0  0.76906  0.62783  0.86131  1.0000
  H   H2970     1.0  0.91218  0.78994  0.57270  1.0000
  C   C1879     1.0  0.92012  0.79642  0.57774  1.0000
  Fe  Fe372     1.0  0.86842  0.60190  0.96186  1.0000
  C   C1880     1.0  0.92073  0.82033  0.55164  1.0000
  Fe  Fe373     1.0  0.98887  0.52569  0.85457  1.0000
  C   C1881     1.0  0.94525  0.64300  0.92807  1.0000
  H   H2971     1.0  0.80721  0.56072  0.72801  1.0000
  H   H2972     1.0  0.97747  0.90378  0.58432  1.0000
  H   H2973     1.0  0.75363  0.83656  0.83814  1.0000
  N   N187      1.0  0.80458  0.54829  0.70814  1.0000
  C   C1882     1.0  0.95433  0.55184  0.81699  1.0000
  C   C1883     1.0  0.94610  0.64678  0.95702  1.0000
  S   S758      1.0  0.79702  0.68359  0.94162  1.0000
  H   H2974     1.0  0.96853  0.90311  0.56612  1.0000
  H   H2975     1.0  0.79633  0.53471  0.69265  1.0000
  H   H2976     1.0  0.84278  0.55936  0.85882  1.0000
  H   H2977     1.0  0.86752  0.57482  0.88327  1.0000
  H   H2978     1.0  0.82550  0.57308  0.87203  1.0000
  H   H2979     1.0  0.91688  0.79267  0.59256  1.0000
  H   H2980     1.0  0.92413  0.83879  0.57416  1.0000
  Fe  Fe374     1.0  0.76437  0.67179  0.56273  1.0000
  H   H2981     1.0  0.79055  0.73708  0.95605  1.0000
  C   C1884     1.0  0.95885  0.56905  0.78684  1.0000
  S   S759      1.0  0.98940  0.94307  0.63722  1.0000
  H   H2982     1.0  0.86789  0.83856  0.74919  1.0000
  H   H2983     1.0  0.84778  0.58798  0.87527  1.0000
  H   H2984     1.0  0.82852  0.57361  0.90224  1.0000
  H   H2985     1.0  0.83679  0.86010  0.73084  1.0000
  H   H2986     1.0  0.82795  0.53424  0.69272  1.0000
  H   H2987     1.0  0.79713  0.71969  0.92500  1.0000
  C   C1885     1.0  0.00046  0.66437  0.85765  1.0000
  C   C1886     1.0  0.92972  0.64150  0.96416  1.0000
  H   H2988     1.0  0.77622  0.76395  0.93640  1.0000
  Fe  Fe375     1.0  0.79729  0.71931  0.88068  1.0000
  C   C1887     1.0  0.84951  0.92482  0.56876  1.0000
  H   H2989     1.0  0.83816  0.93629  0.57090  1.0000
  N   N188      1.0  0.94576  0.69255  0.87944  1.0000
  C   C1888     1.0  0.77524  0.65335  0.86801  1.0000
  C   C1889     1.0  0.85757  0.57503  0.87563  1.0000
  C   C1890     1.0  0.83578  0.56040  0.87275  1.0000
  Fe  Fe376     1.0  0.99183  0.54849  0.87793  1.0000
  S   S760      1.0  0.75665  0.61107  0.55631  1.0000
  Fe  Fe377     1.0  0.90251  0.57387  0.96591  1.0000
  H   H2990     1.0  0.93129  0.71404  0.86245  1.0000
  C   C1891     1.0  0.94293  0.68274  0.89820  1.0000
  H   H2991     1.0  0.97328  0.69196  0.87829  1.0000
  H   H2992     1.0  0.78368  0.54919  0.78696  1.0000
  C   C1892     1.0  0.85025  0.86355  0.72609  1.0000
  H   H2993     1.0  0.84945  0.87440  0.71395  1.0000
  H   H2994     1.0  0.88193  0.86376  0.70301  1.0000
  H   H2995     1.0  0.95299  0.56211  0.98421  1.0000
  Fe  Fe378     1.0  0.97914  0.94877  0.59089  1.0000
  C   C1893     1.0  0.98374  0.55697  0.80163  1.0000
  C   C1894     1.0  0.92712  0.82399  0.57827  1.0000
  H   H2996     1.0  0.86162  0.93039  0.56173  1.0000
  H   H2997     1.0  0.84667  0.91791  0.55967  1.0000
  C   C1895     1.0  0.82311  0.53772  0.70608  1.0000
  H   H2998     1.0  0.95722  0.54929  0.83047  1.0000
  H   H2999     1.0  0.81859  0.69071  0.63001  1.0000
  H   H3000     1.0  0.93529  0.81585  0.54636  1.0000
  H   H3001     1.0  0.83246  0.54524  0.70754  1.0000
  C   C1896     1.0  0.80641  0.65850  0.97029  1.0000
  H   H3002     1.0  0.75806  0.59015  0.79599  1.0000
  H   H3003     1.0  0.91792  0.69946  0.87812  1.0000
  H   H3004     1.0  0.77973  0.78598  0.87499  1.0000
  H   H3005     1.0  0.98819  0.55308  0.81448  1.0000
  H   H3006     1.0  0.85264  0.86912  0.73643  1.0000
  H   H3007     1.0  0.88543  0.85841  0.72536  1.0000
  C   C1897     1.0  0.77083  0.76120  0.88191  1.0000
  H   H3008     1.0  0.75953  0.62107  0.85989  1.0000
  S   S761      1.0  0.97968  0.92297  0.61097  1.0000
  H   H3009     1.0  0.82862  0.54920  0.87838  1.0000
  Fe  Fe379     1.0  0.90855  0.90904  0.50994  1.0000
  S   S762      1.0  0.77769  0.70404  0.90011  1.0000
  C   C1898     1.0  0.88191  0.85318  0.71542  1.0000
  H   H3010     1.0  0.85983  0.85137  0.69611  1.0000
  C   C1899     1.0  0.80387  0.56497  0.69433  1.0000
  N   N189      1.0  0.84855  0.55985  0.88355  1.0000
  N   N190      1.0  0.86439  0.84788  0.72216  1.0000
  C   C1900     1.0  0.86045  0.84098  0.70849  1.0000
  H   H3011     1.0  0.92465  0.82041  0.59308  1.0000
  H   H3012     1.0  0.95533  0.67303  0.90109  1.0000
  H   H3013     1.0  0.78469  0.56046  0.72803  1.0000
  H   H3014     1.0  0.84724  0.83700  0.71295  1.0000
  H   H3015     1.0  0.89284  0.84173  0.71200  1.0000
  H   H3016     1.0  0.87545  0.82180  0.73600  1.0000
  H   H3017     1.0  0.91339  0.81384  0.54595  1.0000
  C   C1901     1.0  0.83887  0.56105  0.90196  1.0000
  C   C1902     1.0  0.86207  0.54297  0.88383  1.0000
  H   H3018     1.0  0.81388  0.81644  0.59427  1.0000
  C   C1903     1.0  0.86494  0.83382  0.73856  1.0000
  H   H3019     1.0  0.87094  0.82933  0.70488  1.0000
  H   H3020     1.0  0.88847  0.81725  0.57280  1.0000
  S   S763      1.0  0.91768  0.55416  0.98578  1.0000
  H   H3021     1.0  0.85480  0.67849  0.60658  1.0000
  C   C1904     1.0  0.96531  0.60043  0.95896  1.0000
  H   H3022     1.0  0.95515  0.60481  0.95053  1.0000
  H   H3023     1.0  0.85578  0.53117  0.88965  1.0000
  C   C1905     1.0  0.94216  0.59689  0.98552  1.0000
  H   H3024     1.0  0.89433  0.53927  0.97439  1.0000
  H   H3025     1.0  0.85191  0.82953  0.74392  1.0000
  H   H3026     1.0  0.77374  0.92024  0.75613  1.0000
  H   H3027     1.0  0.77114  0.62802  0.51180  1.0000
  H   H3028     1.0  0.99182  0.56649  0.79234  1.0000
  C   C1906     1.0  0.82975  0.63180  0.96841  1.0000
  H   H3029     1.0  0.95460  0.60205  0.91258  1.0000
  H   H3030     1.0  0.87190  0.54217  0.89187  1.0000
  C   C1907     1.0  0.79679  0.62433  0.52939  1.0000
  Fe  Fe380     1.0  0.90370  0.60861  0.93832  1.0000
  S   S764      1.0  0.76606  0.64249  0.62429  1.0000
  H   H3031     1.0  0.92431  0.96274  0.52962  1.0000
  Fe  Fe381     1.0  0.97534  0.73243  0.64688  1.0000
  S   S765      1.0  0.79171  0.74936  0.87221  1.0000
  H   H3032     1.0  0.91723  0.83496  0.54630  1.0000
  S   S766      1.0  0.77561  0.64297  0.57338  1.0000
  H   H3033     1.0  0.92378  0.64072  0.97819  1.0000
  C   C1908     1.0  0.75257  0.78880  0.89019  1.0000
  H   H3034     1.0  0.79617  0.66686  0.97827  1.0000
  Fe  Fe382     1.0  0.98907  0.96722  0.61489  1.0000
  H   H3035     1.0  0.77574  0.61963  0.82326  1.0000
  C   C1909     1.0  0.91932  0.97823  0.55759  1.0000
  H   H3036     1.0  0.79444  0.59160  0.80233  1.0000
  H   H3037     1.0  0.77349  0.85275  0.59830  1.0000
  H   H3038     1.0  0.83202  0.54970  0.90846  1.0000
  H   H3039     1.0  0.76048  0.84906  0.81611  1.0000
  H   H3040     1.0  0.80775  0.56223  0.68066  1.0000
  H   H3041     1.0  0.90868  0.63260  0.95888  1.0000
  H   H3042     1.0  0.83751  0.66582  0.61583  1.0000
  H   H3043     1.0  0.75392  0.92320  0.74815  1.0000
  C   C1910     1.0  0.76526  0.60681  0.63143  1.0000
  H   H3044     1.0  0.93964  0.55682  0.81830  1.0000
  C   C1911     1.0  0.76801  0.58718  0.66023  1.0000
  H   H3045     1.0  0.76696  0.71263  0.93919  1.0000
  C   C1912     1.0  0.76592  0.58980  0.64273  1.0000
  C   C1913     1.0  0.78030  0.73023  0.95532  1.0000
  N   N191      1.0  0.76682  0.60247  0.81225  1.0000
  H   H3046     1.0  0.96481  0.57882  0.82356  1.0000
  H   H3047     1.0  0.91994  0.96364  0.56223  1.0000
  Fe  Fe383     1.0  0.75676  0.64751  0.59886  1.0000
  H   H3048     1.0  0.96133  0.55683  0.78150  1.0000
  H   H3049     1.0  0.93170  0.60082  0.97745  1.0000
  H   H3050     1.0  0.97019  0.56489  0.96436  1.0000
  H   H3051     1.0  0.99616  0.76178  0.62536  1.0000
  S   S767      1.0  0.75812  0.85984  0.86317  1.0000
  N   N192      1.0  0.91155  0.98547  0.54154  1.0000
  H   H3052     1.0  0.98728  0.74305  0.71008  1.0000
  C   C1914     1.0  0.98926  0.75306  0.69734  1.0000
  H   H3053     1.0  0.78097  0.57522  0.81333  1.0000
  H   H3054     1.0  0.91814  0.98312  0.51418  1.0000
  H   H3055     1.0  0.78268  0.65808  0.53352  1.0000
  C   C1915     1.0  0.77075  0.61987  0.81137  1.0000
  S   S768      1.0  0.99763  0.99247  0.61456  1.0000
  H   H3056     1.0  0.99787  0.76393  0.66162  1.0000
  H   H3057     1.0  0.99361  0.87133  0.55435  1.0000
  H   H3058     1.0  0.93709  0.97983  0.52378  1.0000
  H   H3059     1.0  0.76180  0.94983  0.71431  1.0000
  H   H3060     1.0  0.81385  0.63880  0.99302  1.0000
  H   H3061     1.0  0.99480  0.73243  0.67396  1.0000
  H   H3062     1.0  0.75884  0.80083  0.82709  1.0000
  C   C1916     1.0  0.99735  0.88455  0.54877  1.0000
  H   H3063     1.0  0.75778  0.73894  0.89028  1.0000
  H   H3064     1.0  0.81681  0.63797  0.49825  1.0000
  H   H3065     1.0  0.76438  0.57882  0.63807  1.0000
  H   H3066     1.0  0.75684  0.73184  0.92477  1.0000
  H   H3067     1.0  0.76275  0.76171  0.92269  1.0000
  C   C1917     1.0  0.76296  0.90017  0.82000  1.0000
  H   H3068     1.0  0.75560  0.84070  0.78991  1.0000
  C   C1918     1.0  0.75485  0.82724  0.79854  1.0000
  C   C1919     1.0  0.75468  0.95309  0.75747  1.0000
  H   H3069     1.0  0.75254  0.96783  0.75531  1.0000
  H   H3070     1.0  0.75300  0.96963  0.72339  1.0000
  C   C1920     1.0  0.91046  0.53382  0.99374  1.0000
  H   H3071     1.0  0.80243  0.62601  0.49430  1.0000
  Fe  Fe384     1.0  0.75259  0.63656  0.56630  1.0000
  H   H3072     1.0  0.93447  0.49820  0.98012  1.0000
