data_image0
_chemical_formula_structural       HCH3CHCHSH4NHC2HCH2NHCH2SH2C2H2CHC2HC2HSH3CH5C2H3CSFeHFeS2FeSFeS3HCHC2H4NC6H7FeCH3SCH4FeSHCH2CHCH2CHC2H2C2H3CHCH2CHCSCSH2CSCNH2C4H2CH2Fe2S2C3H2NSH3SH2C2H2CHCHFeSCH3FeSHSCHCH3C3H3CH2SH4CHNC4HSN2CHCHN2HFeHCHCHSFeSFeS2FeCFeHSHSCH2C2HSC6H6C2SH2CH3SCHCH2FeH4CHCHC3HCH3C2SHCFeSHFeS2Fe2CS2H3CH3C2H4SH3CHCHCH2CSFeS2FeH2FeHFeS2C2HCSCHSCHCH4CHCHCH2SH5NHCH4C2H2CNHCFeSHFeS2FeHFeHS2H2C2HCNC3SCH2CHS2CH4CH4CFeS2FeSFeSFeS2C2NC2H5CHNCHCHCHSH3CH4CH4CHCH2CFeS2FeCSHC3HCH2FeH2SH5SH3CH2CHC2FeSFeS2FeS2FeCFeS2H6C2H3SHC6H4CH2CN2HCHCHC2HCHCH4CSH2CNHC3H4CH3SH2CSHC2H3CH2CHSFeSH2SFe3HSHNHSH2SHCH4SFeC6H3C2HCHC2HCHCSCH2CH3C2H4CH3CH2CHFeS2H2SFeH2C2HC3HCNCSCHC2H2NH2CH2C2S2H3NC3FeSHC3HCH2CH2CH4C2H3SH3C2HCHC2H2CNHCH9C2H3SHCHCH2CHNHCHCH2C2
_chemical_formula_sum              "H384 C240 S96 N24 Fe48"
_cell_length_a       42.5735
_cell_length_b       43.0179
_cell_length_c       29.6707
_cell_angle_alpha    90.0241
_cell_angle_beta     90.3473
_cell_angle_gamma    120.033

_space_group_name_H-M_alt    "P 1"
_space_group_IT_number       1

loop_
  _space_group_symop_operation_xyz
  'x, y, z'

loop_
  _atom_site_type_symbol
  _atom_site_label
  _atom_site_symmetry_multiplicity
  _atom_site_fract_x
  _atom_site_fract_y
  _atom_site_fract_z
  _atom_site_occupancy
  H   H1        1.0  0.49403  0.04741  0.56081  1.0000
  C   C1        1.0  0.48221  0.22352  0.68886  1.0000
  H   H2        1.0  0.45663  0.19974  0.68073  1.0000
  H   H3        1.0  0.48443  0.17847  0.88781  1.0000
  H   H4        1.0  0.49477  0.04826  0.74211  1.0000
  C   C2        1.0  0.48250  0.19848  0.86597  1.0000
  H   H5        1.0  0.47474  0.18653  0.83147  1.0000
  C   C3        1.0  0.49101  0.02226  0.75117  1.0000
  H   H6        1.0  0.45999  0.20209  0.87871  1.0000
  S   S1        1.0  0.49760  0.17786  0.73458  1.0000
  H   H7        1.0  0.14538  0.46827  0.47721  1.0000
  H   H8        1.0  0.13253  0.45054  0.53267  1.0000
  H   H9        1.0  0.09873  0.45538  0.41883  1.0000
  H   H10       1.0  0.47150  0.34155  0.17703  1.0000
  N   N1        1.0  0.49282  0.35160  0.24478  1.0000
  H   H11       1.0  0.05861  0.46733  0.49656  1.0000
  C   C4        1.0  0.46920  0.49297  0.11288  1.0000
  C   C5        1.0  0.07897  0.43223  0.43944  1.0000
  H   H12       1.0  0.45491  0.36372  0.21211  1.0000
  C   C6        1.0  0.22090  0.46958  0.10831  1.0000
  H   H13       1.0  0.05169  0.42867  0.43172  1.0000
  H   H14       1.0  0.03300  0.40209  0.50835  1.0000
  N   N2        1.0  0.08771  0.43872  0.48807  1.0000
  H   H15       1.0  0.48053  0.29671  0.25115  1.0000
  C   C7        1.0  0.25334  0.47297  0.12471  1.0000
  H   H16       1.0  0.07938  0.40796  0.42735  1.0000
  H   H17       1.0  0.43868  0.31650  0.21962  1.0000
  S   S2        1.0  0.49551  0.41513  0.13177  1.0000
  H   H18       1.0  0.45669  0.32685  0.30044  1.0000
  H   H19       1.0  0.47219  0.37384  0.29331  1.0000
  C   C8        1.0  0.46936  0.46193  0.12762  1.0000
  C   C9        1.0  0.46310  0.34282  0.21213  1.0000
  H   H20       1.0  0.44882  0.44389  0.15084  1.0000
  H   H21       1.0  0.06159  0.38254  0.50406  1.0000
  C   C10       1.0  0.12465  0.44477  0.49644  1.0000
  H   H22       1.0  0.25266  0.45192  0.14539  1.0000
  C   C11       1.0  0.08606  0.47076  0.50241  1.0000
  C   C12       1.0  0.06112  0.40726  0.51400  1.0000
  H   H23       1.0  0.12700  0.42112  0.48634  1.0000
  C   C13       1.0  0.48044  0.35308  0.29073  1.0000
  C   C14       1.0  0.49591  0.45419  0.11246  1.0000
  H   H24       1.0  0.19534  0.44589  0.11625  1.0000
  S   S3        1.0  0.17975  0.49093  0.06227  1.0000
  H   H25       1.0  0.09317  0.47709  0.53870  1.0000
  H   H26       1.0  0.06691  0.41139  0.55085  1.0000
  H   H27       1.0  0.10536  0.49467  0.48286  1.0000
  C   C15       1.0  0.48924  0.47478  0.68961  1.0000
  H   H28       1.0  0.23769  0.48249  0.87678  1.0000
  H   H29       1.0  0.05553  0.49171  0.05375  1.0000
  H   H30       1.0  0.47118  0.45494  0.66540  1.0000
  H   H31       1.0  0.27238  0.49562  0.91896  1.0000
  H   H32       1.0  0.19459  0.47640  0.93791  1.0000
  C   C16       1.0  0.02955  0.48948  0.04649  1.0000
  C   C17       1.0  0.48885  0.25716  0.67405  1.0000
  H   H33       1.0  0.23035  0.49091  0.97919  1.0000
  H   H34       1.0  0.46844  0.25916  0.65437  1.0000
  H   H35       1.0  0.49334  0.26553  0.84919  1.0000
  C   C18       1.0  0.29595  0.54253  0.24345  1.0000
  S   S4        1.0  0.19191  0.64292  0.14385  1.0000
  Fe  Fe1       1.0  0.12694  0.54750  0.42324  1.0000
  H   H36       1.0  0.26709  0.69178  0.23928  1.0000
  Fe  Fe2       1.0  0.18640  0.62105  0.45561  1.0000
  S   S5        1.0  0.23078  0.60803  0.44746  1.0000
  S   S6        1.0  0.19733  0.67316  0.48675  1.0000
  Fe  Fe3       1.0  0.20246  0.58310  0.38200  1.0000
  S   S7        1.0  0.23393  0.58778  0.31887  1.0000
  Fe  Fe4       1.0  0.19143  0.55544  0.47888  1.0000
  S   S8        1.0  0.20231  0.52752  0.53623  1.0000
  S   S9        1.0  0.16060  0.60008  0.38774  1.0000
  S   S10       1.0  0.14866  0.57016  0.49190  1.0000
  H   H37       1.0  0.26942  0.54174  0.24445  1.0000
  C   C19       1.0  0.22129  0.49684  0.08231  1.0000
  H   H38       1.0  0.31978  0.57360  0.16306  1.0000
  C   C20       1.0  0.26500  0.71129  0.44794  1.0000
  C   C21       1.0  0.23698  0.71251  0.47083  1.0000
  H   H39       1.0  0.29466  0.59176  0.18916  1.0000
  H   H40       1.0  0.20608  0.62307  0.55929  1.0000
  H   H41       1.0  0.38968  0.71443  0.18778  1.0000
  H   H42       1.0  0.26231  0.68575  0.43892  1.0000
  N   N3        1.0  0.07088  0.58540  0.14284  1.0000
  C   C22       1.0  0.20141  0.62546  0.19216  1.0000
  C   C23       1.0  0.21682  0.60350  0.18859  1.0000
  C   C24       1.0  0.22610  0.59142  0.22768  1.0000
  C   C25       1.0  0.21926  0.60053  0.27036  1.0000
  C   C26       1.0  0.20265  0.62140  0.27380  1.0000
  C   C27       1.0  0.19413  0.63423  0.23481  1.0000
  H   H43       1.0  0.22210  0.59625  0.15575  1.0000
  H   H44       1.0  0.23803  0.57451  0.22480  1.0000
  H   H45       1.0  0.19716  0.62837  0.30652  1.0000
  H   H46       1.0  0.18194  0.65097  0.23770  1.0000
  H   H47       1.0  0.34296  0.61923  0.18295  1.0000
  H   H48       1.0  0.28008  0.73798  0.23092  1.0000
  H   H49       1.0  0.36626  0.57023  0.26753  1.0000
  Fe  Fe5       1.0  0.18462  0.60943  0.08218  1.0000
  C   C28       1.0  0.10009  0.59185  0.17523  1.0000
  H   H50       1.0  0.25479  0.72277  0.35201  1.0000
  H   H51       1.0  0.00014  0.54048  0.50221  1.0000
  H   H52       1.0  0.05735  0.54635  0.47231  1.0000
  S   S11       1.0  0.16725  0.52898  0.41270  1.0000
  C   C29       1.0  0.04848  0.54649  0.13373  1.0000
  H   H53       1.0  0.06577  0.59996  0.07479  1.0000
  H   H54       1.0  0.43739  0.69276  0.51467  1.0000
  H   H55       1.0  0.27838  0.67159  0.31173  1.0000
  H   H56       1.0  0.27006  0.57761  0.49361  1.0000
  Fe  Fe6       1.0  0.45628  0.57158  0.08831  1.0000
  S   S12       1.0  0.49633  0.55548  0.06298  1.0000
  H   H57       1.0  0.11811  0.62102  0.18214  1.0000
  C   C30       1.0  0.27612  0.57034  0.52599  1.0000
  H   H58       1.0  0.41374  0.67474  0.16570  1.0000
  H   H59       1.0  0.36064  0.56034  0.20836  1.0000
  C   C31       1.0  0.25453  0.52733  0.07174  1.0000
  H   H60       1.0  0.06506  0.53559  0.11919  1.0000
  C   C32       1.0  0.49562  0.51642  0.08280  1.0000
  H   H61       1.0  0.35037  0.63172  0.26513  1.0000
  H   H62       1.0  0.30535  0.68377  0.54541  1.0000
  C   C33       1.0  0.28654  0.50322  0.11428  1.0000
  H   H63       1.0  0.02630  0.54061  0.10910  1.0000
  C   C34       1.0  0.41692  0.72852  0.25233  1.0000
  C   C35       1.0  0.45336  0.70099  0.26907  1.0000
  H   H64       1.0  0.40530  0.66065  0.55341  1.0000
  H   H65       1.0  0.08902  0.57818  0.20793  1.0000
  C   C36       1.0  0.24080  0.74579  0.48229  1.0000
  C   C37       1.0  0.32749  0.60388  0.27045  1.0000
  H   H66       1.0  0.10449  0.63392  0.10574  1.0000
  H   H67       1.0  0.26208  0.66459  0.51754  1.0000
  H   H68       1.0  0.06396  0.62808  0.16921  1.0000
  C   C38       1.0  0.04788  0.59876  0.16203  1.0000
  H   H69       1.0  0.02555  0.59418  0.13832  1.0000
  C   C39       1.0  0.28764  0.71986  0.24867  1.0000
  H   H70       1.0  0.33110  0.59507  0.30440  1.0000
  H   H71       1.0  0.03576  0.53108  0.16494  1.0000
  C   C40       1.0  0.36083  0.57898  0.23456  1.0000
  H   H72       1.0  0.38425  0.60609  0.22734  1.0000
  C   C41       1.0  0.08701  0.60449  0.10028  1.0000
  S   S13       1.0  0.39078  0.60863  0.11350  1.0000
  C   C42       1.0  0.32067  0.59158  0.19057  1.0000
  S   S14       1.0  0.13895  0.55254  0.08379  1.0000
  H   H73       1.0  0.47130  0.69736  0.29171  1.0000
  H   H74       1.0  0.23222  0.69120  0.30728  1.0000
  C   C43       1.0  0.43980  0.72353  0.28168  1.0000
  S   S15       1.0  0.47415  0.63041  0.08603  1.0000
  C   C44       1.0  0.42071  0.68790  0.19821  1.0000
  N   N4        1.0  0.32622  0.57924  0.23481  1.0000
  H   H75       1.0  0.11772  0.58170  0.16197  1.0000
  H   H76       1.0  0.03522  0.58488  0.19416  1.0000
  C   C45       1.0  0.40723  0.71051  0.21073  1.0000
  C   C46       1.0  0.31234  0.58518  0.54023  1.0000
  C   C47       1.0  0.03141  0.52564  0.45938  1.0000
  C   C48       1.0  0.24802  0.54561  0.55314  1.0000
  H   H77       1.0  0.33393  0.60411  0.51880  1.0000
  H   H78       1.0  0.29396  0.52342  0.21664  1.0000
  C   C49       1.0  0.43019  0.68745  0.55095  1.0000
  H   H79       1.0  0.32579  0.70465  0.30838  1.0000
  H   H80       1.0  0.30189  0.60496  0.27121  1.0000
  Fe  Fe7       1.0  0.37961  0.55199  0.11478  1.0000
  Fe  Fe8       1.0  0.44222  0.62114  0.14955  1.0000
  S   S16       1.0  0.46201  0.65564  0.21245  1.0000
  S   S17       1.0  0.42907  0.56375  0.15528  1.0000
  C   C50       1.0  0.44399  0.68322  0.22726  1.0000
  C   C51       1.0  0.29888  0.70001  0.31977  1.0000
  C   C52       1.0  0.25421  0.71895  0.31481  1.0000
  H   H81       1.0  0.28032  0.63659  0.53418  1.0000
  H   H82       1.0  0.47383  0.66157  0.52839  1.0000
  N   N5        1.0  0.28958  0.72534  0.29805  1.0000
  S   S18       1.0  0.06977  0.50492  0.40356  1.0000
  H   H83       1.0  0.31421  0.72510  0.23507  1.0000
  H   H84       1.0  0.30005  0.70276  0.35704  1.0000
  H   H85       1.0  0.29951  0.53208  0.27623  1.0000
  S   S19       1.0  0.32620  0.50653  0.13728  1.0000
  H   H86       1.0  0.10431  0.59496  0.08467  1.0000
  H   H87       1.0  0.44729  0.73717  0.31393  1.0000
  C   C53       1.0  0.28726  0.53032  0.08727  1.0000
  C   C54       1.0  0.03008  0.50233  0.42557  1.0000
  H   H88       1.0  0.31291  0.55362  0.07877  1.0000
  H   H89       1.0  0.24642  0.73763  0.29910  1.0000
  C   C55       1.0  0.29680  0.74331  0.43701  1.0000
  H   H90       1.0  0.31843  0.74213  0.42024  1.0000
  C   C56       1.0  0.27760  0.65999  0.54437  1.0000
  H   H91       1.0  0.44865  0.49871  0.12476  1.0000
  Fe  Fe9       1.0  0.12410  0.56458  0.01617  1.0000
  S   S20       1.0  0.16790  0.62280  0.01636  1.0000
  C   C57       1.0  0.28189  0.64992  0.62349  1.0000
  H   H92       1.0  0.49907  0.61781  0.93981  1.0000
  H   H93       1.0  0.26893  0.64501  0.65716  1.0000
  H   H94       1.0  0.20880  0.61559  0.61841  1.0000
  Fe  Fe10      1.0  0.20371  0.60437  0.98481  1.0000
  S   S21       1.0  0.24101  0.62422  0.92449  1.0000
  H   H95       1.0  0.42441  0.69906  0.94025  1.0000
  S   S22       1.0  0.15824  0.54719  0.97837  1.0000
  C   C58       1.0  0.36563  0.68586  0.88957  1.0000
  H   H96       1.0  0.26262  0.57169  0.96304  1.0000
  C   C59       1.0  0.29277  0.55037  0.60881  1.0000
  H   H97       1.0  0.39524  0.71054  0.97024  1.0000
  H   H98       1.0  0.29910  0.54244  0.64066  1.0000
  H   H99       1.0  0.20363  0.51415  0.86948  1.0000
  C   C60       1.0  0.26342  0.66967  0.90841  1.0000
  C   C61       1.0  0.26551  0.69660  0.93683  1.0000
  C   C62       1.0  0.28067  0.67903  0.86647  1.0000
  H   H100      1.0  0.25225  0.68956  0.96925  1.0000
  H   H101      1.0  0.27884  0.65824  0.84420  1.0000
  H   H102      1.0  0.25503  0.54823  0.05113  1.0000
  C   C63       1.0  0.45795  0.56397  0.88288  1.0000
  H   H103      1.0  0.45268  0.59763  0.95696  1.0000
  H   H104      1.0  0.48437  0.59211  0.99079  1.0000
  S   S23       1.0  0.06728  0.55271  0.99821  1.0000
  H   H105      1.0  0.28754  0.54831  0.96923  1.0000
  H   H106      1.0  0.42565  0.66007  0.63344  1.0000
  H   H107      1.0  0.36874  0.74367  0.92866  1.0000
  H   H108      1.0  0.42921  0.50391  0.93272  1.0000
  C   C64       1.0  0.48363  0.50321  0.70171  1.0000
  H   H109      1.0  0.20549  0.51407  0.97364  1.0000
  N   N6        1.0  0.39861  0.72076  0.89890  1.0000
  C   C65       1.0  0.42504  0.72914  0.86230  1.0000
  C   C66       1.0  0.22531  0.53703  0.88892  1.0000
  C   C67       1.0  0.30008  0.71507  0.85297  1.0000
  C   C68       1.0  0.49363  0.72410  0.57045  1.0000
  H   H110      1.0  0.49386  0.53087  0.91117  1.0000
  S   S24       1.0  0.44791  0.50638  0.67554  1.0000
  N   N7        1.0  0.46031  0.68928  0.57812  1.0000
  N   N8        1.0  0.24381  0.52497  0.92081  1.0000
  C   C69       1.0  0.49406  0.71213  0.75316  1.0000
  H   H111      1.0  0.23478  0.51639  0.61572  1.0000
  C   C70       1.0  0.30272  0.74211  0.88157  1.0000
  H   H112      1.0  0.43479  0.74346  0.74507  1.0000
  N   N9        1.0  0.25941  0.65392  0.58833  1.0000
  N   N10       1.0  0.46761  0.56054  0.92985  1.0000
  H   H113      1.0  0.31280  0.72183  0.82032  1.0000
  Fe  Fe11      1.0  0.42127  0.61269  0.05037  1.0000
  H   H114      1.0  0.48045  0.58761  0.86580  1.0000
  C   C71       1.0  0.47636  0.59347  0.95538  1.0000
  H   H115      1.0  0.27976  0.52389  0.87091  1.0000
  C   C72       1.0  0.22348  0.62094  0.58591  1.0000
  H   H116      1.0  0.37181  0.66361  0.88849  1.0000
  S   S25       1.0  0.42094  0.64252  0.98832  1.0000
  Fe  Fe12      1.0  0.38693  0.58087  0.66089  1.0000
  S   S26       1.0  0.44556  0.59576  0.65729  1.0000
  Fe  Fe13      1.0  0.38234  0.56013  0.75940  1.0000
  S   S27       1.0  0.44046  0.57359  0.76378  1.0000
  S   S28       1.0  0.34781  0.53942  0.82151  1.0000
  Fe  Fe14      1.0  0.45104  0.62226  0.72398  1.0000
  C   C73       1.0  0.41499  0.71888  0.94210  1.0000
  Fe  Fe15      1.0  0.42985  0.54573  0.69686  1.0000
  H   H117      1.0  0.35319  0.68611  0.85657  1.0000
  S   S29       1.0  0.39388  0.61131  0.72518  1.0000
  H   H118      1.0  0.24234  0.68197  0.63303  1.0000
  S   S30       1.0  0.36684  0.59473  0.59735  1.0000
  C   C74       1.0  0.46215  0.71264  0.74274  1.0000
  H   H119      1.0  0.34463  0.67907  0.91590  1.0000
  H   H120      1.0  0.47282  0.68650  0.64796  1.0000
  C   C75       1.0  0.45092  0.68583  0.62647  1.0000
  C   C76       1.0  0.25640  0.53562  0.59458  1.0000
  H   H121      1.0  0.44007  0.69006  0.72565  1.0000
  S   S31       1.0  0.22462  0.59636  0.05100  1.0000
  C   C77       1.0  0.39968  0.61412  0.94206  1.0000
  C   C78       1.0  0.37244  0.57851  0.94852  1.0000
  C   C79       1.0  0.35666  0.55569  0.91131  1.0000
  C   C80       1.0  0.36778  0.56846  0.86755  1.0000
  C   C81       1.0  0.39514  0.60407  0.86108  1.0000
  C   C82       1.0  0.41109  0.62686  0.89833  1.0000
  H   H122      1.0  0.36340  0.56857  0.98217  1.0000
  H   H123      1.0  0.33638  0.52791  0.91651  1.0000
  H   H124      1.0  0.40425  0.61397  0.82740  1.0000
  H   H125      1.0  0.43283  0.65411  0.89324  1.0000
  H   H126      1.0  0.24473  0.55689  0.86448  1.0000
  H   H127      1.0  0.43281  0.70809  0.85876  1.0000
  C   C83       1.0  0.02773  0.51496  0.01902  1.0000
  C   C84       1.0  0.28522  0.73279  0.92344  1.0000
  S   S32       1.0  0.37026  0.52827  0.69503  1.0000
  H   H128      1.0  0.44304  0.52580  0.98664  1.0000
  H   H129      1.0  0.44184  0.63307  0.56975  1.0000
  C   C85       1.0  0.25460  0.68482  0.59920  1.0000
  H   H130      1.0  0.28094  0.71042  0.59917  1.0000
  H   H131      1.0  0.29395  0.57544  0.92029  1.0000
  H   H132      1.0  0.41381  0.73118  0.82926  1.0000
  S   S33       1.0  0.40534  0.55458  0.04824  1.0000
  C   C86       1.0  0.27331  0.55646  0.94439  1.0000
  H   H133      1.0  0.45136  0.53971  0.86243  1.0000
  C   C87       1.0  0.32082  0.57515  0.58151  1.0000
  H   H134      1.0  0.43905  0.74517  0.95117  1.0000
  H   H135      1.0  0.28633  0.62701  0.61581  1.0000
  Fe  Fe16      1.0  0.17719  0.54051  0.04636  1.0000
  H   H136      1.0  0.43374  0.56741  0.88158  1.0000
  H   H137      1.0  0.44649  0.70796  0.63802  1.0000
  H   H138      1.0  0.41211  0.53224  0.95166  1.0000
  H   H139      1.0  0.30908  0.67459  0.62642  1.0000
  C   C88       1.0  0.25909  0.50593  0.89577  1.0000
  H   H140      1.0  0.21223  0.55024  0.90690  1.0000
  C   C89       1.0  0.43662  0.52923  0.95113  1.0000
  H   H141      1.0  0.48880  0.65999  0.58488  1.0000
  C   C90       1.0  0.49948  0.55548  0.93013  1.0000
  C   C91       1.0  0.21744  0.50046  0.95421  1.0000
  C   C92       1.0  0.45914  0.74289  0.75384  1.0000
  H   H142      1.0  0.22599  0.59702  0.57786  1.0000
  C   C93       1.0  0.46658  0.65975  0.56463  1.0000
  H   H143      1.0  0.23668  0.68771  0.57405  1.0000
  H   H144      1.0  0.42282  0.70745  0.56259  1.0000
  H   H145      1.0  0.27431  0.80330  0.47805  1.0000
  C   C94       1.0  0.30011  0.77660  0.44724  1.0000
  C   C95       1.0  0.27204  0.77771  0.47002  1.0000
  S   S34       1.0  0.33836  0.81729  0.43117  1.0000
  H   H146      1.0  0.34481  0.76853  0.29685  1.0000
  C   C96       1.0  0.39449  0.88436  0.52613  1.0000
  Fe  Fe17      1.0  0.41756  0.78771  0.33232  1.0000
  S   S35       1.0  0.41019  0.83585  0.33530  1.0000
  H   H147      1.0  0.38288  0.75660  0.48933  1.0000
  Fe  Fe18      1.0  0.44322  0.79746  0.43008  1.0000
  S   S36       1.0  0.43964  0.84727  0.43936  1.0000
  S   S37       1.0  0.45887  0.77824  0.49217  1.0000
  Fe  Fe19      1.0  0.38635  0.81535  0.40338  1.0000
  Fe  Fe20      1.0  0.46413  0.86279  0.37059  1.0000
  C   C97       1.0  0.48298  0.98759  0.39613  1.0000
  S   S38       1.0  0.38866  0.76469  0.39714  1.0000
  S   S39       1.0  0.47290  0.81547  0.36438  1.0000
  H   H148      1.0  0.49013  0.80261  0.27284  1.0000
  H   H149      1.0  0.31166  0.78245  0.29276  1.0000
  H   H150      1.0  0.33906  0.74707  0.54899  1.0000
  C   C98       1.0  0.31773  0.76266  0.30883  1.0000
  H   H151      1.0  0.31999  0.76792  0.34576  1.0000
  H   H152      1.0  0.47810  0.79663  0.21445  1.0000
  H   H153      1.0  0.41857  0.83774  0.54046  1.0000
  C   C99       1.0  0.48223  0.95535  0.38548  1.0000
  C   C100      1.0  0.42772  0.77140  0.53493  1.0000
  H   H154      1.0  0.46002  0.92996  0.39677  1.0000
  H   H155      1.0  0.35333  0.81221  0.52812  1.0000
  H   H156      1.0  0.48788  0.88537  0.24258  1.0000
  H   H157      1.0  0.45742  0.84074  0.22098  1.0000
  S   S40       1.0  0.40111  0.75813  0.26578  1.0000
  H   H158      1.0  0.39561  0.87108  0.49442  1.0000
  H   H159      1.0  0.46119  0.98680  0.41560  1.0000
  H   H160      1.0  0.42079  0.90986  0.52979  1.0000
  C   C101      1.0  0.39167  0.76056  0.52397  1.0000
  H   H161      1.0  0.37273  0.89124  0.52132  1.0000
  C   C102      1.0  0.48042  0.85661  0.24464  1.0000
  H   H162      1.0  0.47014  0.84764  0.27920  1.0000
  C   C103      1.0  0.36661  0.75450  0.55796  1.0000
  H   H163      1.0  0.32958  0.83231  0.55306  1.0000
  H   H164      1.0  0.21923  0.74690  0.50000  1.0000
  C   C104      1.0  0.35238  0.82702  0.55840  1.0000
  S   S41       1.0  0.48417  0.80923  0.79468  1.0000
  Fe  Fe21      1.0  0.40943  0.86328  0.74242  1.0000
  S   S42       1.0  0.35149  0.81846  0.73919  1.0000
  S   S43       1.0  0.41881  0.91797  0.72215  1.0000
  Fe  Fe22      1.0  0.43573  0.81228  0.77138  1.0000
  H   H165      1.0  0.36067  0.94096  0.90154  1.0000
  H   H166      1.0  0.42386  0.92110  0.83852  1.0000
  Fe  Fe23      1.0  0.37393  0.78696  0.70627  1.0000
  H   H167      1.0  0.32048  0.90762  0.87287  1.0000
  Fe  Fe24      1.0  0.36339  0.79979  0.80427  1.0000
  S   S44       1.0  0.43096  0.83319  0.70389  1.0000
  S   S45       1.0  0.41978  0.84700  0.81012  1.0000
  C   C105      1.0  0.37745  0.75930  0.60317  1.0000
  C   C106      1.0  0.41341  0.76990  0.61439  1.0000
  H   H168      1.0  0.41294  0.95470  0.82264  1.0000
  C   C107      1.0  0.45666  0.95689  0.74433  1.0000
  S   S46       1.0  0.32894  0.78773  0.86641  1.0000
  C   C108      1.0  0.48076  0.95460  0.77453  1.0000
  H   H169      1.0  0.47721  0.92865  0.78340  1.0000
  S   S47       1.0  0.34622  0.75420  0.64476  1.0000
  C   C109      1.0  0.35439  0.88982  0.81094  1.0000
  H   H170      1.0  0.35292  0.94726  0.84350  1.0000
  C   C110      1.0  0.35002  0.92684  0.86876  1.0000
  H   H171      1.0  0.35702  0.90911  0.78414  1.0000
  H   H172      1.0  0.36329  0.88565  0.60435  1.0000
  H   H173      1.0  0.37969  0.86152  0.63704  1.0000
  H   H174      1.0  0.42089  0.94925  0.88098  1.0000
  C   C111      1.0  0.48757  0.77204  0.77673  1.0000
  H   H175      1.0  0.28706  0.75356  0.94570  1.0000
  C   C112      1.0  0.36496  0.88129  0.88871  1.0000
  H   H176      1.0  0.36914  0.87630  0.79892  1.0000
  C   C113      1.0  0.40846  0.93450  0.84906  1.0000
  H   H177      1.0  0.42189  0.77327  0.64932  1.0000
  H   H178      1.0  0.37568  0.89395  0.92219  1.0000
  S   S48       1.0  0.38025  0.76369  0.77095  1.0000
  H   H179      1.0  0.44330  0.99277  0.70944  1.0000
  H   H180      1.0  0.37945  0.86679  0.87898  1.0000
  H   H181      1.0  0.41315  0.77599  0.90837  1.0000
  H   H182      1.0  0.32523  0.86890  0.81370  1.0000
  H   H183      1.0  0.33588  0.86041  0.89288  1.0000
  N   N11       1.0  0.36946  0.90814  0.85443  1.0000
  H   H184      1.0  0.46659  0.78546  0.58903  1.0000
  C   C114      1.0  0.38523  0.87882  0.60678  1.0000
  H   H185      1.0  0.41120  0.90417  0.61352  1.0000
  H   H186      1.0  0.41249  0.83509  0.60038  1.0000
  H   H187      1.0  0.37664  0.75149  0.86952  1.0000
  H   H188      1.0  0.45044  0.75519  0.86830  1.0000
  C   C115      1.0  0.43861  0.77628  0.58026  1.0000
  C   C116      1.0  0.46189  0.99079  0.73270  1.0000
  H   H189      1.0  0.34550  0.80875  0.58779  1.0000
  H   H190      1.0  0.48978  0.74692  0.58016  1.0000
  C   C117      1.0  0.38891  0.74923  0.90162  1.0000
  N   N12       1.0  0.38723  0.86066  0.56546  1.0000
  H   H191      1.0  0.44363  0.87709  0.57491  1.0000
  C   C118      1.0  0.41679  0.85231  0.57047  1.0000
  Fe  Fe25      1.0  0.56610  0.18333  0.32020  1.0000
  S   S49       1.0  0.58147  0.14090  0.31029  1.0000
  H   H192      1.0  0.64415  0.21164  0.49802  1.0000
  Fe  Fe26      1.0  0.58463  0.19019  0.42049  1.0000
  S   S50       1.0  0.60332  0.14984  0.41794  1.0000
  S   S51       1.0  0.57705  0.21263  0.48552  1.0000
  Fe  Fe27      1.0  0.62971  0.17747  0.35320  1.0000
  H   H193      1.0  0.56265  0.07545  0.47003  1.0000
  Fe  Fe28      1.0  0.55336  0.11702  0.37558  1.0000
  H   H194      1.0  0.68132  0.22474  0.16313  1.0000
  S   S52       1.0  0.61589  0.22118  0.35966  1.0000
  S   S53       1.0  0.53330  0.15622  0.38153  1.0000
  H   H195      1.0  0.51850  0.04143  0.48745  1.0000
  H   H196      1.0  0.53647  0.23273  0.18045  1.0000
  C   C119      1.0  0.53940  0.02153  0.35595  1.0000
  C   C120      1.0  0.63073  0.20702  0.53022  1.0000
  H   H197      1.0  0.56150  0.04694  0.34446  1.0000
  C   C121      1.0  0.59725  0.20556  0.53311  1.0000
  N   N13       1.0  0.54467  0.08694  0.53216  1.0000
  C   C122      1.0  0.75579  0.23464  0.32372  1.0000
  C   C123      1.0  0.63605  0.21830  0.22978  1.0000
  C   C124      1.0  0.51144  0.02078  0.38130  1.0000
  S   S54       1.0  0.68327  0.18773  0.32643  1.0000
  C   C125      1.0  0.54607  0.06135  0.50011  1.0000
  H   H198      1.0  0.75690  0.21447  0.30310  1.0000
  H   H199      1.0  0.64005  0.19463  0.22871  1.0000
  C   C126      1.0  0.72259  0.22816  0.34109  1.0000
  H   H200      1.0  0.59921  0.12920  0.51929  1.0000
  S   S55       1.0  0.54645  0.19898  0.25781  1.0000
  S   S56       1.0  0.51094  0.06040  0.39593  1.0000
  C   C127      1.0  0.56207  0.24451  0.24596  1.0000
  H   H201      1.0  0.61203  0.21219  0.20841  1.0000
  H   H202      1.0  0.54477  0.12186  0.48013  1.0000
  H   H203      1.0  0.55817  0.04624  0.51577  1.0000
  H   H204      1.0  0.52711  0.12607  0.53277  1.0000
  C   C128      1.0  0.52855  0.10642  0.50965  1.0000
  H   H205      1.0  0.62886  0.22077  0.26499  1.0000
  H   H206      1.0  0.50072  0.08766  0.49668  1.0000
  H   H207      1.0  0.70414  0.23393  0.24303  1.0000
  H   H208      1.0  0.65349  0.24312  0.14520  1.0000
  C   C129      1.0  0.58182  0.11281  0.54768  1.0000
  Fe  Fe29      1.0  0.56490  0.11339  0.78003  1.0000
  S   S57       1.0  0.62403  0.15536  0.78382  1.0000
  S   S58       1.0  0.55091  0.05875  0.80700  1.0000
  Fe  Fe30      1.0  0.54403  0.16896  0.75083  1.0000
  S   S59       1.0  0.60111  0.21470  0.75335  1.0000
  Fe  Fe31      1.0  0.61337  0.17555  0.71907  1.0000
  S   S60       1.0  0.65039  0.19144  0.65955  1.0000
  Fe  Fe32      1.0  0.60543  0.18984  0.81774  1.0000
  S   S61       1.0  0.55567  0.13085  0.71225  1.0000
  S   S62       1.0  0.54691  0.14668  0.81779  1.0000
  C   C130      1.0  0.59801  0.12383  0.90798  1.0000
  C   C131      1.0  0.54610  0.22690  0.84809  1.0000
  N   N14       1.0  0.51713  0.23296  0.86534  1.0000
  C   C132      1.0  0.59679  0.19629  0.61399  1.0000
  C   C133      1.0  0.63035  0.19786  0.61124  1.0000
  H   H209      1.0  0.58159  0.13164  0.57308  1.0000
  H   H210      1.0  0.63453  0.12953  0.98436  1.0000
  H   H211      1.0  0.63039  0.10563  0.84387  1.0000
  H   H212      1.0  0.59703  0.14308  0.93227  1.0000
  H   H213      1.0  0.61158  0.08363  0.96528  1.0000
  C   C134      1.0  0.64734  0.20333  0.56934  1.0000
  H   H214      1.0  0.58350  0.19214  0.64617  1.0000
  N   N15       1.0  0.63212  0.12289  0.91243  1.0000
  C   C135      1.0  0.52228  0.06721  0.57134  1.0000
  H   H215      1.0  0.66396  0.17907  0.92931  1.0000
  C   C136      1.0  0.66335  0.15922  0.90465  1.0000
  H   H216      1.0  0.68965  0.15966  0.90744  1.0000
  C   C137      1.0  0.63472  0.11097  0.95831  1.0000
  H   H217      1.0  0.65749  0.09582  0.88131  1.0000
  S   S63       1.0  0.62152  0.21740  0.88557  1.0000
  H   H218      1.0  0.66024  0.11008  0.96289  1.0000
  H   H219      1.0  0.57377  0.09686  0.91327  1.0000
  H   H220      1.0  0.66212  0.16930  0.87055  1.0000
  C   C138      1.0  0.58026  0.20004  0.57496  1.0000
  H   H221      1.0  0.60864  0.06995  0.88325  1.0000
  H   H222      1.0  0.68862  0.23646  0.83872  1.0000
  H   H223      1.0  0.67332  0.20458  0.56709  1.0000
  H   H224      1.0  0.55412  0.19841  0.57719  1.0000
  C   C139      1.0  0.63229  0.09750  0.87891  1.0000
  H   H225      1.0  0.59520  0.13257  0.87376  1.0000
  H   H226      1.0  0.52839  0.22867  0.93521  1.0000
  H   H227      1.0  0.53375  0.05236  0.58932  1.0000
  H   H228      1.0  0.52077  0.08587  0.59617  1.0000
  C   C140      1.0  0.51488  0.01995  0.78178  1.0000
  H   H229      1.0  0.53952  0.21505  0.81367  1.0000
  C   C141      1.0  0.50840  0.22048  0.71402  1.0000
  H   H230      1.0  0.55004  0.20822  0.87016  1.0000
  H   H231      1.0  0.59531  0.09912  0.56371  1.0000
  C   C142      1.0  0.66741  0.24606  0.89958  1.0000
  Fe  Fe33      1.0  0.58457  0.37473  0.14600  1.0000
  S   S64       1.0  0.59321  0.43054  0.14161  1.0000
  S   S65       1.0  0.60020  0.36206  0.21334  1.0000
  Fe  Fe34      1.0  0.53926  0.40456  0.10660  1.0000
  C   C143      1.0  0.72833  0.47492  0.23016  1.0000
  S   S66       1.0  0.52905  0.34824  0.11455  1.0000
  H   H232      1.0  0.68646  0.47688  0.16318  1.0000
  C   C144      1.0  0.59528  0.30774  0.26631  1.0000
  C   C145      1.0  0.58596  0.31680  0.22491  1.0000
  C   C146      1.0  0.56492  0.28971  0.19387  1.0000
  H   H233      1.0  0.55764  0.29645  0.16181  1.0000
  C   C147      1.0  0.67852  0.44982  0.17684  1.0000
  H   H234      1.0  0.54764  0.39427  0.25669  1.0000
  H   H235      1.0  0.68647  0.30758  0.20760  1.0000
  Fe  Fe35      1.0  0.61674  0.43206  0.07387  1.0000
  H   H236      1.0  0.72463  0.43331  0.13133  1.0000
  H   H237      1.0  0.52621  0.32979  0.26668  1.0000
  S   S67       1.0  0.61292  0.37852  0.08122  1.0000
  H   H238      1.0  0.60438  0.35099  0.55489  1.0000
  H   H239      1.0  0.70949  0.47040  0.25847  1.0000
  H   H240      1.0  0.61147  0.32859  0.29054  1.0000
  H   H241      1.0  0.61877  0.33064  0.51283  1.0000
  H   H242      1.0  0.74231  0.48069  0.13853  1.0000
  S   S68       1.0  0.82491  0.35059  0.06684  1.0000
  H   H243      1.0  0.63564  0.28500  0.53564  1.0000
  H   H244      1.0  0.70111  0.27237  0.15556  1.0000
  H   H245      1.0  0.65786  0.28651  0.25543  1.0000
  C   C148      1.0  0.55297  0.25367  0.20445  1.0000
  H   H246      1.0  0.66472  0.43013  0.14910  1.0000
  H   H247      1.0  0.72376  0.48133  0.53881  1.0000
  C   C149      1.0  0.74020  0.44127  0.53886  1.0000
  H   H248      1.0  0.51730  0.40862  0.23442  1.0000
  C   C150      1.0  0.78766  0.26695  0.33318  1.0000
  C   C151      1.0  0.69788  0.41169  0.21203  1.0000
  Fe  Fe36      1.0  0.79239  0.37342  0.09654  1.0000
  S   S69       1.0  0.76092  0.34969  0.16070  1.0000
  Fe  Fe37      1.0  0.80984  0.43790  0.38295  1.0000
  S   S70       1.0  0.85951  0.43292  0.37659  1.0000
  S   S71       1.0  0.79532  0.45892  0.32163  1.0000
  Fe  Fe38      1.0  0.79302  0.40596  0.47698  1.0000
  S   S72       1.0  0.84030  0.39630  0.47635  1.0000
  S   S73       1.0  0.83697  0.43074  0.09019  1.0000
  Fe  Fe39      1.0  0.87148  0.45191  0.44823  1.0000
  C   C152      1.0  0.96389  0.47231  0.42577  1.0000
  Fe  Fe40      1.0  0.82378  0.37800  0.40504  1.0000
  S   S74       1.0  0.82749  0.33365  0.36977  1.0000
  S   S75       1.0  0.77339  0.38200  0.40813  1.0000
  H   H249      1.0  0.65099  0.36198  0.55271  1.0000
  H   H250      1.0  0.72100  0.40905  0.22471  1.0000
  H   H251      1.0  0.93799  0.45166  0.41267  1.0000
  H   H252      1.0  0.90036  0.35393  0.21738  1.0000
  H   H253      1.0  0.86742  0.49268  0.53522  1.0000
  H   H254      1.0  0.67878  0.40541  0.24060  1.0000
  C   C153      1.0  0.78663  0.29328  0.35975  1.0000
  C   C154      1.0  0.75341  0.28696  0.37720  1.0000
  H   H255      1.0  0.88642  0.42654  0.26327  1.0000
  H   H256      1.0  0.76193  0.45862  0.16882  1.0000
  H   H257      1.0  0.75245  0.30687  0.39838  1.0000
  S   S76       1.0  0.92437  0.42271  0.08107  1.0000
  H   H258      1.0  0.65814  0.44354  0.20382  1.0000
  C   C155      1.0  0.77059  0.38044  0.20503  1.0000
  C   C156      1.0  0.79058  0.41748  0.19776  1.0000
  C   C157      1.0  0.79838  0.44161  0.23365  1.0000
  C   C158      1.0  0.78612  0.42874  0.27703  1.0000
  C   C159      1.0  0.76606  0.39171  0.28431  1.0000
  C   C160      1.0  0.75825  0.36766  0.24846  1.0000
  H   H259      1.0  0.79940  0.42773  0.16442  1.0000
  H   H260      1.0  0.81400  0.47025  0.22783  1.0000
  H   H261      1.0  0.75583  0.38148  0.31741  1.0000
  H   H262      1.0  0.74285  0.33920  0.25483  1.0000
  C   C161      1.0  0.70000  0.25753  0.24366  1.0000
  H   H263      1.0  0.89625  0.36154  0.27621  1.0000
  H   H264      1.0  0.54295  0.47201  0.07064  1.0000
  C   C162      1.0  0.86752  0.38896  0.18530  1.0000
  N   N16       1.0  0.66881  0.25146  0.21517  1.0000
  N   N17       1.0  0.71021  0.44800  0.19392  1.0000
  H   H265      1.0  0.75357  0.44928  0.50657  1.0000
  C   C163      1.0  0.72135  0.25433  0.36796  1.0000
  H   H266      1.0  0.81324  0.27143  0.32004  1.0000
  C   C164      1.0  0.86223  0.39912  0.26433  1.0000
  H   H267      1.0  0.92263  0.39887  0.23948  1.0000
  C   C165      1.0  0.58338  0.27167  0.27684  1.0000
  C   C166      1.0  0.83226  0.33877  0.23462  1.0000
  H   H268      1.0  0.86998  0.37146  0.15955  1.0000
  C   C167      1.0  0.62245  0.33967  0.54863  1.0000
  H   H269      1.0  0.68339  0.39053  0.18593  1.0000
  C   C168      1.0  0.50354  0.32378  0.24280  1.0000
  H   H270      1.0  0.85984  0.38886  0.29934  1.0000
  H   H271      1.0  0.75187  0.47361  0.24469  1.0000
  H   H272      1.0  0.72565  0.28116  0.23216  1.0000
  H   H273      1.0  0.80713  0.33978  0.22742  1.0000
  C   C169      1.0  0.73585  0.45547  0.15656  1.0000
  S   S77       1.0  0.82492  0.46264  0.45205  1.0000
  H   H274      1.0  0.89169  0.41623  0.18159  1.0000
  H   H275      1.0  0.82942  0.32744  0.26910  1.0000
  C   C170      1.0  0.52231  0.47765  0.08237  1.0000
  N   N18       1.0  0.86488  0.37477  0.23138  1.0000
  H   H276      1.0  0.83796  0.40177  0.25784  1.0000
  C   C171      1.0  0.99765  0.46123  0.06510  1.0000
  C   C172      1.0  0.89750  0.37214  0.24156  1.0000
  C   C173      1.0  0.72328  0.45935  0.55713  1.0000
  H   H277      1.0  0.83320  0.31960  0.21025  1.0000
  H   H278      1.0  0.84314  0.39090  0.17640  1.0000
  H   H279      1.0  0.53380  0.38669  0.19881  1.0000
  H   H280      1.0  0.50231  0.35979  0.31614  1.0000
  C   C174      1.0  0.66270  0.28227  0.21969  1.0000
  H   H281      1.0  0.63852  0.27795  0.19987  1.0000
  H   H282      1.0  0.59026  0.26487  0.30907  1.0000
  H   H283      1.0  0.51321  0.32203  0.20865  1.0000
  S   S78       1.0  0.92487  0.49209  0.48111  1.0000
  H   H284      1.0  0.69580  0.26207  0.27954  1.0000
  H   H285      1.0  0.57188  0.26913  0.53827  1.0000
  C   C175      1.0  0.52430  0.38688  0.23345  1.0000
  S   S79       1.0  0.75998  0.38899  0.54110  1.0000
  H   H286      1.0  0.99501  0.45740  0.38300  1.0000
  C   C176      1.0  0.99624  0.47557  0.40907  1.0000
  C   C177      1.0  0.67649  0.24770  0.16761  1.0000
  H   H287      1.0  0.69584  0.24941  0.38178  1.0000
  H   H288      1.0  0.82088  0.46336  0.55067  1.0000
  H   H289      1.0  0.99930  0.44184  0.08672  1.0000
  C   C178      1.0  0.96513  0.49571  0.45936  1.0000
  H   H290      1.0  0.88086  0.44449  0.55405  1.0000
  H   H291      1.0  0.68513  0.42543  0.06298  1.0000
  C   C179      1.0  0.54756  0.28549  0.71097  1.0000
  H   H292      1.0  0.53955  0.28372  0.83125  1.0000
  S   S80       1.0  0.54106  0.32206  0.98776  1.0000
  Fe  Fe41      1.0  0.62867  0.41292  0.77278  1.0000
  S   S81       1.0  0.57039  0.39918  0.77009  1.0000
  H   H293      1.0  0.57266  0.25234  0.84642  1.0000
  H   H294      1.0  0.56901  0.25843  0.59716  1.0000
  S   S82       1.0  0.58759  0.43239  0.66762  1.0000
  Fe  Fe42      1.0  0.59173  0.45318  0.73800  1.0000
  Fe  Fe43      1.0  0.64454  0.44346  0.67772  1.0000
  Fe  Fe44      1.0  0.57185  0.37959  0.70027  1.0000
  H   H295      1.0  0.55366  0.27286  0.91252  1.0000
  S   S83       1.0  0.65029  0.46857  0.74574  1.0000
  H   H296      1.0  0.53284  0.32363  0.89180  1.0000
  N   N19       1.0  0.61795  0.47441  0.91358  1.0000
  H   H297      1.0  0.61352  0.30073  0.65099  1.0000
  S   S84       1.0  0.62839  0.38907  0.70550  1.0000
  H   H298      1.0  0.74161  0.37219  0.81313  1.0000
  H   H299      1.0  0.52151  0.44936  0.69958  1.0000
  S   S85       1.0  0.66593  0.48098  0.04721  1.0000
  H   H300      1.0  0.76891  0.37534  0.93255  1.0000
  C   C180      1.0  0.73156  0.27155  0.88448  1.0000
  H   H301      1.0  0.65777  0.46094  0.89167  1.0000
  H   H302      1.0  0.66830  0.31750  0.57410  1.0000
  H   H303      1.0  0.83151  0.47942  0.65146  1.0000
  H   H304      1.0  0.57257  0.30943  0.72018  1.0000
  S   S86       1.0  0.68371  0.47131  0.62076  1.0000
  Fe  Fe45      1.0  0.81218  0.42758  0.02220  1.0000
  C   C181      1.0  0.57278  0.34420  0.94495  1.0000
  C   C182      1.0  0.60956  0.36614  0.95546  1.0000
  C   C183      1.0  0.63478  0.38392  0.92125  1.0000
  C   C184      1.0  0.62333  0.37998  0.87628  1.0000
  C   C185      1.0  0.58665  0.35753  0.86560  1.0000
  C   C186      1.0  0.56134  0.34002  0.89995  1.0000
  H   H305      1.0  0.61879  0.36919  0.98989  1.0000
  H   H306      1.0  0.76857  0.41953  0.82494  1.0000
  H   H307      1.0  0.57773  0.35363  0.83091  1.0000
  C   C187      1.0  0.83374  0.45655  0.63764  1.0000
  C   C188      1.0  0.86162  0.43681  0.58272  1.0000
  H   H308      1.0  0.83454  0.41547  0.57041  1.0000
  C   C189      1.0  0.58690  0.43765  0.90747  1.0000
  H   H309      1.0  0.84172  0.44470  0.66567  1.0000
  C   C190      1.0  0.61152  0.49147  0.95300  1.0000
  C   C191      1.0  0.96363  0.45771  0.05554  1.0000
  H   H310      1.0  0.73971  0.42215  0.04285  1.0000
  C   C192      1.0  0.96175  0.48274  0.02726  1.0000
  H   H311      1.0  0.68176  0.35668  0.88030  1.0000
  C   C193      1.0  0.73936  0.41264  0.56224  1.0000
  S   S87       1.0  0.65487  0.40472  0.83432  1.0000
  C   C194      1.0  0.65145  0.47278  0.92117  1.0000
  H   H312      1.0  0.65476  0.26089  0.96351  1.0000
  H   H313      1.0  0.70222  0.34768  0.92794  1.0000
  C   C195      1.0  0.52126  0.28824  0.68549  1.0000
  H   H314      1.0  0.62578  0.49272  0.60521  1.0000
  H   H315      1.0  0.56096  0.43770  0.90294  1.0000
  H   H316      1.0  0.57081  0.48936  0.63893  1.0000
  C   C196      1.0  0.70361  0.47687  0.03204  1.0000
  C   C197      1.0  0.69515  0.25014  0.87096  1.0000
  H   H317      1.0  0.59048  0.42453  0.87717  1.0000
  H   H318      1.0  0.75303  0.27429  0.86254  1.0000
  H   H319      1.0  0.66300  0.40131  0.93002  1.0000
  H   H320      1.0  0.87072  0.42461  0.60905  1.0000
  C   C198      1.0  0.76552  0.47296  0.00847  1.0000
  H   H321      1.0  0.64729  0.34485  0.63310  1.0000
  H   H322      1.0  0.60019  0.33263  0.63464  1.0000
  H   H323      1.0  0.72017  0.42317  0.89564  1.0000
  C   C199      1.0  0.77059  0.38203  0.89616  1.0000
  H   H324      1.0  0.76826  0.44253  0.90257  1.0000
  H   H325      1.0  0.79729  0.40675  0.89094  1.0000
  C   C200      1.0  0.70534  0.35397  0.89128  1.0000
  H   H326      1.0  0.60903  0.47636  0.98447  1.0000
  Fe  Fe46      1.0  0.80198  0.35475  0.00025  1.0000
  S   S88       1.0  0.78621  0.31548  0.94229  1.0000
  S   S89       1.0  0.84776  0.41061  0.98698  1.0000
  H   H327      1.0  0.70348  0.33030  0.87347  1.0000
  H   H328      1.0  0.69247  0.41293  0.65479  1.0000
  S   S90       1.0  0.76509  0.37197  0.03089  1.0000
  Fe  Fe47      1.0  0.55832  0.35793  0.04877  1.0000
  H   H329      1.0  0.72003  0.39850  0.82122  1.0000
  H   H330      1.0  0.72164  0.38064  0.62249  1.0000
  C   C201      1.0  0.70539  0.44882  0.59870  1.0000
  C   C202      1.0  0.61915  0.32262  0.62670  1.0000
  H   H331      1.0  0.58374  0.42036  0.93699  1.0000
  C   C203      1.0  0.74035  0.28932  0.92628  1.0000
  C   C204      1.0  0.71258  0.28579  0.95446  1.0000
  C   C205      1.0  0.74274  0.39465  0.83308  1.0000
  H   H332      1.0  0.71912  0.29916  0.98686  1.0000
  C   C206      1.0  0.51777  0.47161  0.70890  1.0000
  N   N20       1.0  0.74009  0.38702  0.88189  1.0000
  C   C207      1.0  0.72196  0.40249  0.60402  1.0000
  S   S91       1.0  0.80441  0.47136  0.99247  1.0000
  C   C208      1.0  0.70512  0.42054  0.62222  1.0000
  H   H333      1.0  0.77077  0.35971  0.87735  1.0000
  C   C209      1.0  0.84811  0.48349  0.56395  1.0000
  C   C210      1.0  0.74170  0.41745  0.90705  1.0000
  H   H334      1.0  0.73831  0.41196  0.94389  1.0000
  H   H335      1.0  0.64891  0.45604  0.95109  1.0000
  N   N21       1.0  0.85998  0.46812  0.60025  1.0000
  H   H336      1.0  0.63479  0.27399  0.59407  1.0000
  H   H337      1.0  0.93572  0.48031  0.01968  1.0000
  C   C211      1.0  0.67618  0.26405  0.94121  1.0000
  H   H338      1.0  0.80607  0.43576  0.62601  1.0000
  H   H339      1.0  0.90639  0.48496  0.64370  1.0000
  C   C212      1.0  0.70643  0.44690  0.04414  1.0000
  C   C213      1.0  0.73750  0.44508  0.03279  1.0000
  S   S92       1.0  0.56351  0.41182  0.03791  1.0000
  S   S93       1.0  0.52794  0.32986  0.66689  1.0000
  H   H340      1.0  0.56156  0.24979  0.74460  1.0000
  H   H341      1.0  0.58618  0.49273  0.94898  1.0000
  H   H342      1.0  0.62673  0.48344  0.84228  1.0000
  N   N22       1.0  0.61437  0.30973  0.57966  1.0000
  C   C214      1.0  0.54137  0.25155  0.72457  1.0000
  C   C215      1.0  0.62192  0.49567  0.87267  1.0000
  C   C216      1.0  0.63936  0.29599  0.57053  1.0000
  Fe  Fe48      1.0  0.86813  0.40817  0.05617  1.0000
  S   S94       1.0  0.57867  0.49522  0.76298  1.0000
  H   H343      1.0  0.50344  0.24678  0.80142  1.0000
  C   C217      1.0  0.51325  0.25842  0.83560  1.0000
  C   C218      1.0  0.89641  0.49557  0.61634  1.0000
  C   C219      1.0  0.52673  0.24785  0.91154  1.0000
  H   H344      1.0  0.50653  0.25458  0.92525  1.0000
  C   C220      1.0  0.57640  0.28071  0.57290  1.0000
  H   H345      1.0  0.55694  0.29054  0.57823  1.0000
  H   H346      1.0  0.73865  0.50269  0.21749  1.0000
  C   C221      1.0  0.52209  0.50860  0.06754  1.0000
  H   H347      1.0  0.50143  0.72783  0.53426  1.0000
  H   H348      1.0  0.62458  0.51964  0.55988  1.0000
  C   C222      1.0  0.99898  0.52226  0.47626  1.0000
  H   H349      1.0  0.52343  0.57873  0.91460  1.0000
  H   H350      1.0  0.78392  0.52421  0.97694  1.0000
  H   H351      1.0  0.55389  0.54561  0.77624  1.0000
  H   H352      1.0  0.63441  0.51929  0.95856  1.0000
  C   C223      1.0  0.99371  0.51134  0.00931  1.0000
  C   C224      1.0  0.76234  0.50257  0.99571  1.0000
  H   H353      1.0  0.99206  0.53086  0.98793  1.0000
  H   H354      1.0  0.72984  0.52804  0.99850  1.0000
  H   H355      1.0  0.62706  0.51194  0.68438  1.0000
  S   S95       1.0  0.50015  0.67592  0.73822  1.0000
  H   H356      1.0  0.66307  0.59150  0.60967  1.0000
  H   H357      1.0  0.62531  0.55172  0.69659  1.0000
  H   H358      1.0  0.66564  0.55488  0.67267  1.0000
  C   C225      1.0  0.58086  0.51728  0.62704  1.0000
  C   C226      1.0  0.53576  0.52567  0.75223  1.0000
  H   H359      1.0  0.91658  0.50456  0.58844  1.0000
  C   C227      1.0  0.63459  0.52077  0.59489  1.0000
  H   H360      1.0  0.56880  0.51550  0.59310  1.0000
  C   C228      1.0  0.52258  0.74162  0.77507  1.0000
  C   C229      1.0  0.73168  0.50468  0.00782  1.0000
  H   H361      1.0  0.64507  0.52359  0.87589  1.0000
  H   H362      1.0  0.62230  0.57508  0.57645  1.0000
  C   C230      1.0  0.63547  0.53935  0.67188  1.0000
  N   N23       1.0  0.62096  0.53808  0.62612  1.0000
  H   H363      1.0  0.62313  0.58879  0.63383  1.0000
  C   C231      1.0  0.63293  0.57503  0.61080  1.0000
  H   H364      1.0  0.51687  0.72642  0.59059  1.0000
  H   H365      1.0  0.56965  0.52964  0.65029  1.0000
  H   H366      1.0  0.89634  0.51976  0.62951  1.0000
  H   H367      1.0  0.66481  0.53525  0.59415  1.0000
  H   H368      1.0  0.54735  0.74147  0.78301  1.0000
  H   H369      1.0  0.54267  0.52671  0.04443  1.0000
  H   H370      1.0  0.67528  0.49990  0.92748  1.0000
  H   H371      1.0  0.50726  0.55267  0.96523  1.0000
  H   H372      1.0  0.84623  0.50700  0.57593  1.0000
  C   C232      1.0  0.50695  0.52863  0.73325  1.0000
  C   C233      1.0  0.54131  0.49722  0.74001  1.0000
  H   H373      1.0  0.50296  0.55071  0.74261  1.0000
  H   H374      1.0  0.59698  0.49721  0.86568  1.0000
  H   H375      1.0  0.54871  0.86128  0.18102  1.0000
  S   S96       1.0  0.50966  0.91593  0.34535  1.0000
  H   H376      1.0  0.54967  0.90177  0.26729  1.0000
  C   C234      1.0  0.51005  0.95604  0.35989  1.0000
  H   H377      1.0  0.53192  0.86374  0.30346  1.0000
  C   C235      1.0  0.53865  0.98923  0.34526  1.0000
  H   H378      1.0  0.52330  0.80840  0.23175  1.0000
  H   H379      1.0  0.50356  0.84943  0.16353  1.0000
  C   C236      1.0  0.54102  0.87266  0.26835  1.0000
  H   H380      1.0  0.56529  0.86994  0.26231  1.0000
  N   N24       1.0  0.51175  0.85176  0.23524  1.0000
  H   H381      1.0  0.53382  0.89359  0.18562  1.0000
  C   C237      1.0  0.52507  0.86460  0.18927  1.0000
  H   H382      1.0  0.56033  0.99001  0.32555  1.0000
  C   C238      1.0  0.50044  0.81325  0.23864  1.0000
  H   H383      1.0  0.54122  0.79363  0.80490  1.0000
  H   H384      1.0  0.52807  0.98406  0.81689  1.0000
  C   C239      1.0  0.51916  0.77121  0.78733  1.0000
  C   C240      1.0  0.50959  0.98603  0.79344  1.0000
