data_image0
_chemical_formula_structural       CH2C2HNC2FeHFeH2SCHC3HSH2CHCSH2SC2H4NH5CNH4NSH2SH2NC4SH2CSCH4C4H3Fe3SFe2HS3CHSC3H7SC3H3CH3C2HCH6C2H2CSHNCHCH6CH2FeHNHCFeSHFeS2FeSFeS3HC3HCH2CHC3H3C2H3C2H7CH2SHFe3HSHC4SCSCHSH4SCHSNCFeS2FeS2FeSFeS2HFeHC2H2SH2C5H3NC3SHSCH3CHCH2CH2SH4C3HCH2CH3C2HCHCH3NHCH4CH5CHCH2CHC2FeSHFeSFeCSH3C4SH2C3HCH2S2HC2H5C2H2CSCH4SH2CSHFe2SH2C2SH2CHCH2C6H6SHCHCHC2NH4C2H3CH4CFeHNCH3SH2SCHC2H3CNH2FeS2FeS2FeSFeS3HC4H6C5H4C7HCH4C3H5CH2CNCH3C2HNH3C2H5FeCS2H3NH8CHS2C6H4CNH5CH2CNCHFeCNH3C2H2CHC2FeCHFeHFeS2HFeSHS2H2SH2C6H6C2SHSC2H3CHSH6FeHC2H3CHCHC3H3SHFeH2SHCHS2FeSCNH2CFeCSHCSC2HC3HCH3SH2NC7H3CSHCHCH2NH2C3H3C2H3FeH6CHS2HCFeC3H2CH6FeH4C2H2S2H2C3H2C2HSCH3CNH2FeH3S2CSFeHC2SH2NCSFeSFeCSFeSC6H4CHC3H2NH4C2H2C2H3CH3C2H3SH5FeSFeHCSHCH2FeC3H2S2H4NH4SC3HCH3CHNH3CH2NHNSHCFeS2FeS2FeHFeSHSCH2CHC4H2C6H10CSCH2C2HSHCH3CH2C2HFeH4CHCH3CH2CH2SNFeS4FeHFeS3C3H4CHC5H3CH2CNH2C2H2NHFeH4CSC4H5SHFeCH3SHSHSCSFeHFeHFeSHSC5H4
_chemical_formula_sum              "C320 H512 N32 Fe64 S128"
_cell_length_a       39.4173
_cell_length_b       27.039
_cell_length_c       44.5529
_cell_angle_alpha    90.0442
_cell_angle_beta     80.6732
_cell_angle_gamma    89.8261

_space_group_name_H-M_alt    "P 1"
_space_group_IT_number       1

loop_
  _space_group_symop_operation_xyz
  'x, y, z'

loop_
  _atom_site_type_symbol
  _atom_site_label
  _atom_site_symmetry_multiplicity
  _atom_site_fract_x
  _atom_site_fract_y
  _atom_site_fract_z
  _atom_site_occupancy
  C   C1        1.0  0.44315  0.21284  0.26822  1.0000
  H   H1        1.0  0.33898  0.24802  0.27878  1.0000
  H   H2        1.0  0.32296  0.05897  0.21773  1.0000
  C   C2        1.0  0.46220  0.17105  0.22049  1.0000
  C   C3        1.0  0.24557  0.07886  0.26230  1.0000
  H   H3        1.0  0.45026  0.23711  0.28643  1.0000
  N   N1        1.0  0.47308  0.20218  0.24448  1.0000
  C   C4        1.0  0.48725  0.24923  0.23109  1.0000
  C   C5        1.0  0.29809  0.07805  0.22595  1.0000
  Fe  Fe1       1.0  0.41732  0.13462  0.14967  1.0000
  H   H4        1.0  0.37149  0.09622  0.27008  1.0000
  Fe  Fe2       1.0  0.45710  0.10860  0.08735  1.0000
  H   H5        1.0  0.38499  0.10591  0.21423  1.0000
  H   H6        1.0  0.25052  0.11734  0.26945  1.0000
  S   S1        1.0  0.46778  0.16081  0.12379  1.0000
  C   C6        1.0  0.35439  0.17150  0.27810  1.0000
  H   H7        1.0  0.42241  0.23213  0.25854  1.0000
  C   C7        1.0  0.37569  0.13719  0.22817  1.0000
  C   C8        1.0  0.37088  0.18284  0.21474  1.0000
  C   C9        1.0  0.35762  0.22276  0.23307  1.0000
  H   H8        1.0  0.29237  0.52201  0.23243  1.0000
  S   S2        1.0  0.40425  0.08864  0.11104  1.0000
  H   H9        1.0  0.46796  0.26958  0.22004  1.0000
  H   H10       1.0  0.35369  0.25812  0.22276  1.0000
  C   C10       1.0  0.36752  0.13155  0.25978  1.0000
  H   H11       1.0  0.22973  0.08127  0.24379  1.0000
  C   C11       1.0  0.34953  0.21720  0.26475  1.0000
  S   S3        1.0  0.43990  0.07184  0.17282  1.0000
  H   H12       1.0  0.39993  0.13799  0.05288  1.0000
  H   H13       1.0  0.35159  0.51543  0.26886  1.0000
  S   S4        1.0  0.38167  0.19108  0.17527  1.0000
  C   C12       1.0  0.26533  0.50325  0.29080  1.0000
  C   C13       1.0  0.32696  0.49637  0.27749  1.0000
  H   H14       1.0  0.26067  0.47348  0.27470  1.0000
  H   H15       1.0  0.43187  0.17836  0.27927  1.0000
  H   H16       1.0  0.28377  0.08013  0.20640  1.0000
  H   H17       1.0  0.30409  0.11667  0.23203  1.0000
  N   N2        1.0  0.29732  0.53058  0.27960  1.0000
  H   H18       1.0  0.32436  0.46474  0.26202  1.0000
  H   H19       1.0  0.44317  0.19057  0.20876  1.0000
  H   H20       1.0  0.45013  0.13609  0.23005  1.0000
  H   H21       1.0  0.24252  0.52814  0.29406  1.0000
  H   H22       1.0  0.30366  0.08740  0.28547  1.0000
  C   C14       1.0  0.29824  0.04968  0.27734  1.0000
  N   N3        1.0  0.27809  0.05191  0.25212  1.0000
  H   H23       1.0  0.22982  0.06016  0.28203  1.0000
  H   H24       1.0  0.48434  0.16059  0.20279  1.0000
  H   H25       1.0  0.32930  0.48043  0.30014  1.0000
  H   H26       1.0  0.37441  0.32488  0.49356  1.0000
  N   N4        1.0  0.37628  0.36734  0.53398  1.0000
  S   S5        1.0  0.46125  0.20679  0.53378  1.0000
  H   H27       1.0  0.13696  0.49859  0.50661  1.0000
  H   H28       1.0  0.22928  0.52300  0.38787  1.0000
  S   S6        1.0  0.17150  0.45765  0.40653  1.0000
  H   H29       1.0  0.26922  0.34948  0.37110  1.0000
  H   H30       1.0  0.15884  0.43578  0.53964  1.0000
  N   N5        1.0  0.18677  0.46340  0.49759  1.0000
  C   C15       1.0  0.26081  0.38725  0.37523  1.0000
  C   C16       1.0  0.22627  0.39731  0.38702  1.0000
  C   C17       1.0  0.21474  0.44622  0.39136  1.0000
  C   C18       1.0  0.23796  0.48516  0.38441  1.0000
  S   S7        1.0  0.47337  0.29537  0.34356  1.0000
  H   H31       1.0  0.43121  0.37371  0.52166  1.0000
  H   H32       1.0  0.20838  0.36709  0.39236  1.0000
  C   C19       1.0  0.47561  0.12139  0.42458  1.0000
  S   S8        1.0  0.34321  0.16299  0.31743  1.0000
  C   C20       1.0  0.15562  0.48333  0.48734  1.0000
  H   H33       1.0  0.34400  0.37432  0.49951  1.0000
  H   H34       1.0  0.48157  0.11509  0.33558  1.0000
  H   H35       1.0  0.35435  0.29615  0.54663  1.0000
  H   H36       1.0  0.16216  0.51377  0.47076  1.0000
  C   C21       1.0  0.20362  0.50314  0.51252  1.0000
  C   C22       1.0  0.41161  0.35097  0.53622  1.0000
  C   C23       1.0  0.27259  0.47501  0.37295  1.0000
  C   C24       1.0  0.28400  0.42607  0.36799  1.0000
  H   H37       1.0  0.45665  0.09187  0.43246  1.0000
  H   H38       1.0  0.48080  0.08763  0.48025  1.0000
  H   H39       1.0  0.46296  0.15761  0.43107  1.0000
  Fe  Fe3       1.0  0.15622  0.53768  0.40994  1.0000
  Fe  Fe4       1.0  0.34770  0.33887  0.35992  1.0000
  Fe  Fe5       1.0  0.41629  0.28640  0.35772  1.0000
  S   S9        1.0  0.39195  0.21611  0.37707  1.0000
  Fe  Fe6       1.0  0.35478  0.22924  0.34473  1.0000
  Fe  Fe7       1.0  0.35737  0.26510  0.40897  1.0000
  H   H40       1.0  0.41572  0.24985  0.44111  1.0000
  S   S10       1.0  0.38159  0.29644  0.32315  1.0000
  S   S11       1.0  0.38512  0.33476  0.39286  1.0000
  S   S12       1.0  0.34159  0.24701  0.45857  1.0000
  C   C25       1.0  0.36766  0.21404  0.50791  1.0000
  H   H41       1.0  0.45077  0.19496  0.33678  1.0000
  S   S13       1.0  0.31742  0.27217  0.37852  1.0000
  C   C26       1.0  0.37537  0.23005  0.47771  1.0000
  C   C27       1.0  0.43613  0.22841  0.48141  1.0000
  C   C28       1.0  0.40968  0.23674  0.46431  1.0000
  H   H42       1.0  0.46253  0.23532  0.47131  1.0000
  H   H43       1.0  0.48803  0.15296  0.47931  1.0000
  H   H44       1.0  0.29060  0.50508  0.36793  1.0000
  H   H45       1.0  0.34113  0.20877  0.51828  1.0000
  H   H46       1.0  0.23464  0.42906  0.47777  1.0000
  H   H47       1.0  0.19987  0.40672  0.52757  1.0000
  H   H48       1.0  0.34502  0.43261  0.54323  1.0000
  S   S14       1.0  0.32683  0.41466  0.35128  1.0000
  C   C29       1.0  0.39404  0.20580  0.52497  1.0000
  C   C30       1.0  0.42828  0.21341  0.51187  1.0000
  C   C31       1.0  0.21080  0.44454  0.47106  1.0000
  H   H49       1.0  0.48093  0.11987  0.39927  1.0000
  H   H50       1.0  0.16416  0.39221  0.50870  1.0000
  H   H51       1.0  0.26649  0.48520  0.31304  1.0000
  C   C32       1.0  0.17699  0.42271  0.51937  1.0000
  H   H52       1.0  0.18612  0.51861  0.53249  1.0000
  H   H53       1.0  0.38986  0.44426  0.52974  1.0000
  H   H54       1.0  0.38882  0.38698  0.48661  1.0000
  C   C33       1.0  0.47777  0.19453  0.33826  1.0000
  C   C34       1.0  0.37158  0.41932  0.54411  1.0000
  H   H55       1.0  0.19881  0.41482  0.45899  1.0000
  C   C35       1.0  0.37062  0.36339  0.50206  1.0000
  H   H56       1.0  0.14231  0.45454  0.47566  1.0000
  H   H57       1.0  0.38783  0.19341  0.54826  1.0000
  H   H58       1.0  0.21856  0.47436  0.45411  1.0000
  H   H59       1.0  0.41594  0.31177  0.52900  1.0000
  H   H60       1.0  0.22716  0.48961  0.52075  1.0000
  H   H61       1.0  0.21136  0.53430  0.49657  1.0000
  C   C36       1.0  0.28276  0.41763  0.67142  1.0000
  C   C37       1.0  0.29857  0.37305  0.67761  1.0000
  H   H62       1.0  0.26899  0.43096  0.75284  1.0000
  H   H63       1.0  0.28550  0.34814  0.69464  1.0000
  C   C38       1.0  0.29958  0.44916  0.64905  1.0000
  S   S15       1.0  0.24322  0.43513  0.69319  1.0000
  H   H64       1.0  0.35316  0.47305  0.77138  1.0000
  N   N6        1.0  0.30586  0.48892  0.75503  1.0000
  C   C39       1.0  0.29430  0.51706  0.73009  1.0000
  H   H65       1.0  0.35100  0.53345  0.75493  1.0000
  C   C40       1.0  0.45550  0.18002  0.78065  1.0000
  H   H66       1.0  0.26005  0.50494  0.78685  1.0000
  H   H67       1.0  0.28716  0.48243  0.64317  1.0000
  H   H68       1.0  0.47956  0.12119  0.71309  1.0000
  H   H69       1.0  0.43931  0.15001  0.79255  1.0000
  H   H70       1.0  0.23169  0.05530  0.78864  1.0000
  H   H71       1.0  0.31033  0.42007  0.73056  1.0000
  C   C41       1.0  0.35134  0.33567  0.55353  1.0000
  H   H72       1.0  0.29806  0.11424  0.78448  1.0000
  H   H73       1.0  0.26603  0.51365  0.73090  1.0000
  Fe  Fe8       1.0  0.22462  0.51133  0.68304  1.0000
  H   H74       1.0  0.48560  0.22909  0.73003  1.0000
  N   N7        1.0  0.48045  0.16055  0.75496  1.0000
  H   H75       1.0  0.26880  0.04916  0.75954  1.0000
  C   C42       1.0  0.33163  0.36106  0.66223  1.0000
  Fe  Fe9       1.0  0.44322  0.22450  0.58329  1.0000
  S   S16       1.0  0.46467  0.29449  0.59904  1.0000
  H   H76       1.0  0.36937  0.22981  0.71139  1.0000
  Fe  Fe10      1.0  0.40728  0.19996  0.64732  1.0000
  S   S17       1.0  0.42577  0.26867  0.66799  1.0000
  S   S18       1.0  0.37903  0.13962  0.67587  1.0000
  Fe  Fe11      1.0  0.41237  0.30587  0.62638  1.0000
  S   S19       1.0  0.39092  0.38221  0.62233  1.0000
  Fe  Fe12      1.0  0.47595  0.25060  0.63872  1.0000
  S   S20       1.0  0.38960  0.23875  0.60777  1.0000
  S   S21       1.0  0.45877  0.17920  0.62079  1.0000
  S   S22       1.0  0.18749  0.52609  0.65074  1.0000
  H   H77       1.0  0.34587  0.46311  0.61746  1.0000
  C   C43       1.0  0.37372  0.15078  0.71519  1.0000
  C   C44       1.0  0.37363  0.11093  0.73529  1.0000
  C   C45       1.0  0.33272  0.43773  0.63414  1.0000
  H   H78       1.0  0.37634  0.07358  0.72646  1.0000
  C   C46       1.0  0.34891  0.39393  0.64084  1.0000
  H   H79       1.0  0.37200  0.08870  0.78191  1.0000
  H   H80       1.0  0.30475  0.41375  0.77117  1.0000
  C   C47       1.0  0.37129  0.11943  0.76666  1.0000
  H   H81       1.0  0.44516  0.10622  0.74313  1.0000
  C   C48       1.0  0.36791  0.16764  0.77811  1.0000
  C   C49       1.0  0.29712  0.43613  0.75238  1.0000
  C   C50       1.0  0.37027  0.19899  0.72666  1.0000
  H   H82       1.0  0.35730  0.47973  0.73082  1.0000
  H   H83       1.0  0.43777  0.20757  0.77285  1.0000
  H   H84       1.0  0.00822  0.53767  0.72493  1.0000
  C   C51       1.0  0.28850  0.50843  0.78460  1.0000
  C   C52       1.0  0.36708  0.20735  0.75808  1.0000
  H   H85       1.0  0.36423  0.24473  0.76685  1.0000
  H   H86       1.0  0.44469  0.16393  0.72326  1.0000
  H   H87       1.0  0.34395  0.32695  0.66734  1.0000
  C   C53       1.0  0.34350  0.49404  0.75297  1.0000
  C   C54       1.0  0.46167  0.13697  0.73263  1.0000
  H   H88       1.0  0.41677  0.35364  0.56001  1.0000
  H   H89       1.0  0.02168  0.50682  0.75673  1.0000
  H   H90       1.0  0.37612  0.42373  0.56797  1.0000
  H   H91       1.0  0.35485  0.33786  0.57780  1.0000
  H   H92       1.0  0.30666  0.50300  0.70741  1.0000
  H   H93       1.0  0.46856  0.19865  0.79784  1.0000
  H   H94       1.0  0.48775  0.09342  0.77918  1.0000
  C   C55       1.0  0.01476  0.54349  0.74807  1.0000
  H   H95       1.0  0.32437  0.34664  0.55238  1.0000
  H   H96       1.0  0.42544  0.08396  0.94508  1.0000
  S   S23       1.0  0.47332  0.12098  0.03707  1.0000
  H   H97       1.0  0.47255  0.09209  0.97537  1.0000
  Fe  Fe13      1.0  0.43518  0.05825  0.86683  1.0000
  Fe  Fe14      1.0  0.37163  0.08024  0.91227  1.0000
  Fe  Fe15      1.0  0.37741  0.11681  0.84700  1.0000
  H   H98       1.0  0.47719  0.19598  0.94357  1.0000
  S   S24       1.0  0.40948  0.12931  0.88362  1.0000
  H   H99       1.0  0.35245  0.12760  0.02300  1.0000
  C   C56       1.0  0.38584  0.10550  0.98199  1.0000
  C   C57       1.0  0.41982  0.09613  0.96849  1.0000
  C   C58       1.0  0.44654  0.10117  0.98556  1.0000
  C   C59       1.0  0.37871  0.12020  0.01253  1.0000
  S   S25       1.0  0.33653  0.07507  0.87746  1.0000
  C   C60       1.0  0.43947  0.11619  0.01602  1.0000
  S   S26       1.0  0.36517  0.17950  0.81721  1.0000
  C   C61       1.0  0.40553  0.12569  0.02951  1.0000
  H   H100      1.0  0.47285  0.14815  0.84770  1.0000
  S   S27       1.0  0.35200  0.09612  0.96148  1.0000
  H   H101      1.0  0.00247  0.53775  0.80889  1.0000
  H   H102      1.0  0.30370  0.10770  0.82333  1.0000
  H   H103      1.0  0.26179  0.12032  0.81439  1.0000
  H   H104      1.0  0.29663  0.48817  0.80401  1.0000
  S   S28       1.0  0.40616  0.04936  0.82798  1.0000
  C   C62       1.0  0.28596  0.09922  0.80693  1.0000
  H   H105      1.0  0.23754  0.04618  0.84292  1.0000
  S   S29       1.0  0.99653  0.54299  0.87418  1.0000
  N   N8        1.0  0.27947  0.04550  0.80528  1.0000
  C   C63       1.0  0.35696  0.89136  0.15061  1.0000
  Fe  Fe16      1.0  0.23526  0.83700  0.17949  1.0000
  S   S30       1.0  0.26475  0.76835  0.16262  1.0000
  S   S31       1.0  0.25679  0.91278  0.18684  1.0000
  Fe  Fe17      1.0  0.16623  0.78563  0.18342  1.0000
  S   S32       1.0  0.18987  0.71373  0.16593  1.0000
  S   S33       1.0  0.10919  0.79473  0.19751  1.0000
  Fe  Fe18      1.0  0.22730  0.72859  0.19778  1.0000
  S   S34       1.0  0.23813  0.66413  0.22698  1.0000
  Fe  Fe19      1.0  0.22449  0.76003  0.13254  1.0000
  S   S35       1.0  0.20125  0.79782  0.21747  1.0000
  S   S36       1.0  0.19744  0.83121  0.14697  1.0000
  H   H106      1.0  0.37315  0.99368  0.08944  1.0000
  Fe  Fe20      1.0  0.43106  0.02790  0.13222  1.0000
  H   H107      1.0  0.07580  0.68601  0.06425  1.0000
  C   C64       1.0  0.22949  0.67518  0.26628  1.0000
  C   C65       1.0  0.23368  0.72214  0.27829  1.0000
  H   H108      1.0  0.00744  0.69473  0.19370  1.0000
  H   H109      1.0  0.35750  0.01697  0.15466  1.0000
  S   S37       1.0  0.24001  0.73796  0.08345  1.0000
  H   H110      1.0  0.24247  0.75251  0.26326  1.0000
  H   H111      1.0  0.00910  0.76402  0.27502  1.0000
  C   C66       1.0  0.05065  0.64948  0.20003  1.0000
  C   C67       1.0  0.08506  0.64943  0.20419  1.0000
  C   C68       1.0  0.10330  0.69396  0.20322  1.0000
  C   C69       1.0  0.08698  0.73868  0.19862  1.0000
  C   C70       1.0  0.05226  0.73884  0.19549  1.0000
  H   H112      1.0  0.25563  0.97994  0.26204  1.0000
  H   H113      1.0  0.12976  0.69363  0.20667  1.0000
  H   H114      1.0  0.10415  0.58126  0.06919  1.0000
  N   N9        1.0  0.07916  0.63520  0.10083  1.0000
  C   C71       1.0  0.29548  0.55147  0.24922  1.0000
  C   C72       1.0  0.27041  0.00115  0.24289  1.0000
  C   C73       1.0  0.30009  0.92259  0.17096  1.0000
  S   S38       1.0  0.02824  0.59358  0.20142  1.0000
  H   H115      1.0  0.00288  0.64966  0.29260  1.0000
  S   S39       1.0  0.48304  0.04432  0.10581  1.0000
  C   C74       1.0  0.36982  0.93963  0.14812  1.0000
  H   H116      1.0  0.10100  0.65149  0.27362  1.0000
  H   H117      1.0  0.31277  0.84546  0.16465  1.0000
  H   H118      1.0  0.05216  0.62961  0.06273  1.0000
  C   C75       1.0  0.05717  0.59812  0.11893  1.0000
  H   H119      1.0  0.29576  0.00193  0.17413  1.0000
  C   C76       1.0  0.21869  0.63589  0.28591  1.0000
  H   H120      1.0  0.25483  0.00137  0.22414  1.0000
  H   H121      1.0  0.21490  0.59976  0.27662  1.0000
  C   C77       1.0  0.31288  0.97102  0.16797  1.0000
  H   H122      1.0  0.09773  0.61489  0.20786  1.0000
  H   H123      1.0  0.10284  0.65781  0.13884  1.0000
  S   S40       1.0  0.41339  0.94901  0.13351  1.0000
  H   H124      1.0  0.04860  0.56889  0.10423  1.0000
  H   H125      1.0  0.06581  0.69353  0.13347  1.0000
  H   H126      1.0  0.39524  0.90882  0.07838  1.0000
  H   H127      1.0  0.03361  0.61549  0.13178  1.0000
  C   C78       1.0  0.17293  0.74417  0.07356  1.0000
  C   C79       1.0  0.20644  0.72810  0.06263  1.0000
  C   C80       1.0  0.14715  0.73909  0.05537  1.0000
  H   H128      1.0  0.01594  0.67776  0.25621  1.0000
  C   C81       1.0  0.08885  0.67383  0.12134  1.0000
  H   H129      1.0  0.29433  0.97982  0.23458  1.0000
  H   H130      1.0  0.16715  0.76159  0.09569  1.0000
  C   C82       1.0  0.34775  0.97958  0.15672  1.0000
  H   H131      1.0  0.12758  0.63777  0.07060  1.0000
  H   H132      1.0  0.12580  0.59378  0.10096  1.0000
  H   H133      1.0  0.37399  0.86037  0.14404  1.0000
  C   C83       1.0  0.03423  0.69424  0.19587  1.0000
  C   C84       1.0  0.11055  0.61087  0.08470  1.0000
  H   H134      1.0  0.03946  0.77348  0.19228  1.0000
  C   C85       1.0  0.32220  0.88285  0.16211  1.0000
  H   H135      1.0  0.15665  0.69387  0.26188  1.0000
  C   C86       1.0  0.06001  0.65791  0.07842  1.0000
  H   H136      1.0  0.07076  0.57975  0.13598  1.0000
  H   H137      1.0  0.12158  0.75318  0.06336  1.0000
  H   H138      1.0  0.10595  0.70204  0.10872  1.0000
  N   N10       1.0  0.11462  0.71701  0.29623  1.0000
  H   H139      1.0  0.43572  0.97866  0.07272  1.0000
  C   C87       1.0  0.37027  0.99716  0.06508  1.0000
  H   H140      1.0  0.07821  0.70635  0.26583  1.0000
  H   H141      1.0  0.13491  0.74901  0.25281  1.0000
  H   H142      1.0  0.03599  0.67630  0.08981  1.0000
  H   H143      1.0  0.32556  0.59239  0.29324  1.0000
  C   C88       1.0  0.08913  0.68630  0.28390  1.0000
  H   H144      1.0  0.28427  0.02925  0.29723  1.0000
  H   H145      1.0  0.08917  0.78587  0.28999  1.0000
  H   H146      1.0  0.16343  0.75112  0.28034  1.0000
  H   H147      1.0  0.34367  0.98554  0.06316  1.0000
  H   H148      1.0  0.32339  0.03079  0.27021  1.0000
  C   C89       1.0  0.99323  0.66615  0.27270  1.0000
  H   H149      1.0  0.31906  0.57274  0.24016  1.0000
  C   C90       1.0  0.14363  0.72819  0.27176  1.0000
  H   H150      1.0  0.27335  0.57738  0.24994  1.0000
  H   H151      1.0  0.37266  0.03708  0.05901  1.0000
  C   C91       1.0  0.39200  0.91443  0.05422  1.0000
  H   H152      1.0  0.06752  0.67570  0.30205  1.0000
  C   C92       1.0  0.98898  0.74916  0.29320  1.0000
  C   C93       1.0  0.30159  0.57114  0.30094  1.0000
  Fe  Fe21      1.0  0.09809  0.60916  0.40256  1.0000
  S   S41       1.0  0.12268  0.67150  0.42423  1.0000
  H   H153      1.0  0.10489  0.71847  0.53399  1.0000
  Fe  Fe22      1.0  0.17133  0.64468  0.39526  1.0000
  S   S42       1.0  0.20609  0.70100  0.36893  1.0000
  Fe  Fe23      1.0  0.13448  0.61523  0.45803  1.0000
  C   C94       1.0  0.21241  0.64327  0.31747  1.0000
  S   S43       1.0  0.12041  0.62283  0.50893  1.0000
  H   H154      1.0  0.10613  0.67938  0.33939  1.0000
  H   H155      1.0  0.14087  0.65512  0.31238  1.0000
  H   H156      1.0  0.00197  0.73689  0.31227  1.0000
  C   C95       1.0  0.15420  0.62059  0.53018  1.0000
  C   C96       1.0  0.18806  0.63071  0.51683  1.0000
  C   C97       1.0  0.21455  0.62864  0.53445  1.0000
  C   C98       1.0  0.21617  0.69029  0.32956  1.0000
  S   S44       1.0  0.18594  0.59457  0.43147  1.0000
  H   H157      1.0  0.19381  0.64054  0.49302  1.0000
  H   H158      1.0  0.24074  0.63645  0.52406  1.0000
  C   C99       1.0  0.03138  0.67310  0.38122  1.0000
  C   C100      1.0  0.05032  0.71492  0.38641  1.0000
  C   C101      1.0  0.03592  0.76215  0.38530  1.0000
  H   H159      1.0  0.07580  0.75689  0.32631  1.0000
  C   C102      1.0  0.12743  0.68985  0.32093  1.0000
  H   H160      1.0  0.07606  0.71116  0.39127  1.0000
  H   H161      1.0  0.05061  0.79449  0.38951  1.0000
  S   S45       1.0  0.14579  0.58570  0.37149  1.0000
  S   S46       1.0  0.04778  0.61354  0.38474  1.0000
  H   H162      1.0  0.07790  0.76564  0.52209  1.0000
  C   C103      1.0  0.00235  0.76763  0.37942  1.0000
  C   C104      1.0  0.09828  0.76381  0.30827  1.0000
  H   H163      1.0  0.05463  0.66166  0.54128  1.0000
  H   H164      1.0  0.23023  0.76606  0.31916  1.0000
  H   H165      1.0  0.14596  0.71247  0.33145  1.0000
  H   H166      1.0  0.02754  0.70994  0.53040  1.0000
  H   H167      1.0  0.20506  0.61244  0.33240  1.0000
  C   C105      1.0  0.03810  0.69375  0.54993  1.0000
  C   C106      1.0  0.22705  0.72965  0.30992  1.0000
  H   H168      1.0  0.11666  0.78734  0.31839  1.0000
  H   H169      1.0  0.30291  0.55678  0.32411  1.0000
  C   C107      1.0  0.08679  0.74901  0.54231  1.0000
  S   S47       1.0  0.10567  0.55491  0.43877  1.0000
  C   C108      1.0  0.99828  0.67868  0.37408  1.0000
  H   H170      1.0  0.98993  0.60982  0.43819  1.0000
  H   H171      1.0  0.27981  0.59787  0.30304  1.0000
  H   H172      1.0  0.99094  0.61777  0.47801  1.0000
  H   H173      1.0  0.08511  0.73503  0.60242  1.0000
  S   S48       1.0  0.03810  0.77873  0.65679  1.0000
  H   H174      1.0  0.27622  0.76260  0.67261  1.0000
  H   H175      1.0  0.08806  0.67632  0.58318  1.0000
  C   C109      1.0  0.99565  0.57359  0.79904  1.0000
  S   S49       1.0  0.19422  0.64348  0.66836  1.0000
  H   H176      1.0  0.04823  0.80124  0.58713  1.0000
  Fe  Fe24      1.0  0.22256  0.58969  0.63541  1.0000
  Fe  Fe25      1.0  0.22947  0.61938  0.70000  1.0000
  S   S50       1.0  0.25038  0.68039  0.72569  1.0000
  H   H177      1.0  0.01245  0.76011  0.59215  1.0000
  H   H178      1.0  0.16743  0.59721  0.60261  1.0000
  C   C110      1.0  0.24405  0.67054  0.76519  1.0000
  C   C111      1.0  0.23900  0.62277  0.77706  1.0000
  S   S51       1.0  0.10511  0.58689  0.70338  1.0000
  H   H179      1.0  0.32538  0.03037  0.77324  1.0000
  H   H180      1.0  0.01811  0.59861  0.79823  1.0000
  C   C112      1.0  0.24322  0.71091  0.78500  1.0000
  H   H181      1.0  0.23987  0.59148  0.76196  1.0000
  C   C113      1.0  0.14690  0.60864  0.56115  1.0000
  H   H182      1.0  0.12081  0.60021  0.57152  1.0000
  H   H183      1.0  0.24735  0.74793  0.77596  1.0000
  C   C114      1.0  0.05596  0.72686  0.67195  1.0000
  C   C115      1.0  0.09093  0.72640  0.67405  1.0000
  C   C116      1.0  0.10601  0.68390  0.68420  1.0000
  C   C117      1.0  0.08640  0.64134  0.69177  1.0000
  C   C118      1.0  0.05117  0.64237  0.69046  1.0000
  C   C119      1.0  0.03591  0.68516  0.68082  1.0000
  H   H184      1.0  0.10639  0.75888  0.66766  1.0000
  H   H185      1.0  0.13267  0.68461  0.68637  1.0000
  H   H186      1.0  0.03575  0.60974  0.69609  1.0000
  H   H187      1.0  0.22290  0.71365  0.61776  1.0000
  H   H188      1.0  0.02408  0.79085  0.55652  1.0000
  H   H189      1.0  0.30859  0.76776  0.58918  1.0000
  S   S52       1.0  0.26145  0.57171  0.66542  1.0000
  H   H190      1.0  0.24407  0.79782  0.65741  1.0000
  C   C120      1.0  0.10748  0.63426  0.78964  1.0000
  H   H191      1.0  0.09465  0.62741  0.76951  1.0000
  C   C121      1.0  0.25619  0.76064  0.65764  1.0000
  H   H192      1.0  0.23039  0.77672  0.60590  1.0000
  C   C122      1.0  0.07061  0.70795  0.59059  1.0000
  C   C123      1.0  0.24311  0.74036  0.60789  1.0000
  N   N11       1.0  0.27079  0.74387  0.62660  1.0000
  H   H193      1.0  0.25159  0.99575  0.78071  1.0000
  H   H194      1.0  0.17148  0.70740  0.75376  1.0000
  H   H195      1.0  0.00869  0.68561  0.68002  1.0000
  H   H196      1.0  0.12222  0.75739  0.77951  1.0000
  C   C124      1.0  0.17333  0.60657  0.57874  1.0000
  C   C125      1.0  0.29701  0.77950  0.61259  1.0000
  H   H197      1.0  0.17256  0.64219  0.76028  1.0000
  H   H198      1.0  0.12320  0.60090  0.79269  1.0000
  H   H199      1.0  0.04920  0.69388  0.60786  1.0000
  C   C126      1.0  0.15512  0.67382  0.75800  1.0000
  H   H200      1.0  0.25317  0.72687  0.58447  1.0000
  H   H201      1.0  0.14308  0.66692  0.73747  1.0000
  H   H202      1.0  0.23617  0.73471  0.66882  1.0000
  H   H203      1.0  0.26767  0.66717  0.63848  1.0000
  C   C127      1.0  0.28690  0.69477  0.62827  1.0000
  Fe  Fe26      1.0  0.16210  0.57891  0.68674  1.0000
  H   H204      1.0  0.00016  0.64040  0.75343  1.0000
  N   N12       1.0  0.12892  0.67928  0.78554  1.0000
  C   C128      1.0  0.03469  0.77275  0.57545  1.0000
  H   H205      1.0  0.29800  0.68057  0.60527  1.0000
  H   H206      1.0  0.28575  0.81702  0.61091  1.0000
  H   H207      1.0  0.30768  0.69558  0.64247  1.0000
  S   S53       1.0  0.24064  0.61319  0.58705  1.0000
  H   H208      1.0  0.01584  0.67937  0.56618  1.0000
  H   H209      1.0  0.31829  0.78293  0.62615  1.0000
  S   S54       1.0  0.19576  0.55781  0.72065  1.0000
  C   C129      1.0  0.20723  0.61640  0.56539  1.0000
  H   H210      1.0  0.09375  0.71887  0.76201  1.0000
  C   C130      1.0  0.31245  0.01912  0.79628  1.0000
  C   C131      1.0  0.10693  0.72266  0.78220  1.0000
  H   H211      1.0  0.30880  0.97827  0.79606  1.0000
  H   H212      1.0  0.03826  0.56688  0.74555  1.0000
  H   H213      1.0  0.30032  0.55716  0.73130  1.0000
  C   C132      1.0  0.25686  0.03601  0.78251  1.0000
  N   N13       1.0  0.05757  0.73086  0.56456  1.0000
  H   H214      1.0  0.29440  0.54831  0.78735  1.0000
  H   H215      1.0  0.10168  0.77757  0.55256  1.0000
  Fe  Fe27      1.0  0.11964  0.74772  0.89407  1.0000
  S   S55       1.0  0.13717  0.67969  0.91568  1.0000
  S   S56       1.0  0.07330  0.74796  0.87043  1.0000
  Fe  Fe28      1.0  0.17688  0.81054  0.91265  1.0000
  S   S57       1.0  0.19949  0.74681  0.93505  1.0000
  S   S58       1.0  0.19632  0.88780  0.91755  1.0000
  Fe  Fe29      1.0  0.18977  0.70412  0.89387  1.0000
  S   S59       1.0  0.22311  0.64565  0.86789  1.0000
  Fe  Fe30      1.0  0.14465  0.72904  0.95433  1.0000
  S   S60       1.0  0.12281  0.71331  0.00335  1.0000
  S   S61       1.0  0.17170  0.76957  0.86980  1.0000
  S   S62       1.0  0.12263  0.79557  0.93458  1.0000
  H   H216      1.0  0.24288  0.96647  0.92400  1.0000
  C   C133      1.0  0.15477  0.71754  0.02643  1.0000
  C   C134      1.0  0.18815  0.70099  0.01569  1.0000
  C   C135      1.0  0.21394  0.70647  0.03372  1.0000
  C   C136      1.0  0.00093  0.64382  0.86638  1.0000
  H   H217      1.0  0.30166  0.98491  0.89776  1.0000
  H   H218      1.0  0.19225  0.79952  0.00337  1.0000
  H   H219      1.0  0.19415  0.68406  0.99345  1.0000
  H   H220      1.0  0.23985  0.69403  0.02521  1.0000
  H   H221      1.0  0.24340  0.84045  0.95146  1.0000
  H   H222      1.0  0.27895  0.03425  0.85307  1.0000
  C   C137      1.0  0.23681  0.70363  0.81663  1.0000
  C   C138      1.0  0.01830  0.68912  0.86548  1.0000
  C   C139      1.0  0.05266  0.69063  0.86979  1.0000
  C   C140      1.0  0.07000  0.64646  0.87362  1.0000
  C   C141      1.0  0.05277  0.60117  0.87417  1.0000
  H   H223      1.0  0.24249  0.80620  0.03173  1.0000
  H   H224      1.0  0.09679  0.64677  0.87574  1.0000
  H   H225      1.0  0.06622  0.56714  0.87751  1.0000
  H   H226      1.0  0.02227  0.73863  0.93098  1.0000
  C   C142      1.0  0.25188  0.83308  0.97367  1.0000
  C   C143      1.0  0.23784  0.90014  0.89823  1.0000
  C   C144      1.0  0.25513  0.94215  0.90617  1.0000
  C   C145      1.0  0.28833  0.95290  0.89113  1.0000
  C   C146      1.0  0.26265  0.02749  0.83535  1.0000
  C   C147      1.0  0.25383  0.86884  0.87516  1.0000
  C   C148      1.0  0.39166  0.97300  0.01329  1.0000
  H   H227      1.0  0.36548  0.96172  0.00973  1.0000
  C   C149      1.0  0.03606  0.72484  0.94927  1.0000
  H   H228      1.0  0.17593  0.85715  0.01956  1.0000
  H   H229      1.0  0.21381  0.93204  0.01276  1.0000
  H   H230      1.0  0.24069  0.83618  0.86906  1.0000
  H   H231      1.0  0.18346  0.84873  0.97900  1.0000
  C   C150      1.0  0.24139  0.84678  0.02791  1.0000
  C   C151      1.0  0.23174  0.65584  0.82849  1.0000
  C   C152      1.0  0.23315  0.61542  0.80865  1.0000
  H   H232      1.0  0.04088  0.70195  0.00690  1.0000
  H   H233      1.0  0.25176  0.79221  0.97684  1.0000
  H   H234      1.0  0.27894  0.84589  0.97172  1.0000
  H   H235      1.0  0.22029  0.92171  0.97248  1.0000
  H   H236      1.0  0.25671  0.92684  0.99171  1.0000
  C   C153      1.0  0.01798  0.59987  0.87135  1.0000
  H   H237      1.0  0.12744  0.69290  0.83329  1.0000
  H   H238      1.0  0.02012  0.64282  0.00765  1.0000
  C   C154      1.0  0.23011  0.91207  0.99381  1.0000
  N   N14       1.0  0.22928  0.85806  0.99893  1.0000
  C   C155      1.0  0.19366  0.84017  0.00031  1.0000
  H   H239      1.0  0.06002  0.65343  0.98244  1.0000
  H   H240      1.0  0.41134  0.89058  0.04001  1.0000
  H   H241      1.0  0.00486  0.72312  0.86205  1.0000
  C   C156      1.0  0.28669  0.88049  0.85947  1.0000
  C   C157      1.0  0.00911  0.64487  0.94934  1.0000
  H   H242      1.0  0.06105  0.70928  0.93790  1.0000
  N   N15       1.0  0.01566  0.68740  0.96845  1.0000
  H   H243      1.0  0.22906  0.57851  0.81786  1.0000
  H   H244      1.0  0.08710  0.63739  0.81000  1.0000
  H   H245      1.0  0.41071  0.95067  0.99770  1.0000
  C   C158      1.0  0.30389  0.92270  0.86732  1.0000
  C   C159      1.0  0.14626  0.68630  0.81227  1.0000
  H   H246      1.0  0.04196  0.75731  0.96289  1.0000
  H   H247      1.0  0.23650  0.73488  0.83184  1.0000
  H   H248      1.0  0.26767  0.86138  0.02819  1.0000
  H   H249      1.0  0.03352  0.62756  0.93804  1.0000
  H   H250      1.0  0.29876  0.85679  0.84120  1.0000
  Fe  Fe31      1.0  0.36772  0.00787  0.86132  1.0000
  C   C160      1.0  0.03497  0.67057  0.99241  1.0000
  S   S63       1.0  0.34383  0.93865  0.84602  1.0000
  S   S64       1.0  0.39980  0.00964  0.89848  1.0000
  H   H251      1.0  0.99434  0.65622  0.93119  1.0000
  H   H252      1.0  0.45138  0.96252  0.03392  1.0000
  H   H253      1.0  0.39507  0.01222  0.00595  1.0000
  N   N16       1.0  0.39624  0.96702  0.04537  1.0000
  H   H254      1.0  0.36597  0.90064  0.05194  1.0000
  H   H255      1.0  0.16185  0.65337  0.81641  1.0000
  H   H256      1.0  0.43488  0.02347  0.04335  1.0000
  H   H257      1.0  0.25790  0.98688  0.83509  1.0000
  H   H258      1.0  0.99394  0.61567  0.96292  1.0000
  H   H259      1.0  0.16384  0.71868  0.80929  1.0000
  H   H260      1.0  0.33054  0.02668  0.81248  1.0000
  H   H261      1.0  0.22401  0.86270  0.04779  1.0000
  C   C161      1.0  0.43107  0.98361  0.04895  1.0000
  H   H262      1.0  0.08673  0.72762  0.80263  1.0000
  S   S65       1.0  0.97079  0.54032  0.14599  1.0000
  S   S66       1.0  0.61940  0.29229  0.17083  1.0000
  C   C162      1.0  0.59624  0.23733  0.17005  1.0000
  C   C163      1.0  0.61039  0.19223  0.17723  1.0000
  C   C164      1.0  0.59180  0.14841  0.17634  1.0000
  C   C165      1.0  0.55939  0.14925  0.16743  1.0000
  C   C166      1.0  0.54504  0.19435  0.16050  1.0000
  C   C167      1.0  0.56330  0.23846  0.16218  1.0000
  H   H263      1.0  0.63553  0.19090  0.18381  1.0000
  H   H264      1.0  0.52002  0.19547  0.15377  1.0000
  H   H265      1.0  0.55229  0.27332  0.15656  1.0000
  H   H266      1.0  0.60291  0.11360  0.18192  1.0000
  C   C168      1.0  0.65627  0.24585  0.24194  1.0000
  N   N17       1.0  0.81282  0.05259  0.26295  1.0000
  H   H267      1.0  0.79725  0.10197  0.22968  1.0000
  H   H268      1.0  0.72921  0.28145  0.28806  1.0000
  H   H269      1.0  0.65254  0.09290  0.09900  1.0000
  H   H270      1.0  0.64240  0.21138  0.29977  1.0000
  H   H271      1.0  0.57512  0.22157  0.27757  1.0000
  C   C169      1.0  0.71984  0.15700  0.28286  1.0000
  H   H272      1.0  0.79620  0.51408  0.25772  1.0000
  H   H273      1.0  0.60843  0.17872  0.26239  1.0000
  C   C170      1.0  0.61144  0.30439  0.26045  1.0000
  N   N18       1.0  0.62496  0.25421  0.26456  1.0000
  C   C171      1.0  0.77532  0.52521  0.20321  1.0000
  H   H274      1.0  0.52227  0.16590  0.24054  1.0000
  Fe  Fe32      1.0  0.91664  0.53785  0.17079  1.0000
  C   C172      1.0  0.81307  0.10169  0.24827  1.0000
  N   N19       1.0  0.61448  0.13043  0.07780  1.0000
  H   H275      1.0  0.56229  0.13434  0.10114  1.0000
  H   H276      1.0  0.58762  0.31197  0.27696  1.0000
  H   H277      1.0  0.83035  0.49882  0.22743  1.0000
  C   C173      1.0  0.59869  0.21710  0.26030  1.0000
  C   C174      1.0  0.57696  0.12836  0.07787  1.0000
  H   H278      1.0  0.60518  0.30927  0.23710  1.0000
  H   H279      1.0  0.80256  0.13098  0.26485  1.0000
  C   C175      1.0  0.63351  0.24951  0.29552  1.0000
  H   H280      1.0  0.67645  0.27354  0.24435  1.0000
  C   C176      1.0  0.73007  0.24495  0.27798  1.0000
  C   C177      1.0  0.73255  0.15084  0.25184  1.0000
  Fe  Fe33      1.0  0.67526  0.28102  0.15135  1.0000
  C   C178      1.0  0.62450  0.09143  0.09792  1.0000
  H   H281      1.0  0.61048  0.18629  0.11253  1.0000
  Fe  Fe34      1.0  0.72396  0.23630  0.09828  1.0000
  H   H282      1.0  0.67196  0.25864  0.05479  1.0000
  Fe  Fe35      1.0  0.74134  0.23382  0.16271  1.0000
  S   S67       1.0  0.53822  0.09312  0.16426  1.0000
  S   S68       1.0  0.76169  0.18219  0.19545  1.0000
  H   H283      1.0  0.71184  0.12515  0.29665  1.0000
  Fe  Fe36      1.0  0.74326  0.33073  0.12809  1.0000
  S   S69       1.0  0.76863  0.40386  0.11424  1.0000
  H   H284      1.0  0.61042  0.09546  0.12155  1.0000
  S   S70       1.0  0.77082  0.25837  0.11776  1.0000
  S   S71       1.0  0.69828  0.31025  0.10547  1.0000
  H   H285      1.0  0.65094  0.24928  0.21832  1.0000
  H   H286      1.0  0.63064  0.33324  0.26363  1.0000
  S   S72       1.0  0.88816  0.46747  0.18509  1.0000
  H   H287      1.0  0.75244  0.27031  0.23309  1.0000
  H   H288      1.0  0.61864  0.05391  0.08991  1.0000
  C   C179      1.0  0.80278  0.41977  0.13320  1.0000
  C   C180      1.0  0.82294  0.46114  0.12352  1.0000
  C   C181      1.0  0.85004  0.47500  0.13862  1.0000
  C   C182      1.0  0.85659  0.44820  0.16391  1.0000
  C   C183      1.0  0.83645  0.40676  0.17356  1.0000
  C   C184      1.0  0.80970  0.39236  0.15813  1.0000
  H   H289      1.0  0.81771  0.48239  0.10422  1.0000
  H   H290      1.0  0.86577  0.50642  0.13066  1.0000
  H   H291      1.0  0.84152  0.38574  0.19302  1.0000
  H   H292      1.0  0.79433  0.36024  0.16561  1.0000
  H   H293      1.0  0.66741  0.20844  0.24434  1.0000
  H   H294      1.0  0.65182  0.18234  0.08895  1.0000
  C   C185      1.0  0.74297  0.23877  0.24687  1.0000
  C   C186      1.0  0.74413  0.19163  0.23378  1.0000
  S   S73       1.0  0.69701  0.20498  0.14220  1.0000
  H   H295      1.0  0.75534  0.50789  0.22047  1.0000
  S   S74       1.0  0.71768  0.30832  0.17503  1.0000
  C   C187      1.0  0.49973  0.17569  0.25807  1.0000
  C   C188      1.0  0.71815  0.20409  0.29596  1.0000
  H   H296      1.0  0.59102  0.22053  0.23744  1.0000
  H   H297      1.0  0.56904  0.09178  0.06989  1.0000
  H   H298      1.0  0.73320  0.11443  0.24171  1.0000
  C   C189      1.0  0.62362  0.17934  0.08893  1.0000
  H   H299      1.0  0.83952  0.11295  0.23792  1.0000
  S   S75       1.0  0.72961  0.19127  0.05507  1.0000
  H   H300      1.0  0.79038  0.49462  0.19053  1.0000
  H   H301      1.0  0.65452  0.27520  0.29913  1.0000
  H   H302      1.0  0.50911  0.19850  0.27580  1.0000
  H   H303      1.0  0.61614  0.20978  0.07450  1.0000
  H   H304      1.0  0.56851  0.15721  0.06284  1.0000
  H   H305      1.0  0.76691  0.06777  0.29494  1.0000
  Fe  Fe37      1.0  0.48940  0.09468  0.14433  1.0000
  H   H306      1.0  0.86222  0.06346  0.27664  1.0000
  C   C190      1.0  0.83532  0.05356  0.28647  1.0000
  C   C191      1.0  0.81506  0.53013  0.23903  1.0000
  H   H307      1.0  0.51023  0.24279  0.21347  1.0000
  H   H308      1.0  0.49502  0.27406  0.24873  1.0000
  H   H309      1.0  0.48959  0.14054  0.26903  1.0000
  C   C192      1.0  0.53159  0.15565  0.42679  1.0000
  H   H310      1.0  0.53022  0.06463  0.40278  1.0000
  C   C193      1.0  0.49529  0.23881  0.34084  1.0000
  H   H311      1.0  0.52011  0.19259  0.43321  1.0000
  C   C194      1.0  0.53042  0.14837  0.33881  1.0000
  C   C195      1.0  0.54827  0.19265  0.34024  1.0000
  C   C196      1.0  0.53073  0.23793  0.34115  1.0000
  H   H312      1.0  0.57550  0.19195  0.34083  1.0000
  H   H313      1.0  0.54438  0.27222  0.34288  1.0000
  H   H314      1.0  0.55587  0.15251  0.43645  1.0000
  S   S76       1.0  0.69997  0.21281  0.33436  1.0000
  H   H315      1.0  0.61724  0.23188  0.54879  1.0000
  Fe  Fe38      1.0  0.66929  0.14831  0.35615  1.0000
  H   H316      1.0  0.53861  0.15493  0.40159  1.0000
  H   H317      1.0  0.68592  0.12983  0.45401  1.0000
  S   S77       1.0  0.68646  0.09822  0.39118  1.0000
  H   H318      1.0  0.58996  0.23400  0.52011  1.0000
  C   C197      1.0  0.64629  0.09878  0.48759  1.0000
  H   H319      1.0  0.53754  0.18209  0.52547  1.0000
  S   S78       1.0  0.73240  0.07251  0.54306  1.0000
  S   S79       1.0  0.65189  0.08753  0.32794  1.0000
  Fe  Fe39      1.0  0.60119  0.09670  0.35799  1.0000
  S   S80       1.0  0.55104  0.09147  0.34060  1.0000
  C   C198      1.0  0.70626  0.10488  0.49346  1.0000
  N   N20       1.0  0.50755  0.11527  0.43765  1.0000
  H   H320      1.0  0.61281  0.06636  0.52543  1.0000
  H   H321      1.0  0.56360  0.12828  0.52856  1.0000
  C   C199      1.0  0.63878  0.07782  0.51664  1.0000
  Fe  Fe40      1.0  0.63223  0.10555  0.41580  1.0000
  C   C200      1.0  0.69877  0.08403  0.52253  1.0000
  S   S81       1.0  0.61698  0.16180  0.38354  1.0000
  H   H322      1.0  0.73231  0.11594  0.48456  1.0000
  C   C201      1.0  0.68006  0.11246  0.47607  1.0000
  S   S82       1.0  0.61311  0.10894  0.46632  1.0000
  C   C202      1.0  0.66494  0.07073  0.53420  1.0000
  C   C203      1.0  0.54898  0.15864  0.54180  1.0000
  H   H323      1.0  0.61569  0.18026  0.52374  1.0000
  C   C204      1.0  0.59979  0.20955  0.53688  1.0000
  C   C205      1.0  0.49534  0.14935  0.33712  1.0000
  C   C206      1.0  0.49951  0.11685  0.47120  1.0000
  H   H324      1.0  0.54797  0.06162  0.43738  1.0000
  C   C207      1.0  0.52369  0.06719  0.42800  1.0000
  H   H325      1.0  0.52309  0.11154  0.48165  1.0000
  H   H326      1.0  0.61098  0.25786  0.31327  1.0000
  H   H327      1.0  0.82609  0.08098  0.30465  1.0000
  S   S83       1.0  0.52722  0.25914  0.65395  1.0000
  H   H328      1.0  0.64554  0.12069  0.70055  1.0000
  H   H329      1.0  0.66839  0.19583  0.76397  1.0000
  N   N21       1.0  0.63298  0.14764  0.74646  1.0000
  C   C208      1.0  0.54782  0.20255  0.65744  1.0000
  C   C209      1.0  0.52887  0.15886  0.66176  1.0000
  C   C210      1.0  0.54557  0.11369  0.66449  1.0000
  C   C211      1.0  0.58138  0.11190  0.66212  1.0000
  C   C212      1.0  0.60037  0.15568  0.65779  1.0000
  C   C213      1.0  0.58353  0.20107  0.65592  1.0000
  C   C214      1.0  0.73940  0.18345  0.77125  1.0000
  H   H330      1.0  0.63318  0.17558  0.79166  1.0000
  H   H331      1.0  0.62792  0.15489  0.65621  1.0000
  H   H332      1.0  0.59826  0.23495  0.65276  1.0000
  C   C215      1.0  0.74414  0.18471  0.73941  1.0000
  S   S84       1.0  0.60133  0.05469  0.66556  1.0000
  H   H333      1.0  0.82636  0.22312  0.78968  1.0000
  C   C216      1.0  0.55097  0.22812  0.57546  1.0000
  H   H334      1.0  0.56491  0.13935  0.59732  1.0000
  C   C217      1.0  0.50155  0.20171  0.74029  1.0000
  H   H335      1.0  0.59179  0.19964  0.75929  1.0000
  H   H336      1.0  0.96089  0.49697  0.78016  1.0000
  N   N22       1.0  0.57136  0.18800  0.55860  1.0000
  H   H337      1.0  0.73779  0.21771  0.78366  1.0000
  H   H338      1.0  0.59222  0.11204  0.77660  1.0000
  C   C218      1.0  0.95544  0.53422  0.77140  1.0000
  C   C219      1.0  0.73957  0.09407  0.76975  1.0000
  C   C220      1.0  0.74582  0.14079  0.72260  1.0000
  H   H339      1.0  0.67613  0.10530  0.72459  1.0000
  H   H340      1.0  0.52944  0.21305  0.59215  1.0000
  H   H341      1.0  0.52075  0.10590  0.74722  1.0000
  C   C221      1.0  0.65828  0.13478  0.71934  1.0000
  C   C222      1.0  0.74334  0.09533  0.73779  1.0000
  H   H342      1.0  0.59834  0.08990  0.73788  1.0000
  H   H343      1.0  0.50125  0.15996  0.66377  1.0000
  H   H344      1.0  0.60299  0.17667  0.59304  1.0000
  Fe  Fe41      1.0  0.72733  0.08535  0.65718  1.0000
  H   H345      1.0  0.60090  0.12473  0.56858  1.0000
  H   H346      1.0  0.56688  0.25110  0.58857  1.0000
  H   H347      1.0  0.59588  0.17705  0.72077  1.0000
  H   H348      1.0  0.74613  0.21993  0.72772  1.0000
  H   H349      1.0  0.65905  0.05420  0.55653  1.0000
  H   H350      1.0  0.52173  0.18816  0.72175  1.0000
  C   C223      1.0  0.61187  0.10370  0.75635  1.0000
  H   H351      1.0  0.53078  0.07992  0.66802  1.0000
  S   S85       1.0  0.69021  0.11311  0.62774  1.0000
  S   S86       1.0  0.75075  0.14455  0.68275  1.0000
  H   H352      1.0  0.74497  0.06123  0.72491  1.0000
  C   C224      1.0  0.73722  0.13817  0.78660  1.0000
  Fe  Fe42      1.0  0.71533  0.05861  0.59310  1.0000
  C   C225      1.0  0.65133  0.16380  0.77115  1.0000
  C   C226      1.0  0.58562  0.15576  0.58031  1.0000
  C   C227      1.0  0.61056  0.18820  0.73898  1.0000
  H   H353      1.0  0.62587  0.22155  0.73087  1.0000
  H   H354      1.0  0.62807  0.07269  0.76256  1.0000
  C   C228      1.0  0.50299  0.12349  0.76626  1.0000
  H   H355      1.0  0.51904  0.14055  0.78179  1.0000
  H   H356      1.0  0.67433  0.16715  0.71060  1.0000
  H   H357      1.0  0.51473  0.22190  0.75689  1.0000
  H   H358      1.0  0.66763  0.13363  0.77818  1.0000
  H   H359      1.0  0.53944  0.25304  0.55993  1.0000
  H   H360      1.0  0.73810  0.05887  0.78144  1.0000
  Fe  Fe43      1.0  0.65795  0.04937  0.64748  1.0000
  H   H361      1.0  0.94654  0.52934  0.74909  1.0000
  H   H362      1.0  0.52722  0.14183  0.55753  1.0000
  H   H363      1.0  0.81150  0.52398  0.98247  1.0000
  H   H364      1.0  0.49442  0.13740  0.92932  1.0000
  C   C229      1.0  0.51647  0.10103  0.84981  1.0000
  C   C230      1.0  0.53913  0.24294  0.93667  1.0000
  H   H365      1.0  0.50817  0.19363  0.98673  1.0000
  H   H366      1.0  0.50783  0.22360  0.83492  1.0000
  S   S87       1.0  0.58037  0.23978  0.82614  1.0000
  S   S88       1.0  0.49238  0.04764  0.86000  1.0000
  H   H367      1.0  0.82439  0.21738  0.87362  1.0000
  H   H368      1.0  0.80253  0.17904  0.81465  1.0000
  C   C231      1.0  0.55611  0.18608  0.83465  1.0000
  C   C232      1.0  0.57214  0.14084  0.83842  1.0000
  C   C233      1.0  0.55234  0.09842  0.84606  1.0000
  H   H369      1.0  0.81792  0.46877  0.86187  1.0000
  H   H370      1.0  0.59979  0.13824  0.83546  1.0000
  C   C234      1.0  0.77521  0.26929  0.82604  1.0000
  C   C235      1.0  0.52998  0.17482  0.97202  1.0000
  H   H371      1.0  0.75533  0.23996  0.82829  1.0000
  S   S89       1.0  0.85049  0.41306  0.90486  1.0000
  C   C236      1.0  0.52027  0.18856  0.83780  1.0000
  H   H372      1.0  0.78178  0.20024  0.86820  1.0000
  H   H373      1.0  0.56374  0.25276  0.94446  1.0000
  H   H374      1.0  0.81276  0.38736  0.97416  1.0000
  C   C237      1.0  0.56046  0.16163  0.92119  1.0000
  N   N23       1.0  0.53220  0.18930  0.93977  1.0000
  H   H375      1.0  0.55537  0.12114  0.92152  1.0000
  H   H376      1.0  0.81643  0.37476  0.01320  1.0000
  Fe  Fe44      1.0  0.62716  0.24170  0.84915  1.0000
  H   H377      1.0  0.73285  0.15757  0.99386  1.0000
  H   H378      1.0  0.86418  0.43994  0.96943  1.0000
  H   H379      1.0  0.54137  0.25516  0.91254  1.0000
  S   S90       1.0  0.63055  0.22486  0.95912  1.0000
  S   S91       1.0  0.64335  0.17618  0.87412  1.0000
  C   C238      1.0  0.80258  0.48517  0.98072  1.0000
  S   S92       1.0  0.63275  0.29592  0.88604  1.0000
  Fe  Fe45      1.0  0.65299  0.23134  0.90942  1.0000
  H   H380      1.0  0.63256  0.27011  0.01714  1.0000
  C   C239      1.0  0.80545  0.40092  0.99799  1.0000
  C   C240      1.0  0.67699  0.23961  0.03320  1.0000
  S   S93       1.0  0.67944  0.25687  0.82319  1.0000
  H   H381      1.0  0.52604  0.13431  0.97512  1.0000
  H   H382      1.0  0.55398  0.18447  0.98092  1.0000
  N   N24       1.0  0.81781  0.45191  0.00130  1.0000
  C   C241      1.0  0.70482  0.20694  0.02700  1.0000
  S   S94       1.0  0.73158  0.13614  0.82666  1.0000
  Fe  Fe46      1.0  0.87310  0.48913  0.89721  1.0000
  S   S95       1.0  0.91139  0.50759  0.92748  1.0000
  Fe  Fe47      1.0  0.69644  0.19494  0.85048  1.0000
  C   C242      1.0  0.66099  0.22139  0.98381  1.0000
  S   S96       1.0  0.71283  0.37815  0.85281  1.0000
  Fe  Fe48      1.0  0.68727  0.30427  0.86285  1.0000
  S   S97       1.0  0.70819  0.24308  0.88869  1.0000
  C   C243      1.0  0.81081  0.40653  0.89237  1.0000
  C   C244      1.0  0.74918  0.39069  0.86979  1.0000
  C   C245      1.0  0.75810  0.36007  0.89259  1.0000
  C   C246      1.0  0.78906  0.36760  0.90361  1.0000
  C   C247      1.0  0.80127  0.43849  0.87052  1.0000
  C   C248      1.0  0.77057  0.43036  0.85912  1.0000
  H   H383      1.0  0.74120  0.33057  0.90172  1.0000
  H   H384      1.0  0.79616  0.34322  0.92082  1.0000
  H   H385      1.0  0.76365  0.45439  0.84164  1.0000
  H   H386      1.0  0.62615  0.15152  0.03071  1.0000
  C   C249      1.0  0.85568  0.45298  0.99320  1.0000
  H   H387      1.0  0.77694  0.39875  0.00391  1.0000
  C   C250      1.0  0.65474  0.24611  0.01185  1.0000
  C   C251      1.0  0.71136  0.18292  0.99873  1.0000
  C   C252      1.0  0.68976  0.19062  0.97700  1.0000
  H   H388      1.0  0.56416  0.17391  0.89711  1.0000
  H   H389      1.0  0.69457  0.17113  0.95550  1.0000
  N   N25       1.0  0.80749  0.25054  0.83467  1.0000
  H   H390      1.0  0.84555  0.19488  0.81949  1.0000
  H   H391      1.0  0.58526  0.16737  0.92956  1.0000
  H   H392      1.0  0.66137  0.12424  0.04574  1.0000
  H   H393      1.0  0.86581  0.49117  0.99490  1.0000
  C   C253      1.0  0.82119  0.21018  0.81370  1.0000
  C   C254      1.0  0.50045  0.14604  0.84537  1.0000
  H   H394      1.0  0.51833  0.26505  0.95042  1.0000
  H   H395      1.0  0.86815  0.42889  0.00851  1.0000
  C   C255      1.0  0.80766  0.46857  0.03314  1.0000
  C   C256      1.0  0.80054  0.23135  0.86613  1.0000
  H   H396      1.0  0.78955  0.26061  0.88251  1.0000
  H   H397      1.0  0.56482  0.06352  0.84926  1.0000
  H   H398      1.0  0.80983  0.47355  0.95651  1.0000
  C   C257      1.0  0.49947  0.17790  0.92907  1.0000
  H   H399      1.0  0.77401  0.48542  0.98609  1.0000
  H   H400      1.0  0.49986  0.19063  0.90527  1.0000
  H   H401      1.0  0.62685  0.08608  0.03734  1.0000
  C   C258      1.0  0.63297  0.12265  0.04653  1.0000
  C   C259      1.0  0.83271  0.29124  0.83282  1.0000
  H   H402      1.0  0.76442  0.30043  0.84082  1.0000
  H   H403      1.0  0.82282  0.32238  0.84823  1.0000
  H   H404      1.0  0.85734  0.27871  0.83949  1.0000
  S   S98       1.0  0.90400  0.52340  0.85549  1.0000
  H   H405      1.0  0.83845  0.30663  0.80939  1.0000
  H   H406      1.0  0.81684  0.50686  0.03638  1.0000
  H   H407      1.0  0.77922  0.46833  0.04009  1.0000
  H   H408      1.0  0.81849  0.44398  0.04932  1.0000
  H   H409      1.0  0.77905  0.28296  0.80218  1.0000
  Fe  Fe49      1.0  0.91211  0.64825  0.17981  1.0000
  S   S99       1.0  0.87939  0.71072  0.20222  1.0000
  Fe  Fe50      1.0  0.95270  0.60510  0.12136  1.0000
  H   H410      1.0  0.76399  0.62125  0.21819  1.0000
  C   C260      1.0  0.77709  0.59882  0.23390  1.0000
  S   S100      1.0  0.96541  0.66157  0.15458  1.0000
  H   H411      1.0  0.83627  0.01681  0.29763  1.0000
  C   C261      1.0  0.91006  0.62283  0.05844  1.0000
  H   H412      1.0  0.86557  0.78764  0.24701  1.0000
  H   H413      1.0  0.84074  0.55087  0.18166  1.0000
  Fe  Fe51      1.0  0.97988  0.59637  0.18079  1.0000
  C   C262      1.0  0.86382  0.75254  0.25881  1.0000
  C   C263      1.0  0.86877  0.70840  0.24213  1.0000
  C   C264      1.0  0.86600  0.66319  0.25756  1.0000
  H   H414      1.0  0.82572  0.97731  0.25014  1.0000
  H   H415      1.0  0.86931  0.62901  0.24500  1.0000
  S   S101      1.0  0.97517  0.61057  0.07163  1.0000
  S   S102      1.0  0.89743  0.59864  0.14352  1.0000
  H   H416      1.0  0.85225  0.02303  0.22853  1.0000
  H   H417      1.0  0.90344  0.63854  0.08094  1.0000
  H   H418      1.0  0.76204  0.54520  0.18659  1.0000
  H   H419      1.0  0.84077  0.60680  0.20322  1.0000
  N   N26       1.0  0.96976  0.70824  0.28174  1.0000
  H   H420      1.0  0.85714  0.62704  0.30126  1.0000
  H   H421      1.0  0.98028  0.63611  0.26167  1.0000
  H   H422      1.0  0.77625  0.00324  0.28850  1.0000
  H   H423      1.0  0.94078  0.69545  0.24544  1.0000
  S   S103      1.0  0.92777  0.58721  0.20849  1.0000
  C   C265      1.0  0.77736  0.04014  0.27725  1.0000
  C   C266      1.0  0.95485  0.72557  0.25521  1.0000
  C   C267      1.0  0.82555  0.01482  0.23981  1.0000
  H   H424      1.0  0.93625  0.75640  0.26152  1.0000
  C   C268      1.0  0.85777  0.75155  0.29078  1.0000
  H   H425      1.0  0.80910  0.01306  0.22172  1.0000
  H   H426      1.0  0.81197  0.60032  0.17620  1.0000
  H   H427      1.0  0.83315  0.55364  0.24946  1.0000
  C   C269      1.0  0.85887  0.66213  0.28945  1.0000
  H   H428      1.0  0.92648  0.66190  0.29774  1.0000
  N   N27       1.0  0.79779  0.55858  0.21748  1.0000
  H   H429      1.0  0.97500  0.73925  0.23673  1.0000
  H   H430      1.0  0.79350  0.62456  0.24484  1.0000
  H   H431      1.0  0.75962  0.03909  0.26021  1.0000
  C   C270      1.0  0.82391  0.58015  0.19362  1.0000
  H   H432      1.0  0.75699  0.58404  0.25208  1.0000
  H   H433      1.0  0.97161  0.78050  0.30178  1.0000
  N   N28       1.0  0.94750  0.65155  0.46241  1.0000
  H   H434      1.0  0.74935  0.94267  0.49299  1.0000
  N   N29       1.0  0.73570  0.96512  0.45021  1.0000
  S   S104      1.0  0.68994  0.96396  0.35457  1.0000
  H   H435      1.0  0.94162  0.65830  0.51113  1.0000
  C   C271      1.0  0.70481  0.98231  0.43828  1.0000
  Fe  Fe52      1.0  0.86518  0.88520  0.37222  1.0000
  S   S105      1.0  0.82767  0.82828  0.39409  1.0000
  S   S106      1.0  0.84954  0.95806  0.35416  1.0000
  Fe  Fe53      1.0  0.92709  0.82698  0.38432  1.0000
  S   S107      1.0  0.89519  0.76537  0.40736  1.0000
  S   S108      1.0  0.85164  0.70372  0.34602  1.0000
  Fe  Fe54      1.0  0.86506  0.77366  0.36895  1.0000
  H   H436      1.0  0.79916  0.87001  0.54218  1.0000
  Fe  Fe55      1.0  0.86121  0.82551  0.43031  1.0000
  S   S109      1.0  0.83881  0.82351  0.48030  1.0000
  H   H437      1.0  0.98379  0.64633  0.36960  1.0000
  S   S110      1.0  0.89576  0.88682  0.41051  1.0000
  C   C272      1.0  0.85701  0.92161  0.54103  1.0000
  H   H438      1.0  0.71077  0.99055  0.41354  1.0000
  H   H439      1.0  0.68416  0.95392  0.44126  1.0000
  C   C273      1.0  0.74854  0.91876  0.43469  1.0000
  H   H440      1.0  0.95767  0.73021  0.36893  1.0000
  C   C274      1.0  0.86900  0.80216  0.50235  1.0000
  C   C275      1.0  0.85799  0.78368  0.53171  1.0000
  C   C276      1.0  0.92806  0.78524  0.50815  1.0000
  C   C277      1.0  0.90412  0.80349  0.49077  1.0000
  H   H441      1.0  0.95520  0.78653  0.49910  1.0000
  H   H442      1.0  0.91286  0.81863  0.46838  1.0000
  C   C278      1.0  0.73473  0.96334  0.35154  1.0000
  C   C279      1.0  0.75234  0.91818  0.34778  1.0000
  C   C280      1.0  0.78784  0.91643  0.34800  1.0000
  C   C281      1.0  0.80570  0.95988  0.35196  1.0000
  C   C282      1.0  0.78833  0.00529  0.35457  1.0000
  C   C283      1.0  0.75285  0.00702  0.35436  1.0000
  H   H443      1.0  0.73841  0.88436  0.34528  1.0000
  H   H444      1.0  0.80133  0.88144  0.34512  1.0000
  H   H445      1.0  0.83081  0.78198  0.54060  1.0000
  H   H446      1.0  0.77176  0.90445  0.44321  1.0000
  H   H447      1.0  0.78658  0.99141  0.45295  1.0000
  H   H448      1.0  0.70605  0.92807  0.48836  1.0000
  H   H449      1.0  0.75407  0.03874  0.45607  1.0000
  H   H450      1.0  0.90492  0.67131  0.44010  1.0000
  H   H451      1.0  0.76989  0.01118  0.41980  1.0000
  H   H452      1.0  0.96126  0.57486  0.46563  1.0000
  C   C284      1.0  0.72676  0.95618  0.48327  1.0000
  S   S111      1.0  0.98463  0.82683  0.37887  1.0000
  C   C285      1.0  0.92590  0.65228  0.49282  1.0000
  H   H453      1.0  0.92397  0.72300  0.31387  1.0000
  H   H454      1.0  0.81827  0.00523  0.54536  1.0000
  C   C286      1.0  0.91704  0.76513  0.53702  1.0000
  C   C287      1.0  0.76274  0.00331  0.44455  1.0000
  H   H455      1.0  0.90647  0.68265  0.49473  1.0000
  S   S112      1.0  0.89991  0.83081  0.34404  1.0000
  H   H456      1.0  0.75587  0.92449  0.40979  1.0000
  C   C288      1.0  0.94186  0.69202  0.30590  1.0000
  H   H457      1.0  0.85307  0.90925  0.51799  1.0000
  H   H458      1.0  0.91258  0.60607  0.44215  1.0000
  H   H459      1.0  0.97939  0.70958  0.47544  1.0000
  C   C289      1.0  0.92547  0.64271  0.43907  1.0000
  H   H460      1.0  0.94657  0.72998  0.45441  1.0000
  H   H461      1.0  0.95200  0.67756  0.32602  1.0000
  C   C290      1.0  0.97350  0.61171  0.46105  1.0000
  C   C291      1.0  0.98349  0.72591  0.37378  1.0000
  H   H462      1.0  0.91176  0.61691  0.49780  1.0000
  Fe  Fe56      1.0  0.66534  0.03827  0.36468  1.0000
  H   H463      1.0  0.71744  0.99062  0.49573  1.0000
  H   H464      1.0  0.72869  0.88920  0.43795  1.0000
  H   H465      1.0  0.94064  0.64361  0.41577  1.0000
  H   H466      1.0  0.73955  0.04207  0.35658  1.0000
  C   C292      1.0  0.96510  0.69963  0.45672  1.0000
  H   H467      1.0  0.69400  0.01666  0.44992  1.0000
  C   C293      1.0  0.88199  0.76530  0.54910  1.0000
  H   H468      1.0  0.98409  0.69904  0.43543  1.0000
  H   H469      1.0  0.79960  0.95835  0.52456  1.0000
  H   H470      1.0  0.85466  0.78580  0.30348  1.0000
  C   C294      1.0  0.80433  0.96933  0.54758  1.0000
  H   H471      1.0  0.50630  0.03579  0.43575  1.0000
  H   H472      1.0  0.87208  0.89207  0.55038  1.0000
  C   C295      1.0  0.85559  0.70630  0.30615  1.0000
  H   H473      1.0  0.80219  0.03898  0.35750  1.0000
  H   H474      1.0  0.87313  0.95551  0.53812  1.0000
  S   S113      1.0  0.61264  0.04122  0.39214  1.0000
  N   N30       1.0  0.98590  0.56664  0.76867  1.0000
  Fe  Fe57      1.0  0.90957  0.80319  0.66230  1.0000
  S   S114      1.0  0.88943  0.73490  0.64243  1.0000
  S   S115      1.0  0.87787  0.86814  0.68193  1.0000
  S   S116      1.0  0.69350  0.02453  0.67908  1.0000
  S   S117      1.0  0.96860  0.69366  0.63284  1.0000
  Fe  Fe58      1.0  0.93694  0.74158  0.60702  1.0000
  H   H475      1.0  0.77880  0.97631  0.56186  1.0000
  Fe  Fe59      1.0  0.92334  0.69486  0.67058  1.0000
  S   S118      1.0  0.90702  0.62580  0.69760  1.0000
  S   S119      1.0  0.95426  0.81298  0.62492  1.0000
  S   S120      1.0  0.94049  0.76283  0.69259  1.0000
  C   C296      1.0  0.89430  0.63198  0.73719  1.0000
  C   C297      1.0  0.88142  0.59085  0.75448  1.0000
  C   C298      1.0  0.89700  0.67724  0.75175  1.0000
  H   H476      1.0  0.79253  0.81607  0.71362  1.0000
  H   H477      1.0  0.90695  0.70902  0.73891  1.0000
  H   H478      1.0  0.95632  0.63386  0.77171  1.0000
  H   H479      1.0  0.77817  0.89031  0.57909  1.0000
  C   C299      1.0  0.84444  0.78238  0.73989  1.0000
  H   H480      1.0  0.84484  0.91927  0.60229  1.0000
  C   C300      1.0  0.78670  0.92607  0.66945  1.0000
  C   C301      1.0  0.81878  0.91907  0.67861  1.0000
  C   C302      1.0  0.83853  0.87705  0.66920  1.0000
  C   C303      1.0  0.82614  0.84205  0.65061  1.0000
  C   C304      1.0  0.79362  0.84816  0.64230  1.0000
  H   H481      1.0  0.82834  0.94637  0.69293  1.0000
  H   H482      1.0  0.84132  0.80998  0.64292  1.0000
  H   H483      1.0  0.78386  0.82062  0.62828  1.0000
  C   C305      1.0  0.77403  0.89034  0.65151  1.0000
  H   H484      1.0  0.76918  0.75900  0.71466  1.0000
  H   H485      1.0  0.77167  0.95887  0.67650  1.0000
  C   C306      1.0  0.78768  0.77485  0.76932  1.0000
  N   N31       1.0  0.82387  0.93079  0.56109  1.0000
  H   H486      1.0  0.84547  0.98241  0.58960  1.0000
  H   H487      1.0  0.88816  0.71706  0.79429  1.0000
  C   C307      1.0  0.79518  0.77505  0.71442  1.0000
  C   C308      1.0  0.87335  0.64079  0.80044  1.0000
  H   H488      1.0  0.87901  0.55572  0.74336  1.0000
  H   H489      1.0  0.96931  0.61126  0.73369  1.0000
  N   N32       1.0  0.81031  0.75923  0.74113  1.0000
  H   H490      1.0  0.79850  0.76356  0.78991  1.0000
  Fe  Fe60      1.0  0.98301  0.76481  0.65299  1.0000
  H   H491      1.0  0.80588  0.95472  0.60685  1.0000
  H   H492      1.0  0.87328  0.74950  0.57131  1.0000
  H   H493      1.0  0.83245  0.69176  0.72073  1.0000
  H   H494      1.0  0.76170  0.75799  0.77108  1.0000
  C   C309      1.0  0.80369  0.88457  0.56459  1.0000
  S   S121      1.0  0.73473  0.89895  0.63889  1.0000
  C   C310      1.0  0.87107  0.59517  0.78610  1.0000
  C   C311      1.0  0.83038  0.94754  0.59123  1.0000
  C   C312      1.0  0.88638  0.68173  0.78321  1.0000
  C   C313      1.0  0.81401  0.70476  0.74087  1.0000
  H   H495      1.0  0.78433  0.81578  0.77020  1.0000
  H   H496      1.0  0.85661  0.77174  0.75979  1.0000
  H   H497      1.0  0.86041  0.56361  0.79928  1.0000
  H   H498      1.0  0.84265  0.82353  0.73966  1.0000
  H   H499      1.0  0.86225  0.77138  0.71893  1.0000
  S   S122      1.0  0.67946  0.99715  0.60993  1.0000
  H   H500      1.0  0.81158  0.76334  0.69284  1.0000
  Fe  Fe61      1.0  0.71841  0.97852  0.63956  1.0000
  C   C314      1.0  0.97762  0.61516  0.75633  1.0000
  H   H501      1.0  0.82364  0.69126  0.76155  1.0000
  H   H502      1.0  0.78900  0.68609  0.74030  1.0000
  H   H503      1.0  0.93358  0.55002  0.78754  1.0000
  S   S123      1.0  0.75592  0.03704  0.62051  1.0000
  H   H504      1.0  0.81723  0.85519  0.57557  1.0000
  S   S124      1.0  0.94718  0.73531  0.55592  1.0000
  H   H505      1.0  0.93392  0.56988  0.97670  1.0000
  S   S125      1.0  0.91178  0.62019  0.90032  1.0000
  C   C315      1.0  0.95190  0.58612  0.01891  1.0000
  S   S126      1.0  0.85749  0.64887  0.83921  1.0000
  Fe  Fe62      1.0  0.93913  0.54876  0.88728  1.0000
  H   H506      1.0  0.96710  0.72190  0.96527  1.0000
  Fe  Fe63      1.0  0.87464  0.59266  0.87091  1.0000
  H   H507      1.0  0.97747  0.57172  0.01131  1.0000
  Fe  Fe64      1.0  0.88050  0.57668  0.93758  1.0000
  S   S127      1.0  0.86265  0.60199  0.98560  1.0000
  H   H508      1.0  0.97439  0.64307  0.86317  1.0000
  S   S128      1.0  0.84027  0.55609  0.90965  1.0000
  C   C316      1.0  0.94343  0.60566  0.04832  1.0000
  C   C317      1.0  0.98253  0.70937  0.98270  1.0000
  C   C318      1.0  0.89395  0.60246  0.00949  1.0000
  C   C319      1.0  0.88536  0.62112  0.03907  1.0000
  C   C320      1.0  0.92723  0.58472  0.99942  1.0000
  H   H509      1.0  0.96656  0.68226  0.99755  1.0000
  H   H510      1.0  0.98648  0.74181  0.99712  1.0000
  H   H511      1.0  0.97411  0.58983  0.81541  1.0000
  H   H512      1.0  0.85965  0.63495  0.04691  1.0000
