data_image0
_chemical_formula_structural       HC2H2CHCH2C2HCH2CH2NCFeS2FeCHFeSHSHFeSHSFeSFeSHSC2FeCHC3H2CH2NH3C2H2C2HC2HSHC3H2CH3CNHCHSH4C4H2CH5S2HNCH3NCFeHC2SCFe2H3SHSHSCHSC2HSH2FeHCFeS2HFeS3FeS2HSFeSFeSHS3CFeH3C6H3CHCFeHC7H2SHSC6H2CHCH5C3H3FeCFe2H2CHSCHNHCHCH4CH9SHCHCHCHSHFeSHSFeSFeS2FeS3Fe2HSC2H2NH4C3H2CHC4H3FeCH2C4HCHCH5C2HCSCH4SHCHSH4CHC2NCHSH3CH3CH4NH2CNHCH2SHFeSFeSCSH4CHC3H2C2H3FeH2C2SCFeH2CH3C2HFeH3CSNCNFeSCHCH2C2H3FeCHCHSHNSHCFeSC2HS2CHCHCHCH3CSHCHCHS3HCFeC4SNHCHCHCH2CH3C2H8CH2NSCHSHCHCSHCHFeCH6NCH2C2H3CH3CHCSHC2H4CH3C2H11SCSHC2HC2SCH3CH2C2HNCH3NHCH5CHSH2CH2CH4CH2CHSCHC2H5FeCSHC3HNCH5CH2CHCH3C4H5CSH4C2H4CH5FeS2FeS2FeSFeS3FeS2FeSHFeCFeS3C2HCHSNHCHC3H2NCH4C6H4CH3CHCH2CH2NH8CNCHC2HCHCHCHC3HCH4CH2C2H2C2H3NH3CH3FeS2FeS2FeCFeS3FeSCFeS2FeSFeHS2H2NCHC2H2C6H4C2H2CHC2HCNC4HC2H3NCSH7CHCHCHCHCH5CHCH6C2H3SH2C2H13CH3CHCHNC2SH2CHC2H2SCH2CHC2SCH2CH2CH4CH4CHNCH2NSH5CH2SH2C3H2SC2HCHFeH5SHSH2FeCHC3H2CH4CH3SCH3NHCH2FeC2HCHSCH6CSH2NCH3SC2H2CHCHC2H2CHCHCH2CH4NSCH3CFeC2H3CHSCNCNH2C5HSH2C2HCSCH6CH5CH2CH2CHCH3SCFeCHSHFeHCHS2H2C3HCFeH2FeH2CFe2CNHSFeS2HSCH4SC2HSH2S2H2C2HCFeHNH2CSHCHCHC3HFeCH5SHCHC2H3NSH4CNHCH2CH2CNHC2H2CH2C4H3C2HCSFeS2FeSFeS3FeS2FeHCFeH2SH3CHC4H4CHCH5SCH3CSH2C2HCH2CH2CH3CH5CH8CNSFeS2H2FeSHFeCFeSFeSHFeHSFeCSFeS3FeC3NH4SCHC2HC2HCHC6H6SCHCH3CH4CSCHC2H3SFeCH3CHNSH2FeCHSC2H2CHCNSH2FeSFeCH2SC2SHSH3SC2FeHC4SNFeC5H2SH3CSCHNH6CSHCH2FeS2FeHFeC2SHSFeSCFeSFeS2C3HCHSHCHFeCS2C3H4SH2CHCHNC4SH5C2HCHCHC2HSCH3C2H3NH2CHC2H5
_chemical_formula_sum              "H768 C480 N48 Fe96 S192"
_cell_length_a       58.5506
_cell_length_b       58.7458
_cell_length_c       38.5431
_cell_angle_alpha    90.1668
_cell_angle_beta     90.5761
_cell_angle_gamma    120.443

_space_group_name_H-M_alt    "P 1"
_space_group_IT_number       1

loop_
  _space_group_symop_operation_xyz
  'x, y, z'

loop_
  _atom_site_type_symbol
  _atom_site_label
  _atom_site_symmetry_multiplicity
  _atom_site_fract_x
  _atom_site_fract_y
  _atom_site_fract_z
  _atom_site_occupancy
  H   H1        1.0  0.40809  0.22121  0.39414  1.0000
  C   C1        1.0  0.42894  0.23781  0.39569  1.0000
  C   C2        1.0  0.43750  0.23042  0.33672  1.0000
  H   H2        1.0  0.44133  0.23002  0.40647  1.0000
  H   H3        1.0  0.41692  0.21350  0.33333  1.0000
  C   C3        1.0  0.47187  0.22096  0.48984  1.0000
  H   H4        1.0  0.46651  0.21312  0.46371  1.0000
  C   C4        1.0  0.50364  0.24322  0.03392  1.0000
  H   H5        1.0  0.42981  0.25236  0.41508  1.0000
  H   H6        1.0  0.45014  0.22241  0.34578  1.0000
  C   C5        1.0  0.45080  0.22663  0.01910  1.0000
  C   C6        1.0  0.48877  0.22050  0.01312  1.0000
  H   H7        1.0  0.40068  0.24446  0.34523  1.0000
  C   C7        1.0  0.46571  0.24940  0.03981  1.0000
  H   H8        1.0  0.46445  0.01286  0.02105  1.0000
  H   H9        1.0  0.50362  0.18103  0.48388  1.0000
  C   C8        1.0  0.47797  0.24707  0.49666  1.0000
  H   H10       1.0  0.43028  0.22011  0.01316  1.0000
  H   H11       1.0  0.44466  0.23926  0.31070  1.0000
  N   N1        1.0  0.43856  0.25018  0.36150  1.0000
  C   C9        1.0  0.49219  0.25747  0.04737  1.0000
  Fe  Fe1       1.0  0.46386  0.10450  0.96077  1.0000
  S   S1        1.0  0.48709  0.10491  0.91473  1.0000
  S   S2        1.0  0.43326  0.06642  0.98641  1.0000
  Fe  Fe2       1.0  0.49170  0.16567  0.96514  1.0000
  C   C10       1.0  0.39971  0.01268  0.98264  1.0000
  H   H12       1.0  0.49015  0.24837  0.58360  1.0000
  Fe  Fe3       1.0  0.47934  0.13622  0.89438  1.0000
  S   S3        1.0  0.46086  0.13166  0.84051  1.0000
  H   H13       1.0  0.40426  0.07288  0.92788  1.0000
  S   S4        1.0  0.45390  0.13417  0.93943  1.0000
  H   H14       1.0  0.50940  0.16469  0.51919  1.0000
  Fe  Fe4       1.0  0.49764  0.13121  0.64427  1.0000
  S   S5        1.0  0.45841  0.12822  0.63523  1.0000
  H   H15       1.0  0.41483  0.04643  0.86638  1.0000
  S   S6        1.0  0.46488  0.12029  0.55299  1.0000
  Fe  Fe5       1.0  0.47743  0.15487  0.58927  1.0000
  S   S7        1.0  0.47996  0.19513  0.58559  1.0000
  Fe  Fe6       1.0  0.45009  0.09397  0.59988  1.0000
  S   S8        1.0  0.41072  0.05513  0.60292  1.0000
  H   H16       1.0  0.43407  0.08041  0.87987  1.0000
  S   S9        1.0  0.48858  0.09563  0.61149  1.0000
  C   C11       1.0  0.47885  0.21446  0.55063  1.0000
  C   C12       1.0  0.39565  0.09218  0.86858  1.0000
  Fe  Fe7       1.0  0.50410  0.12382  0.56669  1.0000
  C   C13       1.0  0.48463  0.25678  0.53069  1.0000
  H   H17       1.0  0.44289  0.04935  0.91977  1.0000
  C   C14       1.0  0.47707  0.13283  0.80134  1.0000
  C   C15       1.0  0.46202  0.12344  0.77047  1.0000
  C   C16       1.0  0.47429  0.12512  0.73854  1.0000
  H   H18       1.0  0.37760  0.09270  0.87588  1.0000
  H   H19       1.0  0.46970  0.18999  0.73981  1.0000
  C   C17       1.0  0.42928  0.02181  0.58353  1.0000
  H   H20       1.0  0.44076  0.11485  0.77123  1.0000
  H   H21       1.0  0.46247  0.11774  0.71501  1.0000
  N   N2        1.0  0.39237  0.06579  0.87405  1.0000
  H   H22       1.0  0.35104  0.04513  0.85991  1.0000
  H   H23       1.0  0.50003  0.17793  0.66334  1.0000
  H   H24       1.0  0.40013  0.09835  0.84101  1.0000
  C   C18       1.0  0.41951  0.03516  0.96583  1.0000
  C   C19       1.0  0.42733  0.03235  0.93270  1.0000
  H   H25       1.0  0.46293  0.18674  0.65968  1.0000
  H   H26       1.0  0.44862  0.03937  0.58170  1.0000
  C   C20       1.0  0.40752  0.02405  0.59318  1.0000
  C   C21       1.0  0.36982  0.04598  0.85280  1.0000
  H   H27       1.0  0.37314  0.05063  0.82467  1.0000
  C   C22       1.0  0.50186  0.13689  0.73702  1.0000
  C   C23       1.0  0.48199  0.18507  0.72308  1.0000
  H   H28       1.0  0.48527  0.22111  0.65247  1.0000
  S   S10       1.0  0.49937  0.13560  0.99055  1.0000
  H   H29       1.0  0.46691  0.18457  0.51102  1.0000
  C   C24       1.0  0.47571  0.20605  0.67313  1.0000
  C   C25       1.0  0.47221  0.20473  0.51660  1.0000
  C   C26       1.0  0.41680  0.06619  0.86368  1.0000
  H   H30       1.0  0.42192  0.07244  0.83623  1.0000
  H   H31       1.0  0.36686  0.02583  0.85646  1.0000
  C   C27       1.0  0.38724  0.05882  0.91112  1.0000
  H   H32       1.0  0.41250  0.10752  0.88437  1.0000
  H   H33       1.0  0.36943  0.05912  0.92022  1.0000
  H   H34       1.0  0.46251  0.21093  0.68792  1.0000
  C   C28       1.0  0.48505  0.24057  0.55742  1.0000
  N   N3        1.0  0.49563  0.20507  0.69596  1.0000
  H   H35       1.0  0.46863  0.16524  0.71135  1.0000
  C   C29       1.0  0.50454  0.14382  0.80000  1.0000
  H   H36       1.0  0.44771  0.00836  0.98025  1.0000
  S   S11       1.0  0.50472  0.20377  0.99667  1.0000
  H   H37       1.0  0.50083  0.23732  0.72817  1.0000
  H   H38       1.0  0.45046  0.19480  0.98998  1.0000
  H   H39       1.0  0.38389  0.03870  0.91608  1.0000
  H   H40       1.0  0.49640  0.18324  0.74027  1.0000
  C   C30       1.0  0.46221  0.21224  0.00584  1.0000
  C   C31       1.0  0.51267  0.23119  0.71241  1.0000
  C   C32       1.0  0.51216  0.19786  0.67519  1.0000
  C   C33       1.0  0.41449  0.00757  0.91584  1.0000
  H   H41       1.0  0.39354  0.01466  0.00831  1.0000
  H   H42       1.0  0.27163  0.38795  0.04399  1.0000
  C   C34       1.0  0.47337  0.41328  0.18033  1.0000
  H   H43       1.0  0.33327  0.39384  0.08214  1.0000
  H   H44       1.0  0.41531  0.40745  0.02367  1.0000
  H   H45       1.0  0.15411  0.39968  0.46561  1.0000
  H   H46       1.0  0.10915  0.49742  0.01137  1.0000
  H   H47       1.0  0.39888  0.49213  0.27377  1.0000
  S   S12       1.0  0.47695  0.26644  0.46166  1.0000
  S   S13       1.0  0.50040  0.38033  0.11701  1.0000
  H   H48       1.0  0.27568  0.47033  0.46563  1.0000
  N   N4        1.0  0.47326  0.39865  0.21155  1.0000
  C   C35       1.0  0.24402  0.45988  0.05092  1.0000
  H   H49       1.0  0.50010  0.30580  0.02479  1.0000
  H   H50       1.0  0.23763  0.47792  0.46789  1.0000
  H   H51       1.0  0.50023  0.39071  0.24004  1.0000
  N   N5        1.0  0.30505  0.38218  0.03992  1.0000
  C   C36       1.0  0.27980  0.47048  0.01157  1.0000
  Fe  Fe8       1.0  0.46957  0.30805  0.08163  1.0000
  H   H52       1.0  0.44715  0.40761  0.23940  1.0000
  C   C37       1.0  0.50649  0.34842  0.29771  1.0000
  C   C38       1.0  0.47882  0.33411  0.29892  1.0000
  S   S14       1.0  0.45726  0.31731  0.13282  1.0000
  C   C39       1.0  0.32249  0.37742  0.06309  1.0000
  Fe  Fe9       1.0  0.48384  0.30860  0.45692  1.0000
  Fe  Fe10      1.0  0.47896  0.33738  0.39319  1.0000
  H   H53       1.0  0.44280  0.31352  0.26843  1.0000
  H   H54       1.0  0.46750  0.28747  0.38329  1.0000
  H   H55       1.0  0.18162  0.42589  0.48870  1.0000
  S   S15       1.0  0.45008  0.31216  0.43416  1.0000
  H   H56       1.0  0.17889  0.39421  0.48552  1.0000
  S   S16       1.0  0.46525  0.33952  0.05413  1.0000
  H   H57       1.0  0.23523  0.45357  0.07621  1.0000
  S   S17       1.0  0.45074  0.26769  0.05404  1.0000
  C   C40       1.0  0.46421  0.32473  0.26776  1.0000
  H   H58       1.0  0.31114  0.35888  0.07801  1.0000
  S   S18       1.0  0.35310  0.50205  0.12480  1.0000
  C   C41       1.0  0.45302  0.37043  0.20720  1.0000
  C   C42       1.0  0.47706  0.32987  0.23561  1.0000
  H   H59       1.0  0.47423  0.28212  0.33993  1.0000
  S   S19       1.0  0.46141  0.32769  0.33838  1.0000
  H   H60       1.0  0.46557  0.32253  0.21186  1.0000
  H   H61       1.0  0.45371  0.41147  0.17564  1.0000
  Fe  Fe11      1.0  0.32968  0.46187  0.47493  1.0000
  H   H62       1.0  0.04757  0.50582  0.47491  1.0000
  C   C43       1.0  0.46619  0.27217  0.36515  1.0000
  Fe  Fe12      1.0  0.36526  0.44310  0.44066  1.0000
  S   S20       1.0  0.38223  0.47733  0.40375  1.0000
  S   S21       1.0  0.37673  0.41233  0.42619  1.0000
  H   H63       1.0  0.08185  0.48013  0.03999  1.0000
  Fe  Fe13      1.0  0.34069  0.46901  0.39678  1.0000
  S   S22       1.0  0.32046  0.46671  0.34509  1.0000
  S   S23       1.0  0.37060  0.46852  0.48763  1.0000
  S   S24       1.0  0.32303  0.43338  0.43130  1.0000
  Fe  Fe14      1.0  0.36789  0.47697  0.14844  1.0000
  S   S25       1.0  0.34064  0.44144  0.11579  1.0000
  S   S26       1.0  0.37995  0.47592  0.20443  1.0000
  H   H64       1.0  0.27926  0.34095  0.02838  1.0000
  S   S27       1.0  0.35995  0.48099  0.04801  1.0000
  Fe  Fe15      1.0  0.32851  0.46787  0.08848  1.0000
  S   S28       1.0  0.28482  0.45443  0.07805  1.0000
  Fe  Fe16      1.0  0.37407  0.45723  0.07791  1.0000
  S   S29       1.0  0.38619  0.43157  0.04829  1.0000
  H   H65       1.0  0.33800  0.37604  0.04823  1.0000
  S   S30       1.0  0.40214  0.49124  0.11181  1.0000
  S   S31       1.0  0.44370  0.36576  0.49623  1.0000
  S   S32       1.0  0.42740  0.36265  0.12450  1.0000
  C   C44       1.0  0.49033  0.43390  0.48558  1.0000
  Fe  Fe17      1.0  0.46550  0.34970  0.46518  1.0000
  H   H66       1.0  0.39062  0.43349  0.35926  1.0000
  H   H67       1.0  0.31781  0.39705  0.34100  1.0000
  H   H68       1.0  0.03612  0.41701  0.02152  1.0000
  C   C45       1.0  0.39921  0.41400  0.07019  1.0000
  C   C46       1.0  0.39552  0.40899  0.10576  1.0000
  C   C47       1.0  0.40447  0.39340  0.12195  1.0000
  C   C48       1.0  0.41771  0.38315  0.10300  1.0000
  C   C49       1.0  0.42191  0.38863  0.06758  1.0000
  C   C50       1.0  0.41240  0.40372  0.05120  1.0000
  H   H69       1.0  0.38539  0.41675  0.12069  1.0000
  H   H70       1.0  0.40099  0.38917  0.14930  1.0000
  H   H71       1.0  0.21096  0.46264  0.03009  1.0000
  C   C51       1.0  0.28505  0.38427  0.06067  1.0000
  H   H72       1.0  0.47774  0.40542  0.15662  1.0000
  C   C52       1.0  0.26891  0.46256  0.04457  1.0000
  Fe  Fe18      1.0  0.50849  0.36597  0.06720  1.0000
  H   H73       1.0  0.39565  0.41452  0.49797  1.0000
  C   C53       1.0  0.39678  0.40123  0.44629  1.0000
  C   C54       1.0  0.40590  0.38763  0.42583  1.0000
  C   C55       1.0  0.42064  0.37711  0.44065  1.0000
  C   C56       1.0  0.42594  0.37952  0.47634  1.0000
  C   C57       1.0  0.26607  0.46882  0.49006  1.0000
  C   C58       1.0  0.40272  0.40432  0.48185  1.0000
  C   C59       1.0  0.35703  0.38568  0.33151  1.0000
  H   H74       1.0  0.36522  0.41098  0.26973  1.0000
  H   H75       1.0  0.42213  0.27548  0.36663  1.0000
  S   S33       1.0  0.49681  0.34410  0.49223  1.0000
  H   H76       1.0  0.39971  0.43227  0.31523  1.0000
  S   S34       1.0  0.34424  0.49662  0.43967  1.0000
  C   C60       1.0  0.33755  0.47228  0.30553  1.0000
  C   C61       1.0  0.32328  0.46491  0.27395  1.0000
  C   C62       1.0  0.33616  0.46712  0.24235  1.0000
  C   C63       1.0  0.36342  0.47658  0.24222  1.0000
  C   C64       1.0  0.37775  0.48459  0.27370  1.0000
  C   C65       1.0  0.36494  0.48270  0.30514  1.0000
  H   H77       1.0  0.30209  0.45699  0.27401  1.0000
  H   H78       1.0  0.32489  0.46078  0.21829  1.0000
  C   C66       1.0  0.41700  0.39328  0.49683  1.0000
  H   H79       1.0  0.40137  0.38503  0.39835  1.0000
  C   C67       1.0  0.16722  0.40424  0.48882  1.0000
  H   H80       1.0  0.43311  0.36767  0.20130  1.0000
  H   H81       1.0  0.34252  0.41126  0.37474  1.0000
  H   H82       1.0  0.27262  0.36599  0.07569  1.0000
  H   H83       1.0  0.43196  0.38077  0.05266  1.0000
  H   H84       1.0  0.34995  0.42954  0.28190  1.0000
  C   C68       1.0  0.38469  0.43315  0.33166  1.0000
  C   C69       1.0  0.49960  0.40134  0.21650  1.0000
  C   C70       1.0  0.35060  0.41132  0.28762  1.0000
  H   H85       1.0  0.42738  0.36660  0.42457  1.0000
  H   H86       1.0  0.50385  0.27463  0.06374  1.0000
  H   H87       1.0  0.33689  0.36836  0.32685  1.0000
  Fe  Fe19      1.0  0.38451  0.50191  0.44994  1.0000
  C   C71       1.0  0.24445  0.47311  0.49144  1.0000
  Fe  Fe20      1.0  0.45738  0.35147  0.10594  1.0000
  Fe  Fe21      1.0  0.50055  0.34580  0.14190  1.0000
  H   H88       1.0  0.37117  0.38336  0.31493  1.0000
  H   H89       1.0  0.11903  0.36165  0.49795  1.0000
  C   C72       1.0  0.09389  0.49918  0.02625  1.0000
  H   H90       1.0  0.33960  0.43204  0.34363  1.0000
  S   S35       1.0  0.49161  0.37500  0.42267  1.0000
  C   C73       1.0  0.23017  0.46505  0.02477  1.0000
  H   H91       1.0  0.38595  0.45238  0.32673  1.0000
  N   N6        1.0  0.35773  0.41073  0.32439  1.0000
  H   H92       1.0  0.33068  0.39431  0.28093  1.0000
  C   C74       1.0  0.46697  0.40948  0.24227  1.0000
  H   H93       1.0  0.42868  0.27035  0.32298  1.0000
  C   C75       1.0  0.50471  0.34452  0.23428  1.0000
  H   H94       1.0  0.36249  0.38484  0.35910  1.0000
  H   H95       1.0  0.45792  0.36125  0.18535  1.0000
  H   H96       1.0  0.29449  0.40098  0.07958  1.0000
  H   H97       1.0  0.45132  0.35905  0.23097  1.0000
  C   C76       1.0  0.33855  0.41278  0.34687  1.0000
  H   H98       1.0  0.37623  0.48909  0.32914  1.0000
  H   H99       1.0  0.04557  0.49115  0.03980  1.0000
  H   H100      1.0  0.50478  0.39286  0.19411  1.0000
  H   H101      1.0  0.48312  0.41844  0.46485  1.0000
  H   H102      1.0  0.47950  0.26540  0.37575  1.0000
  H   H103      1.0  0.12263  0.40537  0.50273  1.0000
  H   H104      1.0  0.33177  0.42400  0.03905  1.0000
  H   H105      1.0  0.50733  0.39935  0.49492  1.0000
  H   H106      1.0  0.46680  0.39889  0.26631  1.0000
  S   S36       1.0  0.51213  0.33265  0.41445  1.0000
  H   H107      1.0  0.49157  0.45185  0.47413  1.0000
  C   C77       1.0  0.29157  0.36003  0.01488  1.0000
  H   H108      1.0  0.48848  0.43464  0.18247  1.0000
  C   C78       1.0  0.32115  0.40701  0.02085  1.0000
  H   H109      1.0  0.48184  0.43078  0.24628  1.0000
  C   C79       1.0  0.42169  0.26045  0.34849  1.0000
  H   H110      1.0  0.47481  0.42649  0.50583  1.0000
  S   S37       1.0  0.51308  0.33412  0.09282  1.0000
  H   H111      1.0  0.32495  0.50696  0.05534  1.0000
  Fe  Fe22      1.0  0.17049  0.47990  0.64486  1.0000
  S   S38       1.0  0.16202  0.44570  0.60988  1.0000
  H   H112      1.0  0.01990  0.41428  0.53215  1.0000
  S   S39       1.0  0.13792  0.47063  0.55338  1.0000
  Fe  Fe23      1.0  0.12273  0.44305  0.59866  1.0000
  S   S40       1.0  0.08495  0.40285  0.60093  1.0000
  Fe  Fe24      1.0  0.17802  0.47565  0.56721  1.0000
  S   S41       1.0  0.20385  0.47602  0.52267  1.0000
  S   S42       1.0  0.13019  0.47476  0.63719  1.0000
  Fe  Fe25      1.0  0.14854  0.47657  0.89381  1.0000
  S   S43       1.0  0.14698  0.44747  0.93296  1.0000
  S   S44       1.0  0.13188  0.46154  0.83958  1.0000
  S   S45       1.0  0.30238  0.45702  0.52012  1.0000
  Fe  Fe26      1.0  0.18606  0.48084  0.95353  1.0000
  Fe  Fe27      1.0  0.12774  0.46361  0.96757  1.0000
  H   H113      1.0  0.04983  0.48664  0.96044  1.0000
  S   S46       1.0  0.12673  0.49035  0.92727  1.0000
  C   C80       1.0  0.05956  0.42053  0.97686  1.0000
  C   C81       1.0  0.05869  0.41312  0.94216  1.0000
  H   H114      1.0  0.23178  0.45248  0.82821  1.0000
  H   H115      1.0  0.07695  0.41983  0.92826  1.0000
  N   N7        1.0  0.19336  0.43898  0.84978  1.0000
  H   H116      1.0  0.07569  0.47868  0.96325  1.0000
  H   H117      1.0  0.21239  0.48069  0.84025  1.0000
  H   H118      1.0  0.18131  0.46686  0.86222  1.0000
  H   H119      1.0  0.51036  0.45336  0.54902  1.0000
  C   C82       1.0  0.05275  0.39706  0.59025  1.0000
  C   C83       1.0  0.04873  0.41117  0.56407  1.0000
  C   C84       1.0  0.03051  0.37629  0.60638  1.0000
  H   H120      1.0  0.19177  0.44626  0.79527  1.0000
  H   H121      1.0  0.47267  0.32145  0.94861  1.0000
  C   C85       1.0  0.17517  0.48350  0.73578  1.0000
  H   H122      1.0  0.15057  0.43198  0.52454  1.0000
  C   C86       1.0  0.17552  0.49126  0.79817  1.0000
  C   C87       1.0  0.14874  0.47180  0.79981  1.0000
  C   C88       1.0  0.13504  0.45899  0.76913  1.0000
  C   C89       1.0  0.14811  0.46496  0.73717  1.0000
  H   H123      1.0  0.27832  0.36300  0.99689  1.0000
  H   H124      1.0  0.11428  0.44394  0.77019  1.0000
  H   H125      1.0  0.13745  0.45456  0.71382  1.0000
  Fe  Fe28      1.0  0.14820  0.50286  0.59274  1.0000
  C   C90       1.0  0.24071  0.46504  0.55309  1.0000
  H   H126      1.0  0.23117  0.46363  0.57754  1.0000
  H   H127      1.0  0.21031  0.47205  0.88517  1.0000
  C   C91       1.0  0.02277  0.40391  0.55332  1.0000
  C   C92       1.0  0.03417  0.39623  0.92570  1.0000
  C   C93       1.0  0.03564  0.41153  0.99459  1.0000
  C   C94       1.0  0.17596  0.42005  0.87614  1.0000
  H   H128      1.0  0.21427  0.41829  0.84039  1.0000
  C   C95       1.0  0.24087  0.47257  0.99163  1.0000
  H   H129      1.0  0.27428  0.48100  0.95977  1.0000
  C   C96       1.0  0.17961  0.43188  0.81563  1.0000
  H   H130      1.0  0.16053  0.43176  0.81665  1.0000
  H   H131      1.0  0.12557  0.40512  0.54914  1.0000
  H   H132      1.0  0.18426  0.42452  0.55301  1.0000
  H   H133      1.0  0.14359  0.35615  0.51829  1.0000
  H   H134      1.0  0.22894  0.44370  0.87327  1.0000
  C   C97       1.0  0.19966  0.46584  0.85974  1.0000
  C   C98       1.0  0.21819  0.43829  0.84778  1.0000
  H   H135      1.0  0.15662  0.41940  0.87724  1.0000
  C   C99       1.0  0.26584  0.47537  0.98533  1.0000
  S   S47       1.0  0.16661  0.49474  0.99190  1.0000
  C   C100      1.0  0.26222  0.46056  0.55167  1.0000
  H   H136      1.0  0.30618  0.35801  0.99882  1.0000
  H   H137      1.0  0.17157  0.39966  0.87032  1.0000
  H   H138      1.0  0.18228  0.39321  0.54917  1.0000
  H   H139      1.0  0.17495  0.41190  0.80687  1.0000
  S   S48       1.0  0.19263  0.49009  0.69656  1.0000
  H   H140      1.0  0.50617  0.28189  0.95586  1.0000
  C   C101      1.0  0.23162  0.47127  0.52290  1.0000
  H   H141      1.0  0.03337  0.36511  0.62647  1.0000
  S   S49       1.0  0.22367  0.47762  0.95673  1.0000
  H   H142      1.0  0.18518  0.42566  0.90259  1.0000
  H   H143      1.0  0.04877  0.46429  0.99286  1.0000
  H   H144      1.0  0.48217  0.28603  0.93140  1.0000
  H   H145      1.0  0.48934  0.27675  0.53644  1.0000
  C   C102      1.0  0.06222  0.48277  0.97880  1.0000
  H   H146      1.0  0.49763  0.40665  0.53530  1.0000
  C   C103      1.0  0.27503  0.46238  0.52018  1.0000
  C   C104      1.0  0.17018  0.40287  0.55122  1.0000
  N   N8        1.0  0.15186  0.39618  0.52123  1.0000
  C   C105      1.0  0.13698  0.41022  0.52457  1.0000
  H   H147      1.0  0.33660  0.40630  0.00502  1.0000
  S   S50       1.0  0.09013  0.44094  0.99876  1.0000
  H   H148      1.0  0.26903  0.45569  0.57516  1.0000
  H   H149      1.0  0.03388  0.38989  0.89929  1.0000
  H   H150      1.0  0.06559  0.42699  0.55114  1.0000
  C   C106      1.0  0.48227  0.32255  0.97408  1.0000
  H   H151      1.0  0.42091  0.39519  0.52449  1.0000
  H   H152      1.0  0.29860  0.47206  0.00591  1.0000
  H   H153      1.0  0.12096  0.36085  0.54440  1.0000
  C   C107      1.0  0.18877  0.49679  0.76630  1.0000
  H   H154      1.0  0.15928  0.39674  0.57612  1.0000
  H   H155      1.0  0.49051  0.34300  0.98444  1.0000
  H   H156      1.0  0.47532  0.27407  0.97501  1.0000
  H   H157      1.0  0.18608  0.50182  0.82145  1.0000
  N   N9        1.0  0.50315  0.31560  0.97091  1.0000
  H   H158      1.0  0.46644  0.30895  0.99209  1.0000
  H   H159      1.0  0.34495  0.50532  0.55921  1.0000
  C   C108      1.0  0.49123  0.28823  0.95759  1.0000
  N   N10       1.0  0.07725  0.50509  0.00320  1.0000
  H   H160      1.0  0.11710  0.49635  0.69892  1.0000
  C   C109      1.0  0.13304  0.36740  0.52040  1.0000
  H   H161      1.0  0.35832  0.50733  0.51714  1.0000
  H   H162      1.0  0.30875  0.41148  0.00330  1.0000
  S   S51       1.0  0.11163  0.62467  0.42787  1.0000
  H   H163      1.0  0.35955  0.55518  0.09845  1.0000
  Fe  Fe29      1.0  0.14921  0.63921  0.45888  1.0000
  S   S52       1.0  0.16916  0.61513  0.46661  1.0000
  Fe  Fe30      1.0  0.14055  0.63629  0.09414  1.0000
  S   S53       1.0  0.13437  0.59535  0.08497  1.0000
  C   C110      1.0  0.24712  0.65769  0.01909  1.0000
  S   S54       1.0  0.11841  0.64178  0.13761  1.0000
  H   H164      1.0  0.09014  0.53839  0.44724  1.0000
  H   H165      1.0  0.10756  0.57201  0.46233  1.0000
  H   H166      1.0  0.10589  0.54639  0.48933  1.0000
  H   H167      1.0  0.23273  0.70641  0.48725  1.0000
  C   C111      1.0  0.04581  0.64594  0.09039  1.0000
  H   H168      1.0  0.16159  0.54071  0.02236  1.0000
  C   C112      1.0  0.02375  0.64821  0.09895  1.0000
  C   C113      1.0  0.05311  0.51978  0.49723  1.0000
  C   C114      1.0  0.14627  0.58703  0.04822  1.0000
  H   H169      1.0  0.26547  0.74952  0.02071  1.0000
  H   H170      1.0  0.17248  0.71420  0.37711  1.0000
  C   C115      1.0  0.20921  0.66347  0.02068  1.0000
  C   C116      1.0  0.02712  0.60622  0.48182  1.0000
  H   H171      1.0  0.04935  0.54072  0.43694  1.0000
  H   H172      1.0  0.29105  0.52026  0.06217  1.0000
  H   H173      1.0  0.46016  0.59559  0.47642  1.0000
  Fe  Fe31      1.0  0.11622  0.67071  0.10176  1.0000
  H   H174      1.0  0.50028  0.53847  0.01217  1.0000
  H   H175      1.0  0.29955  0.53632  0.02098  1.0000
  C   C117      1.0  0.30483  0.53923  0.04914  1.0000
  C   C118      1.0  0.16032  0.59294  0.50159  1.0000
  S   S55       1.0  0.07798  0.67229  0.10136  1.0000
  C   C119      1.0  0.14993  0.56523  0.04984  1.0000
  Fe  Fe32      1.0  0.09822  0.63973  0.47217  1.0000
  H   H176      1.0  0.14600  0.55433  0.07377  1.0000
  H   H177      1.0  0.02554  0.62187  0.16590  1.0000
  C   C120      1.0  0.15874  0.55748  0.02078  1.0000
  H   H178      1.0  0.10442  0.51488  0.04626  1.0000
  H   H179      1.0  0.19913  0.69293  0.50092  1.0000
  H   H180      1.0  0.05848  0.62143  0.06557  1.0000
  C   C121      1.0  0.35057  0.57185  0.03750  1.0000
  C   C122      1.0  0.04166  0.62333  0.07258  1.0000
  H   H181      1.0  0.04281  0.64412  0.45759  1.0000
  Fe  Fe33      1.0  0.13046  0.66598  0.40738  1.0000
  H   H182      1.0  0.19823  0.63569  0.07883  1.0000
  H   H183      1.0  0.20356  0.61764  0.04553  1.0000
  H   H184      1.0  0.22725  0.63275  0.08035  1.0000
  C   C123      1.0  0.17152  0.67680  0.27986  1.0000
  S   S56       1.0  0.13586  0.66290  0.05661  1.0000
  N   N11       1.0  0.17432  0.75142  0.38381  1.0000
  C   C124      1.0  0.09436  0.55118  0.47056  1.0000
  N   N12       1.0  0.22822  0.65986  0.04204  1.0000
  Fe  Fe34      1.0  0.15750  0.67606  0.15498  1.0000
  S   S57       1.0  0.17972  0.66824  0.11415  1.0000
  C   C125      1.0  0.15951  0.67482  0.31211  1.0000
  H   H185      1.0  0.19016  0.67716  0.27895  1.0000
  C   C126      1.0  0.16817  0.57397  0.50160  1.0000
  H   H186      1.0  0.33620  0.56612  0.10416  1.0000
  H   H187      1.0  0.06936  0.52588  0.04294  1.0000
  C   C127      1.0  0.22890  0.75376  0.49229  1.0000
  C   C128      1.0  0.21375  0.63546  0.06258  1.0000
  H   H188      1.0  0.37180  0.57787  0.04184  1.0000
  H   H189      1.0  0.16889  0.67363  0.33579  1.0000
  H   H190      1.0  0.17943  0.57300  0.48012  1.0000
  Fe  Fe35      1.0  0.15329  0.69110  0.47847  1.0000
  C   C129      1.0  0.13547  0.67776  0.25013  1.0000
  H   H191      1.0  0.19380  0.66387  0.03700  1.0000
  C   C130      1.0  0.12372  0.67628  0.28241  1.0000
  H   H192      1.0  0.12617  0.67902  0.22639  1.0000
  S   S58       1.0  0.11503  0.68050  0.45049  1.0000
  H   H193      1.0  0.01375  0.59416  0.13695  1.0000
  N   N13       1.0  0.06972  0.54748  0.48611  1.0000
  S   S59       1.0  0.15461  0.70603  0.12176  1.0000
  H   H194      1.0  0.17575  0.73135  0.33771  1.0000
  C   C131      1.0  0.44956  0.59601  0.03639  1.0000
  Fe  Fe36      1.0  0.17450  0.69602  0.07924  1.0000
  S   S60       1.0  0.21293  0.72064  0.04815  1.0000
  C   C132      1.0  0.13562  0.67475  0.31349  1.0000
  C   C133      1.0  0.21601  0.68929  0.50031  1.0000
  H   H195      1.0  0.20989  0.67147  0.48374  1.0000
  S   S61       1.0  0.05820  0.61043  0.49501  1.0000
  S   S62       1.0  0.16983  0.67943  0.43398  1.0000
  C   C134      1.0  0.37409  0.55773  0.50480  1.0000
  H   H196      1.0  0.06692  0.57452  0.45131  1.0000
  C   C135      1.0  0.18204  0.73420  0.36555  1.0000
  H   H197      1.0  0.10530  0.67637  0.28324  1.0000
  C   C136      1.0  0.05859  0.50904  0.02436  1.0000
  H   H198      1.0  0.34793  0.58821  0.04722  1.0000
  C   C137      1.0  0.33713  0.52584  0.04143  1.0000
  H   H199      1.0  0.25364  0.70163  0.05100  1.0000
  H   H200      1.0  0.37231  0.54630  0.48084  1.0000
  H   H201      1.0  0.22216  0.74163  0.46909  1.0000
  C   C138      1.0  0.14527  0.73970  0.38122  1.0000
  S   S63       1.0  0.12071  0.67452  0.35340  1.0000
  H   H202      1.0  0.14833  0.61773  0.01579  1.0000
  C   C139      1.0  0.15956  0.67824  0.24872  1.0000
  H   H203      1.0  0.22922  0.68514  0.08319  1.0000
  C   C140      1.0  0.24286  0.68282  0.06563  1.0000
  H   H204      1.0  0.25744  0.68093  0.08222  1.0000
  S   S64       1.0  0.17603  0.68182  0.20901  1.0000
  S   S65       1.0  0.41860  0.54383  0.45712  1.0000
  S   S66       1.0  0.40889  0.55732  0.07357  1.0000
  H   H205      1.0  0.30069  0.55451  0.05927  1.0000
  C   C141      1.0  0.33873  0.55010  0.09291  1.0000
  Fe  Fe37      1.0  0.38534  0.51367  0.08566  1.0000
  C   C142      1.0  0.43088  0.56894  0.03837  1.0000
  C   C143      1.0  0.02506  0.62595  0.46435  1.0000
  C   C144      1.0  0.15154  0.60116  0.01736  1.0000
  C   C145      1.0  0.43591  0.55645  0.49682  1.0000
  S   S67       1.0  0.13489  0.65162  0.50456  1.0000
  N   N14       1.0  0.33279  0.54679  0.05524  1.0000
  H   H206      1.0  0.45078  0.60922  0.05689  1.0000
  C   C146      1.0  0.45547  0.58328  0.49912  1.0000
  H   H207      1.0  0.35819  0.53126  0.04439  1.0000
  C   C147      1.0  0.01533  0.59990  0.16480  1.0000
  H   H208      1.0  0.32544  0.53164  0.10720  1.0000
  C   C148      1.0  0.05496  0.55376  0.46023  1.0000
  H   H209      1.0  0.03651  0.55173  0.47131  1.0000
  H   H210      1.0  0.33198  0.52213  0.01333  1.0000
  C   C149      1.0  0.01577  0.60359  0.06268  1.0000
  H   H211      1.0  0.13468  0.72025  0.39430  1.0000
  H   H212      1.0  0.17281  0.73449  0.43381  1.0000
  H   H213      1.0  0.02681  0.66573  0.11248  1.0000
  C   C150      1.0  0.23115  0.75305  0.03026  1.0000
  C   C151      1.0  0.42936  0.55200  0.01172  1.0000
  H   H214      1.0  0.26178  0.65495  0.03434  1.0000
  H   H215      1.0  0.41498  0.53113  0.01297  1.0000
  H   H216      1.0  0.02855  0.59401  0.17787  1.0000
  H   H217      1.0  0.37107  0.57425  0.49709  1.0000
  H   H218      1.0  0.13822  0.73610  0.35368  1.0000
  H   H219      1.0  0.32419  0.51674  0.49438  1.0000
  H   H220      1.0  0.20383  0.74243  0.36661  1.0000
  H   H221      1.0  0.13873  0.75256  0.39354  1.0000
  C   C152      1.0  0.18241  0.75402  0.42078  1.0000
  H   H222      1.0  0.34685  0.57001  0.00897  1.0000
  H   H223      1.0  0.50894  0.58423  0.00996  1.0000
  N   N15       1.0  0.49008  0.60736  0.72922  1.0000
  S   S68       1.0  0.13791  0.53529  0.59226  1.0000
  C   C153      1.0  0.35977  0.51921  0.54043  1.0000
  H   H224      1.0  0.21923  0.68246  0.00637  1.0000
  S   S69       1.0  0.17536  0.56255  0.95314  1.0000
  H   H225      1.0  0.10369  0.51751  0.70562  1.0000
  C   C154      1.0  0.16415  0.57167  0.98995  1.0000
  H   H226      1.0  0.18709  0.55057  0.69236  1.0000
  C   C155      1.0  0.42996  0.54068  0.52627  1.0000
  S   S70       1.0  0.50895  0.66825  0.61523  1.0000
  H   H227      1.0  0.48848  0.59938  0.67443  1.0000
  C   C156      1.0  0.14694  0.55724  0.55708  1.0000
  H   H228      1.0  0.16457  0.60447  0.96442  1.0000
  Fe  Fe38      1.0  0.16650  0.52037  0.94882  1.0000
  C   C157      1.0  0.11968  0.51599  0.69244  1.0000
  H   H229      1.0  0.49229  0.63086  0.68522  1.0000
  H   H230      1.0  0.14859  0.51696  0.74767  1.0000
  H   H231      1.0  0.24233  0.66469  0.51760  1.0000
  H   H232      1.0  0.14558  0.56477  0.66637  1.0000
  H   H233      1.0  0.16843  0.58008  0.70211  1.0000
  H   H234      1.0  0.18314  0.66412  0.55254  1.0000
  N   N16       1.0  0.14624  0.53767  0.70308  1.0000
  C   C158      1.0  0.16671  0.53524  0.68412  1.0000
  H   H235      1.0  0.12836  0.57754  0.57890  1.0000
  H   H236      1.0  0.45459  0.57010  0.73740  1.0000
  C   C159      1.0  0.13939  0.57641  0.55726  1.0000
  C   C160      1.0  0.16064  0.59358  0.98835  1.0000
  H   H237      1.0  0.31268  0.51696  0.53701  1.0000
  H   H238      1.0  0.39491  0.56647  0.51435  1.0000
  H   H239      1.0  0.49376  0.55620  0.95690  1.0000
  C   C161      1.0  0.09431  0.52934  0.98347  1.0000
  H   H240      1.0  0.26408  0.69976  0.52243  1.0000
  H   H241      1.0  0.19560  0.64407  0.53566  1.0000
  H   H242      1.0  0.13342  0.56590  0.70863  1.0000
  C   C162      1.0  0.21062  0.75108  0.51738  1.0000
  H   H243      1.0  0.21295  0.71234  0.55929  1.0000
  C   C163      1.0  0.15008  0.53609  0.74080  1.0000
  S   S71       1.0  0.18923  0.51024  0.60291  1.0000
  H   H244      1.0  0.48189  0.57672  0.76582  1.0000
  C   C164      1.0  0.44606  0.56225  0.98290  1.0000
  C   C165      1.0  0.16136  0.55604  0.52914  1.0000
  H   H245      1.0  0.13490  0.53770  0.75605  1.0000
  H   H246      1.0  0.25287  0.67921  0.56016  1.0000
  H   H247      1.0  0.48401  0.61506  0.53208  1.0000
  H   H248      1.0  0.48193  0.56773  0.72113  1.0000
  C   C166      1.0  0.14852  0.56328  0.69477  1.0000
  H   H249      1.0  0.34432  0.54462  0.58329  1.0000
  H   H250      1.0  0.23646  0.70766  0.58384  1.0000
  H   H251      1.0  0.20966  0.51141  0.76527  1.0000
  C   C167      1.0  0.46899  0.59435  0.53063  1.0000
  C   C168      1.0  0.47651  0.57921  0.73887  1.0000
  H   H252      1.0  0.24670  0.72767  0.54560  1.0000
  H   H253      1.0  0.13985  0.60862  0.53006  1.0000
  H   H254      1.0  0.46039  0.61339  0.75291  1.0000
  H   H255      1.0  0.37881  0.56574  0.57356  1.0000
  H   H256      1.0  0.25826  0.67574  0.00312  1.0000
  H   H257      1.0  0.05846  0.56402  0.52789  1.0000
  H   H258      1.0  0.41518  0.51993  0.52464  1.0000
  H   H259      1.0  0.37983  0.52688  0.55207  1.0000
  H   H260      1.0  0.48875  0.62164  0.78030  1.0000
  H   H261      1.0  0.16484  0.51576  0.68873  1.0000
  H   H262      1.0  0.16737  0.54139  0.52879  1.0000
  S   S72       1.0  0.17614  0.72779  0.51289  1.0000
  C   C169      1.0  0.46470  0.58935  0.98091  1.0000
  S   S73       1.0  0.48501  0.60161  0.94412  1.0000
  H   H263      1.0  0.35466  0.57328  0.55676  1.0000
  C   C170      1.0  0.48255  0.60980  0.69327  1.0000
  C   C171      1.0  0.46290  0.57866  0.56016  1.0000
  H   H264      1.0  0.46081  0.60133  0.69022  1.0000
  C   C172      1.0  0.44329  0.55182  0.55790  1.0000
  C   C173      1.0  0.14587  0.59406  0.52955  1.0000
  S   S74       1.0  0.47892  0.59208  0.60041  1.0000
  C   C174      1.0  0.48222  0.62186  0.75312  1.0000
  H   H265      1.0  0.49126  0.64292  0.74559  1.0000
  H   H266      1.0  0.16996  0.55207  0.74978  1.0000
  H   H267      1.0  0.43862  0.53954  0.58061  1.0000
  C   C175      1.0  0.35832  0.55685  0.56266  1.0000
  H   H268      1.0  0.44440  0.54915  0.96199  1.0000
  H   H269      1.0  0.16499  0.53704  0.65561  1.0000
  C   C176      1.0  0.23023  0.70935  0.55708  1.0000
  C   C177      1.0  0.24675  0.68220  0.53393  1.0000
  H   H270      1.0  0.20589  0.65883  0.57807  1.0000
  N   N17       1.0  0.22355  0.68577  0.53570  1.0000
  C   C178      1.0  0.20108  0.66217  0.55126  1.0000
  H   H271      1.0  0.08653  0.56028  0.53728  1.0000
  H   H272      1.0  0.47790  0.75438  0.53822  1.0000
  H   H273      1.0  0.11640  0.51614  0.66390  1.0000
  N   N18       1.0  0.35494  0.54084  0.53131  1.0000
  H   H274      1.0  0.19888  0.64734  0.00122  1.0000
  C   C179      1.0  0.32763  0.52955  0.51747  1.0000
  H   H275      1.0  0.08253  0.53398  0.96504  1.0000
  H   H276      1.0  0.10933  0.52744  0.96818  1.0000
  H   H277      1.0  0.23667  0.64051  0.00094  1.0000
  H   H278      1.0  0.48079  0.62709  0.00657  1.0000
  H   H279      1.0  0.06369  0.51437  0.51675  1.0000
  C   C180      1.0  0.07646  0.56521  0.51655  1.0000
  H   H280      1.0  0.10523  0.54670  0.00110  1.0000
  S   S75       1.0  0.18853  0.50899  0.91173  1.0000
  H   H281      1.0  0.32334  0.54521  0.50954  1.0000
  H   H282      1.0  0.04557  0.51336  0.00781  1.0000
  C   C181      1.0  0.46663  0.60616  0.00796  1.0000
  H   H283      1.0  0.08989  0.58621  0.50935  1.0000
  H   H284      1.0  0.03443  0.51642  0.50924  1.0000
  C   C182      1.0  0.22056  0.76960  0.02673  1.0000
  H   H285      1.0  0.43172  0.93703  0.47136  1.0000
  H   H286      1.0  0.45257  0.89034  0.50078  1.0000
  H   H287      1.0  0.49156  0.81801  0.50053  1.0000
  H   H288      1.0  0.20950  0.78711  0.36894  1.0000
  C   C183      1.0  0.18754  0.77774  0.36757  1.0000
  H   H289      1.0  0.44070  0.90060  0.46462  1.0000
  H   H290      1.0  0.42947  0.98973  0.01716  1.0000
  C   C184      1.0  0.43955  0.89822  0.49329  1.0000
  H   H291      1.0  0.18175  0.77637  0.33967  1.0000
  S   S76       1.0  0.46562  0.83863  0.45914  1.0000
  C   C185      1.0  0.47553  0.94269  0.50347  1.0000
  H   H292      1.0  0.27001  0.77477  0.47725  1.0000
  C   C186      1.0  0.45581  0.89577  0.04336  1.0000
  C   C187      1.0  0.25604  0.77261  0.49697  1.0000
  H   H293      1.0  0.40930  0.91966  0.50595  1.0000
  H   H294      1.0  0.43269  0.83495  0.19054  1.0000
  H   H295      1.0  0.41257  0.82334  0.47899  1.0000
  H   H296      1.0  0.45957  0.88061  0.16863  1.0000
  H   H297      1.0  0.48566  0.83890  0.13489  1.0000
  Fe  Fe39      1.0  0.51000  0.85770  0.45156  1.0000
  C   C188      1.0  0.42552  0.83330  0.50101  1.0000
  S   S77       1.0  0.49598  0.85713  0.02690  1.0000
  H   H298      1.0  0.46141  0.83146  0.18915  1.0000
  C   C189      1.0  0.46836  0.83719  0.12031  1.0000
  C   C190      1.0  0.47337  0.86850  0.02344  1.0000
  C   C191      1.0  0.43048  0.93368  0.49983  1.0000
  H   H299      1.0  0.43153  0.80789  0.16692  1.0000
  N   N19       1.0  0.45319  0.84558  0.14195  1.0000
  C   C192      1.0  0.47469  0.88778  0.04606  1.0000
  H   H300      1.0  0.45679  0.91053  0.06114  1.0000
  H   H301      1.0  0.48807  0.87680  0.16709  1.0000
  H   H302      1.0  0.18221  0.79130  0.38068  1.0000
  H   H303      1.0  0.47751  0.88659  0.12893  1.0000
  H   H304      1.0  0.20076  0.76306  0.03579  1.0000
  C   C193      1.0  0.44422  0.82922  0.17351  1.0000
  H   H305      1.0  0.45601  0.81630  0.11155  1.0000
  H   H306      1.0  0.41822  0.84871  0.13726  1.0000
  C   C194      1.0  0.47030  0.87363  0.15207  1.0000
  H   H307      1.0  0.47605  0.84953  0.09672  1.0000
  C   C195      1.0  0.43002  0.84230  0.12192  1.0000
  H   H308      1.0  0.49029  0.89658  0.06551  1.0000
  H   H309      1.0  0.43620  0.85418  0.09773  1.0000
  H   H310      1.0  0.41662  0.82134  0.11399  1.0000
  C   C196      1.0  0.25697  0.76204  0.01812  1.0000
  C   C197      1.0  0.45608  0.96362  0.02571  1.0000
  C   C198      1.0  0.43577  0.88485  0.01773  1.0000
  C   C199      1.0  0.45282  0.84288  0.49841  1.0000
  H   H311      1.0  0.47827  0.94644  0.47509  1.0000
  H   H312      1.0  0.43697  0.95382  0.03987  1.0000
  H   H313      1.0  0.20422  0.76287  0.42386  1.0000
  H   H314      1.0  0.48021  0.78400  0.49115  1.0000
  H   H315      1.0  0.47179  0.97788  0.04381  1.0000
  C   C200      1.0  0.23551  0.79461  0.01106  1.0000
  S   S78       1.0  0.41250  0.89544  0.01562  1.0000
  H   H316      1.0  0.17670  0.76668  0.43549  1.0000
  H   H317      1.0  0.41882  0.88291  0.49959  1.0000
  H   H318      1.0  0.49749  0.84618  0.26356  1.0000
  H   H319      1.0  0.46076  0.94792  0.01932  1.0000
  C   C201      1.0  0.49371  0.80096  0.50823  1.0000
  C   C202      1.0  0.47948  0.98825  0.97514  1.0000
  H   H320      1.0  0.37635  0.95921  0.74077  1.0000
  H   H321      1.0  0.35092  0.95715  0.71202  1.0000
  H   H322      1.0  0.25377  0.79851  0.57495  1.0000
  H   H323      1.0  0.27568  0.78786  0.92728  1.0000
  C   C203      1.0  0.24702  0.78606  0.55198  1.0000
  H   H324      1.0  0.43054  0.96602  0.94707  1.0000
  H   H325      1.0  0.50248  0.81412  0.59478  1.0000
  H   H326      1.0  0.24404  0.80334  0.91604  1.0000
  H   H327      1.0  0.23694  0.76160  0.88926  1.0000
  H   H328      1.0  0.43603  0.95276  0.51292  1.0000
  Fe  Fe40      1.0  0.32700  0.84165  0.57301  1.0000
  S   S79       1.0  0.34105  0.82866  0.61977  1.0000
  S   S80       1.0  0.29973  0.81255  0.53072  1.0000
  Fe  Fe41      1.0  0.37017  0.90100  0.58482  1.0000
  S   S81       1.0  0.38618  0.89104  0.63159  1.0000
  S   S82       1.0  0.39799  0.94306  0.56619  1.0000
  Fe  Fe42      1.0  0.38213  0.85692  0.60044  1.0000
  S   S83       1.0  0.41899  0.85358  0.60002  1.0000
  Fe  Fe43      1.0  0.34398  0.86432  0.64669  1.0000
  S   S84       1.0  0.33165  0.87033  0.70058  1.0000
  S   S85       1.0  0.36833  0.86803  0.55280  1.0000
  S   S86       1.0  0.32754  0.87600  0.60086  1.0000
  Fe  Fe44      1.0  0.35694  0.86309  0.90023  1.0000
  S   S87       1.0  0.32843  0.87746  0.90669  1.0000
  S   S88       1.0  0.35610  0.84137  0.85076  1.0000
  Fe  Fe45      1.0  0.38144  0.88328  0.97278  1.0000
  S   S89       1.0  0.35359  0.89830  0.98364  1.0000
  H   H329      1.0  0.41105  0.99081  0.70031  1.0000
  Fe  Fe46      1.0  0.32190  0.85956  0.96012  1.0000
  C   C204      1.0  0.49100  0.77209  0.55444  1.0000
  Fe  Fe47      1.0  0.36301  0.91429  0.92959  1.0000
  S   S90       1.0  0.37662  0.95533  0.90850  1.0000
  S   S91       1.0  0.34923  0.84357  0.95285  1.0000
  S   S92       1.0  0.39203  0.90085  0.91960  1.0000
  C   C205      1.0  0.39435  0.98519  0.93237  1.0000
  C   C206      1.0  0.38737  0.98772  0.96615  1.0000
  H   H330      1.0  0.29552  0.80613  0.83588  1.0000
  C   C207      1.0  0.45334  0.85759  0.99782  1.0000
  H   H331      1.0  0.45510  0.78351  0.57971  1.0000
  S   S93       1.0  0.27887  0.83507  0.97842  1.0000
  N   N20       1.0  0.48779  0.79475  0.54532  1.0000
  H   H332      1.0  0.26995  0.83431  0.90085  1.0000
  C   C208      1.0  0.44873  0.99783  0.00361  1.0000
  H   H333      1.0  0.37438  0.93718  0.63466  1.0000
  C   C209      1.0  0.43465  0.86582  0.99483  1.0000
  C   C210      1.0  0.40098  0.97380  0.57766  1.0000
  C   C211      1.0  0.37917  0.97600  0.58718  1.0000
  H   H334      1.0  0.49029  0.86329  0.52551  1.0000
  H   H335      1.0  0.35963  0.95859  0.58738  1.0000
  N   N21       1.0  0.26901  0.80044  0.87773  1.0000
  C   C212      1.0  0.43142  0.84934  0.56055  1.0000
  H   H336      1.0  0.48634  0.76658  0.58215  1.0000
  H   H337      1.0  0.39382  0.82940  0.53356  1.0000
  H   H338      1.0  0.35074  0.92765  0.72472  1.0000
  H   H339      1.0  0.29995  0.83586  0.85471  1.0000
  C   C213      1.0  0.34038  0.86322  0.74176  1.0000
  C   C214      1.0  0.35001  0.84589  0.74569  1.0000
  C   C215      1.0  0.35506  0.83963  0.77918  1.0000
  C   C216      1.0  0.35116  0.85107  0.80899  1.0000
  C   C217      1.0  0.34221  0.86894  0.80494  1.0000
  C   C218      1.0  0.33654  0.87469  0.77157  1.0000
  H   H340      1.0  0.35296  0.83682  0.72302  1.0000
  H   H341      1.0  0.36198  0.82578  0.78199  1.0000
  H   H342      1.0  0.33925  0.87804  0.82754  1.0000
  H   H343      1.0  0.32898  0.88801  0.76889  1.0000
  C   C219      1.0  0.39687  0.93956  0.69585  1.0000
  H   H344      1.0  0.29845  0.79080  0.89383  1.0000
  H   H345      1.0  0.47151  0.86821  0.58029  1.0000
  H   H346      1.0  0.42004  0.00574  0.88973  1.0000
  C   C220      1.0  0.46024  0.78805  0.55189  1.0000
  H   H347      1.0  0.38560  0.98874  0.67167  1.0000
  C   C221      1.0  0.28684  0.79948  0.90431  1.0000
  H   H348      1.0  0.38445  0.91816  0.70202  1.0000
  H   H349      1.0  0.34880  0.91590  0.66349  1.0000
  C   C222      1.0  0.42598  0.99686  0.57568  1.0000
  H   H350      1.0  0.45030  0.93736  0.56397  1.0000
  H   H351      1.0  0.45711  0.80466  0.54497  1.0000
  N   N22       1.0  0.45421  0.97670  0.99401  1.0000
  H   H352      1.0  0.40996  0.94948  0.71875  1.0000
  H   H353      1.0  0.51170  0.77670  0.55038  1.0000
  H   H354      1.0  0.40973  0.94129  0.67374  1.0000
  H   H355      1.0  0.44581  0.77063  0.53616  1.0000
  H   H356      1.0  0.41927  0.85730  0.97502  1.0000
  H   H357      1.0  0.35062  0.94574  0.64949  1.0000
  H   H358      1.0  0.41307  0.94801  0.98476  1.0000
  H   H359      1.0  0.24159  0.81459  0.87343  1.0000
  C   C223      1.0  0.44498  0.91891  0.54937  1.0000
  N   N23       1.0  0.38026  0.95118  0.68736  1.0000
  C   C224      1.0  0.36387  0.94878  0.71759  1.0000
  H   H360      1.0  0.40990  0.98167  0.65551  1.0000
  C   C225      1.0  0.39746  0.97933  0.67845  1.0000
  C   C226      1.0  0.36277  0.93693  0.65744  1.0000
  H   H361      1.0  0.23536  0.77325  0.84672  1.0000
  C   C227      1.0  0.21984  0.76738  0.54714  1.0000
  H   H362      1.0  0.37165  0.97068  0.97898  1.0000
  C   C228      1.0  0.24911  0.77327  0.86689  1.0000
  H   H363      1.0  0.50904  0.81633  0.99990  1.0000
  C   C229      1.0  0.25548  0.81369  0.89250  1.0000
  H   H364      1.0  0.45222  0.84266  0.98021  1.0000
  C   C230      1.0  0.41487  0.83678  0.53184  1.0000
  C   C231      1.0  0.26530  0.78892  0.52679  1.0000
  C   C232      1.0  0.45861  0.85853  0.55813  1.0000
  H   H365      1.0  0.45765  0.91113  0.55916  1.0000
  C   C233      1.0  0.46932  0.85568  0.52707  1.0000
  H   H366      1.0  0.29194  0.79383  0.99417  1.0000
  H   H367      1.0  0.30128  0.81959  0.91399  1.0000
  H   H368      1.0  0.48224  0.96193  0.51681  1.0000
  H   H369      1.0  0.42429  0.90419  0.55639  1.0000
  C   C234      1.0  0.26138  0.80367  0.99917  1.0000
  H   H370      1.0  0.50452  0.83552  0.56019  1.0000
  H   H371      1.0  0.27199  0.81653  0.82664  1.0000
  C   C235      1.0  0.28467  0.81532  0.84738  1.0000
  C   C236      1.0  0.50629  0.81800  0.56659  1.0000
  H   H372      1.0  0.47868  0.99825  0.95103  1.0000
  H   H373      1.0  0.43588  0.94062  0.96427  1.0000
  C   C237      1.0  0.27207  0.78721  0.00297  1.0000
  C   C238      1.0  0.43252  0.95705  0.97149  1.0000
  H   H374      1.0  0.48415  0.97277  0.96743  1.0000
  H   H375      1.0  0.36544  0.00254  0.60195  1.0000
  H   H376      1.0  0.20587  0.76559  0.56665  1.0000
  N   N24       1.0  0.44763  0.92338  0.51150  1.0000
  H   H377      1.0  0.25876  0.76273  0.85590  1.0000
  H   H378      1.0  0.44293  0.99549  0.56787  1.0000
  H   H379      1.0  0.51141  0.80880  0.93611  1.0000
  C   C239      1.0  0.38247  0.00098  0.59506  1.0000
  H   H380      1.0  0.49631  0.00317  0.99138  1.0000
  H   H381      1.0  0.22696  0.80710  0.00832  1.0000
  H   H382      1.0  0.48896  0.93541  0.51189  1.0000
  Fe  Fe48      1.0  0.65420  0.14453  0.09240  1.0000
  S   S94       1.0  0.67454  0.14101  0.04564  1.0000
  S   S95       1.0  0.61407  0.14144  0.08969  1.0000
  Fe  Fe49      1.0  0.69712  0.14879  0.14203  1.0000
  S   S96       1.0  0.72095  0.14617  0.09803  1.0000
  S   S97       1.0  0.71357  0.14934  0.19614  1.0000
  Fe  Fe50      1.0  0.71206  0.17435  0.06968  1.0000
  C   C240      1.0  0.59507  0.12955  0.48740  1.0000
  Fe  Fe51      1.0  0.68166  0.11334  0.07783  1.0000
  S   S98       1.0  0.67857  0.07589  0.05549  1.0000
  S   S99       1.0  0.69095  0.17937  0.11520  1.0000
  S   S100      1.0  0.65862  0.11441  0.12315  1.0000
  Fe  Fe52      1.0  0.71992  0.16345  0.44235  1.0000
  S   S101      1.0  0.68524  0.16908  0.43178  1.0000
  C   C241      1.0  0.54738  0.18283  0.05246  1.0000
  Fe  Fe53      1.0  0.68295  0.10236  0.44180  1.0000
  S   S102      1.0  0.64646  0.10468  0.43125  1.0000
  S   S103      1.0  0.68088  0.06276  0.44855  1.0000
  Fe  Fe54      1.0  0.67202  0.13604  0.39275  1.0000
  S   S104      1.0  0.65639  0.13934  0.33984  1.0000
  Fe  Fe55      1.0  0.66342  0.13741  0.47100  1.0000
  H   H383      1.0  0.76005  0.24256  0.39048  1.0000
  S   S105      1.0  0.70764  0.13182  0.40086  1.0000
  S   S106      1.0  0.69889  0.13353  0.48408  1.0000
  H   H384      1.0  0.62558  0.04683  0.43483  1.0000
  H   H385      1.0  0.68323  0.07631  0.12995  1.0000
  N   N25       1.0  0.73343  0.21928  0.34895  1.0000
  C   C242      1.0  0.80125  0.24669  0.47194  1.0000
  H   H386      1.0  0.54863  0.18506  0.08119  1.0000
  C   C243      1.0  0.59971  0.13973  0.04855  1.0000
  C   C244      1.0  0.69599  0.08243  0.15364  1.0000
  H   H387      1.0  0.52896  0.18237  0.04362  1.0000
  H   H388      1.0  0.55555  0.23058  0.03593  1.0000
  C   C245      1.0  0.69669  0.14553  0.23553  1.0000
  C   C246      1.0  0.67282  0.14550  0.23674  1.0000
  C   C247      1.0  0.66049  0.14317  0.26883  1.0000
  C   C248      1.0  0.67170  0.14051  0.29990  1.0000
  C   C249      1.0  0.69524  0.13990  0.29854  1.0000
  C   C250      1.0  0.70777  0.14263  0.26656  1.0000
  H   H389      1.0  0.66405  0.14770  0.21306  1.0000
  H   H390      1.0  0.64225  0.14362  0.26960  1.0000
  H   H391      1.0  0.70390  0.13754  0.32216  1.0000
  H   H392      1.0  0.72620  0.14255  0.26586  1.0000
  C   C251      1.0  0.63471  0.04104  0.09361  1.0000
  C   C252      1.0  0.65411  0.04409  0.07015  1.0000
  H   H393      1.0  0.72673  0.22103  0.40341  1.0000
  H   H394      1.0  0.63358  0.05804  0.10177  1.0000
  C   C253      1.0  0.56920  0.12536  0.48825  1.0000
  H   H395      1.0  0.66559  0.09382  0.19319  1.0000
  C   C254      1.0  0.65087  0.03195  0.45043  1.0000
  C   C255      1.0  0.78155  0.22001  0.47629  1.0000
  H   H396      1.0  0.69195  0.19434  0.35949  1.0000
  C   C256      1.0  0.75024  0.23720  0.32138  1.0000
  N   N26       1.0  0.68084  0.06782  0.18440  1.0000
  C   C257      1.0  0.56069  0.13029  0.01388  1.0000
  C   C258      1.0  0.69840  0.07727  0.21539  1.0000
  C   C259      1.0  0.65848  0.07240  0.18946  1.0000
  C   C260      1.0  0.51804  0.17590  0.49499  1.0000
  H   H397      1.0  0.60336  0.12808  0.46310  1.0000
  C   C261      1.0  0.77089  0.23077  0.02415  1.0000
  C   C262      1.0  0.81773  0.24488  0.02996  1.0000
  H   H398      1.0  0.74642  0.25376  0.31755  1.0000
  H   H399      1.0  0.78609  0.21201  0.05739  1.0000
  H   H400      1.0  0.68686  0.03505  0.17547  1.0000
  N   N27       1.0  0.57106  0.20438  0.03570  1.0000
  C   C263      1.0  0.73900  0.23410  0.38203  1.0000
  S   S107      1.0  0.73667  0.20882  0.03277  1.0000
  H   H401      1.0  0.70019  0.19626  0.31463  1.0000
  H   H402      1.0  0.70448  0.10407  0.15695  1.0000
  H   H403      1.0  0.73483  0.25052  0.38001  1.0000
  H   H404      1.0  0.76011  0.20538  0.36201  1.0000
  H   H405      1.0  0.63628  0.15667  0.02058  1.0000
  H   H406      1.0  0.64676  0.06196  0.21268  1.0000
  H   H407      1.0  0.61328  0.22039  0.03632  1.0000
  C   C264      1.0  0.67053  0.03928  0.17905  1.0000
  H   H408      1.0  0.80238  0.25623  0.44756  1.0000
  C   C265      1.0  0.61519  0.14898  0.01879  1.0000
  H   H409      1.0  0.56030  0.12300  0.06882  1.0000
  C   C266      1.0  0.59495  0.20410  0.04789  1.0000
  H   H410      1.0  0.64468  0.06533  0.16668  1.0000
  C   C267      1.0  0.57241  0.13030  0.04593  1.0000
  H   H411      1.0  0.51960  0.16209  0.47661  1.0000
  C   C268      1.0  0.65464  0.02152  0.05903  1.0000
  H   H412      1.0  0.52414  0.24979  0.03993  1.0000
  H   H413      1.0  0.59092  0.24666  0.03224  1.0000
  H   H414      1.0  0.86850  0.25137  0.50777  1.0000
  H   H415      1.0  0.68762  0.06685  0.23918  1.0000
  H   H416      1.0  0.73539  0.15998  0.02310  1.0000
  C   C269      1.0  0.62636  0.02971  0.44319  1.0000
  H   H417      1.0  0.55712  0.20164  0.44953  1.0000
  C   C270      1.0  0.55472  0.21417  0.46922  1.0000
  H   H418      1.0  0.71559  0.07428  0.21245  1.0000
  H   H419      1.0  0.65848  0.02750  0.20136  1.0000
  H   H420      1.0  0.71268  0.07902  0.14845  1.0000
  H   H421      1.0  0.70649  0.09879  0.21993  1.0000
  H   H422      1.0  0.66950  0.02360  0.04081  1.0000
  H   H423      1.0  0.55764  0.12065  0.46446  1.0000
  C   C271      1.0  0.57343  0.22996  0.04473  1.0000
  C   C272      1.0  0.70521  0.20796  0.33921  1.0000
  H   H424      1.0  0.54495  0.16322  0.04624  1.0000
  H   H425      1.0  0.69999  0.22355  0.33556  1.0000
  H   H426      1.0  0.73612  0.18662  0.32851  1.0000
  S   S108      1.0  0.75994  0.20223  0.44075  1.0000
  H   H427      1.0  0.59403  0.18533  0.04053  1.0000
  H   H428      1.0  0.72634  0.18348  0.37299  1.0000
  C   C273      1.0  0.79104  0.22771  0.03907  1.0000
  C   C274      1.0  0.73929  0.19776  0.35317  1.0000
  H   H429      1.0  0.83312  0.24218  0.04148  1.0000
  H   H430      1.0  0.71443  0.12510  0.01558  1.0000
  H   H431      1.0  0.59721  0.20601  0.07664  1.0000
  H   H432      1.0  0.74636  0.22652  0.29609  1.0000
  H   H433      1.0  0.65762  0.03170  0.15544  1.0000
  H   H434      1.0  0.56530  0.17872  0.49759  1.0000
  H   H435      1.0  0.67044  0.01074  0.46564  1.0000
  H   H436      1.0  0.57549  0.23350  0.07327  1.0000
  H   H437      1.0  0.54124  0.22045  0.45783  1.0000
  H   H438      1.0  0.60206  0.01391  0.12528  1.0000
  H   H439      1.0  0.53963  0.12272  0.01211  1.0000
  H   H440      1.0  0.64751  0.06835  0.50160  1.0000
  H   H441      1.0  0.77166  0.24587  0.32785  1.0000
  C   C275      1.0  0.61669  0.01591  0.10669  1.0000
  H   H442      1.0  0.60253  0.05585  0.48003  1.0000
  H   H443      1.0  0.57444  0.23222  0.47347  1.0000
  H   H444      1.0  0.74967  0.14050  0.01089  1.0000
  C   C276      1.0  0.65156  0.00923  0.46004  1.0000
  H   H445      1.0  0.60757  0.08600  0.49874  1.0000
  C   C277      1.0  0.60023  0.06482  0.50420  1.0000
  H   H446      1.0  0.88807  0.23748  0.49414  1.0000
  N   N28       1.0  0.54412  0.19969  0.50192  1.0000
  C   C278      1.0  0.88734  0.25604  0.49486  1.0000
  C   C279      1.0  0.78048  0.20795  0.50794  1.0000
  S   S109      1.0  0.56267  0.14253  0.94430  1.0000
  H   H447      1.0  0.57868  0.05532  0.50948  1.0000
  H   H448      1.0  0.75654  0.19018  0.97403  1.0000
  C   C280      1.0  0.61049  0.07334  0.56532  1.0000
  H   H449      1.0  0.52340  0.24667  0.69259  1.0000
  C   C281      1.0  0.57325  0.13335  0.55022  1.0000
  C   C282      1.0  0.59914  0.13759  0.54936  1.0000
  H   H450      1.0  0.56498  0.13488  0.57450  1.0000
  H   H451      1.0  0.52782  0.22381  0.51698  1.0000
  S   S110      1.0  0.64256  0.14081  0.51839  1.0000
  C   C283      1.0  0.81883  0.24887  0.53027  1.0000
  H   H452      1.0  0.58624  0.21592  0.98406  1.0000
  H   H453      1.0  0.72396  0.12882  0.92011  1.0000
  C   C284      1.0  0.61015  0.13576  0.51798  1.0000
  H   H454      1.0  0.52769  0.19724  0.69142  1.0000
  C   C285      1.0  0.55820  0.12722  0.51962  1.0000
  C   C286      1.0  0.56841  0.20058  0.99764  1.0000
  S   S111      1.0  0.52598  0.12266  0.51903  1.0000
  C   C287      1.0  0.56259  0.19174  0.51612  1.0000
  H   H455      1.0  0.74375  0.12308  0.95092  1.0000
  H   H456      1.0  0.61073  0.14239  0.57313  1.0000
  C   C288      1.0  0.57626  0.14005  0.98428  1.0000
  H   H457      1.0  0.75263  0.17722  0.93087  1.0000
  H   H458      1.0  0.61740  0.09469  0.56189  1.0000
  C   C289      1.0  0.72636  0.12584  0.94812  1.0000
  H   H459      1.0  0.61566  0.15674  0.96401  1.0000
  H   H460      1.0  0.79852  0.21239  0.55853  1.0000
  H   H461      1.0  0.55500  0.18033  0.54049  1.0000
  H   H462      1.0  0.56563  0.18111  0.99004  1.0000
  C   C290      1.0  0.70633  0.15138  0.96470  1.0000
  H   H463      1.0  0.65148  0.09732  0.52291  1.0000
  H   H464      1.0  0.56045  0.23469  0.53396  1.0000
  H   H465      1.0  0.51637  0.15111  0.82354  1.0000
  H   H466      1.0  0.53818  0.15499  0.76709  1.0000
  C   C291      1.0  0.60348  0.14913  0.98679  1.0000
  H   H467      1.0  0.55097  0.20125  0.98729  1.0000
  N   N29       1.0  0.72973  0.14833  0.96943  1.0000
  C   C292      1.0  0.51686  0.14600  0.76794  1.0000
  H   H468      1.0  0.77195  0.17156  0.96260  1.0000
  H   H469      1.0  0.65512  0.07337  0.54715  1.0000
  N   N30       1.0  0.61486  0.06184  0.53366  1.0000
  S   S112      1.0  0.51732  0.15959  0.60041  1.0000
  H   H470      1.0  0.53220  0.20626  0.55183  1.0000
  H   H471      1.0  0.58364  0.02219  0.54403  1.0000
  H   H472      1.0  0.68778  0.13324  0.97250  1.0000
  H   H473      1.0  0.62149  0.07178  0.58803  1.0000
  H   H474      1.0  0.70380  0.15549  0.93721  1.0000
  C   C293      1.0  0.60530  0.03351  0.53909  1.0000
  H   H475      1.0  0.70850  0.10704  0.95606  1.0000
  H   H476      1.0  0.58912  0.06335  0.57193  1.0000
  S   S113      1.0  0.51640  0.16981  0.91834  1.0000
  H   H477      1.0  0.70812  0.16807  0.98067  1.0000
  H   H478      1.0  0.58247  0.20909  0.52198  1.0000
  C   C294      1.0  0.75378  0.17283  0.95868  1.0000
  C   C295      1.0  0.54109  0.21689  0.52727  1.0000
  C   C296      1.0  0.79921  0.22219  0.53451  1.0000
  H   H479      1.0  0.60899  0.02446  0.51598  1.0000
  H   H480      1.0  0.52779  0.23095  0.72996  1.0000
  S   S114      1.0  0.51846  0.14213  0.69701  1.0000
  C   C297      1.0  0.77786  0.25131  0.00025  1.0000
  C   C298      1.0  0.73241  0.14323  0.00635  1.0000
  H   H481      1.0  0.61559  0.03054  0.56153  1.0000
  C   C299      1.0  0.64347  0.07578  0.52601  1.0000
  H   H482      1.0  0.52203  0.21192  0.65360  1.0000
  Fe  Fe56      1.0  0.52194  0.13815  0.94281  1.0000
  H   H483      1.0  0.76246  0.25382  0.98839  1.0000
  H   H484      1.0  0.91216  0.25099  0.55074  1.0000
  H   H485      1.0  0.76563  0.18744  0.51168  1.0000
  H   H486      1.0  0.88600  0.26162  0.46769  1.0000
  H   H487      1.0  0.53032  0.43342  0.45166  1.0000
  S   S115      1.0  0.53280  0.38834  0.02055  1.0000
  H   H488      1.0  0.51552  0.42236  0.21932  1.0000
  S   S116      1.0  0.63941  0.49933  0.03281  1.0000
  H   H489      1.0  0.91031  0.45980  0.35649  1.0000
  H   H490      1.0  0.84557  0.36799  0.08895  1.0000
  Fe  Fe57      1.0  0.52230  0.36810  0.44807  1.0000
  C   C300      1.0  0.56219  0.41935  0.02459  1.0000
  H   H491      1.0  0.83774  0.30215  0.06821  1.0000
  C   C301      1.0  0.86016  0.42936  0.02937  1.0000
  C   C302      1.0  0.57304  0.43052  0.05704  1.0000
  C   C303      1.0  0.68422  0.49173  0.48690  1.0000
  H   H492      1.0  0.56325  0.42022  0.08043  1.0000
  H   H493      1.0  0.83951  0.42097  0.02220  1.0000
  C   C304      1.0  0.66715  0.44596  0.50146  1.0000
  H   H494      1.0  0.60285  0.45733  0.47235  1.0000
  H   H495      1.0  0.86808  0.36457  0.01934  1.0000
  H   H496      1.0  0.71526  0.47137  0.47239  1.0000
  H   H497      1.0  0.60501  0.46366  0.08435  1.0000
  C   C305      1.0  0.59672  0.45510  0.05918  1.0000
  H   H498      1.0  0.84957  0.32914  0.01593  1.0000
  H   H499      1.0  0.54077  0.36489  0.26473  1.0000
  H   H500      1.0  0.83465  0.28156  0.49504  1.0000
  S   S117      1.0  0.56261  0.40521  0.45299  1.0000
  C   C306      1.0  0.71441  0.47622  0.50010  1.0000
  H   H501      1.0  0.88838  0.44252  0.39175  1.0000
  H   H502      1.0  0.66639  0.44050  0.47362  1.0000
  H   H503      1.0  0.89649  0.48064  0.31101  1.0000
  N   N31       1.0  0.51610  0.43938  0.50015  1.0000
  H   H504      1.0  0.53825  0.46684  0.45985  1.0000
  C   C307      1.0  0.60958  0.46870  0.02897  1.0000
  H   H505      1.0  0.51799  0.35573  0.32151  1.0000
  H   H506      1.0  0.73544  0.49065  0.07810  1.0000
  Fe  Fe58      1.0  0.87882  0.49669  0.46012  1.0000
  C   C308      1.0  0.81960  0.26114  0.49886  1.0000
  C   C309      1.0  0.53594  0.44875  0.47231  1.0000
  H   H507      1.0  0.69464  0.49853  0.11739  1.0000
  C   C310      1.0  0.59773  0.44533  0.49541  1.0000
  H   H508      1.0  0.90891  0.30869  0.48668  1.0000
  S   S118      1.0  0.83936  0.49185  0.44566  1.0000
  C   C311      1.0  0.84048  0.31960  0.08339  1.0000
  H   H509      1.0  0.82092  0.31845  0.08397  1.0000
  H   H510      1.0  0.86015  0.47400  0.39192  1.0000
  H   H511      1.0  0.93546  0.28890  0.46871  1.0000
  H   H512      1.0  0.52625  0.33827  0.01514  1.0000
  H   H513      1.0  0.93747  0.26516  0.49600  1.0000
  H   H514      1.0  0.87480  0.43168  0.31380  1.0000
  C   C312      1.0  0.88640  0.34499  0.06694  1.0000
  S   S119      1.0  0.52158  0.35273  0.19423  1.0000
  H   H515      1.0  0.84295  0.42916  0.31616  1.0000
  H   H516      1.0  0.83450  0.45395  0.36159  1.0000
  N   N32       1.0  0.86094  0.34454  0.06778  1.0000
  C   C313      1.0  0.86425  0.36735  0.08832  1.0000
  H   H517      1.0  0.73091  0.49680  0.50476  1.0000
  H   H518      1.0  0.68762  0.46995  0.09184  1.0000
  H   H519      1.0  0.68417  0.49233  0.02211  1.0000
  S   S120      1.0  0.85323  0.46413  0.06950  1.0000
  C   C314      1.0  0.51936  0.35358  0.26550  1.0000
  C   C315      1.0  0.85183  0.45563  0.37616  1.0000
  H   H520      1.0  0.93389  0.45905  0.05568  1.0000
  H   H521      1.0  0.90230  0.36368  0.05542  1.0000
  C   C316      1.0  0.88117  0.47917  0.32916  1.0000
  H   H522      1.0  0.89319  0.34345  0.09340  1.0000
  C   C317      1.0  0.86016  0.43172  0.33195  1.0000
  H   H523      1.0  0.84465  0.43900  0.39478  1.0000
  C   C318      1.0  0.87226  0.45138  0.05184  1.0000
  C   C319      1.0  0.89899  0.46223  0.06081  1.0000
  H   H524      1.0  0.90847  0.47910  0.07814  1.0000
  H   H525      1.0  0.88994  0.49807  0.34408  1.0000
  C   C320      1.0  0.85271  0.34628  0.03205  1.0000
  H   H526      1.0  0.84595  0.31752  0.11043  1.0000
  C   C321      1.0  0.57809  0.41855  0.49347  1.0000
  H   H527      1.0  0.88473  0.32830  0.05104  1.0000
  C   C322      1.0  0.90133  0.42888  0.02554  1.0000
  H   H528      1.0  0.82756  0.50298  0.27845  1.0000
  H   H529      1.0  0.87040  0.36676  0.11553  1.0000
  C   C323      1.0  0.91334  0.45082  0.04804  1.0000
  H   H530      1.0  0.67036  0.48732  0.08298  1.0000
  H   H531      1.0  0.86451  0.47783  0.31330  1.0000
  H   H532      1.0  0.89766  0.42154  0.47657  1.0000
  H   H533      1.0  0.85299  0.41419  0.34900  1.0000
  N   N33       1.0  0.87197  0.45640  0.35262  1.0000
  S   S121      1.0  0.88527  0.46176  0.46171  1.0000
  C   C324      1.0  0.88885  0.42428  0.49955  1.0000
  H   H534      1.0  0.68421  0.48752  0.45874  1.0000
  H   H535      1.0  0.66497  0.49032  0.49273  1.0000
  H   H536      1.0  0.90396  0.47760  0.38927  1.0000
  C   C325      1.0  0.89467  0.45915  0.37328  1.0000
  Fe  Fe59      1.0  0.87415  0.50592  0.09123  1.0000
  C   C326      1.0  0.88107  0.44331  0.49974  1.0000
  C   C327      1.0  0.68999  0.48996  0.09071  1.0000
  H   H537      1.0  0.83391  0.34667  0.03149  1.0000
  H   H538      1.0  0.70188  0.47533  0.03034  1.0000
  H   H539      1.0  0.87972  0.38639  0.07697  1.0000
  C   C328      1.0  0.70357  0.49506  0.03097  1.0000
  H   H540      1.0  0.55570  0.45350  0.48254  1.0000
  S   S122      1.0  0.92000  0.41439  0.01248  1.0000
  C   C329      1.0  0.87474  0.41834  0.01583  1.0000
  N   N34       1.0  0.71078  0.50709  0.06603  1.0000
  C   C330      1.0  0.93521  0.28285  0.49611  1.0000
  N   N35       1.0  0.68852  0.47342  0.50847  1.0000
  H   H541      1.0  0.64739  0.44308  0.50798  1.0000
  H   H542      1.0  0.66916  0.47818  0.55264  1.0000
  C   C331      1.0  0.57513  0.43290  0.99440  1.0000
  C   C332      1.0  0.52491  0.45987  0.52759  1.0000
  C   C333      1.0  0.61060  0.45682  0.52706  1.0000
  C   C334      1.0  0.90875  0.30160  0.51346  1.0000
  C   C335      1.0  0.68831  0.47985  0.54551  1.0000
  H   H543      1.0  0.80949  0.28412  0.97273  1.0000
  S   S123      1.0  0.62264  0.45475  0.59611  1.0000
  H   H544      1.0  0.66040  0.50704  0.72706  1.0000
  H   H545      1.0  0.64427  0.48669  0.78483  1.0000
  C   C336      1.0  0.60479  0.44141  0.55682  1.0000
  C   C337      1.0  0.01104  0.39537  0.97772  1.0000
  H   H546      1.0  0.60845  0.46787  0.97313  1.0000
  C   C338      1.0  0.95383  0.34127  0.82990  1.0000
  S   S124      1.0  0.85873  0.28615  0.99537  1.0000
  C   C339      1.0  0.88539  0.40879  0.52897  1.0000
  H   H547      1.0  0.58055  0.40246  0.57779  1.0000
  H   H548      1.0  0.96409  0.38502  0.86610  1.0000
  H   H549      1.0  0.76128  0.50305  0.85548  1.0000
  H   H550      1.0  0.79972  0.34331  0.66246  1.0000
  H   H551      1.0  0.53281  0.35488  0.95650  1.0000
  H   H552      1.0  0.70234  0.50308  0.81854  1.0000
  C   C340      1.0  0.58518  0.41456  0.55489  1.0000
  H   H553      1.0  0.82607  0.39565  0.70273  1.0000
  H   H554      1.0  0.62539  0.47747  0.52815  1.0000
  H   H555      1.0  0.72227  0.48795  0.81597  1.0000
  H   H556      1.0  0.53990  0.32957  0.94429  1.0000
  H   H557      1.0  0.52732  0.47863  0.51724  1.0000
  C   C341      1.0  0.00052  0.38308  0.56935  1.0000
  H   H558      1.0  0.56681  0.42439  0.96922  1.0000
  H   H559      1.0  0.93865  0.37706  0.83432  1.0000
  C   C342      1.0  0.83380  0.34223  0.70918  1.0000
  H   H560      1.0  0.55661  0.38249  0.52217  1.0000
  H   H561      1.0  0.89156  0.39431  0.52847  1.0000
  C   C343      1.0  0.82469  0.26535  0.00593  1.0000
  H   H562      1.0  0.97076  0.40586  0.82922  1.0000
  C   C344      1.0  0.91101  0.26930  0.54966  1.0000
  H   H563      1.0  0.00968  0.40059  0.81758  1.0000
  H   H564      1.0  0.87574  0.39230  0.71022  1.0000
  H   H565      1.0  0.88862  0.30155  0.77341  1.0000
  S   S125      1.0  0.90257  0.32662  0.91059  1.0000
  C   C345      1.0  0.88601  0.33040  0.80529  1.0000
  Fe  Fe60      1.0  0.88194  0.32298  0.96158  1.0000
  C   C346      1.0  0.57161  0.40320  0.52341  1.0000
  H   H566      1.0  0.92827  0.28499  0.56455  1.0000
  S   S126      1.0  0.90942  0.31526  0.60758  1.0000
  H   H567      1.0  0.88191  0.31903  0.82881  1.0000
  Fe  Fe61      1.0  0.87192  0.30782  0.58032  1.0000
  H   H568      1.0  0.97623  0.39088  0.77114  1.0000
  C   C347      1.0  0.71718  0.49865  0.88271  1.0000
  H   H569      1.0  0.86536  0.40172  0.99810  1.0000
  S   S127      1.0  0.90121  0.32254  0.70488  1.0000
  S   S128      1.0  0.86062  0.32521  0.62424  1.0000
  H   H570      1.0  0.95986  0.32862  0.81586  1.0000
  H   H571      1.0  0.00150  0.37850  0.85338  1.0000
  C   C348      1.0  0.89470  0.33488  0.74303  1.0000
  C   C349      1.0  0.59871  0.45754  0.99654  1.0000
  C   C350      1.0  0.88965  0.32048  0.77385  1.0000
  H   H572      1.0  0.99278  0.38844  0.99168  1.0000
  C   C351      1.0  0.51537  0.31757  0.00533  1.0000
  Fe  Fe62      1.0  0.65012  0.49902  0.60251  1.0000
  H   H573      1.0  0.80349  0.36373  0.72035  1.0000
  H   H574      1.0  0.00493  0.36810  0.81095  1.0000
  Fe  Fe63      1.0  0.89918  0.33507  0.64969  1.0000
  H   H575      1.0  0.66986  0.43165  0.51724  1.0000
  H   H576      1.0  0.83551  0.38407  0.74027  1.0000
  C   C352      1.0  0.99758  0.37954  0.82528  1.0000
  Fe  Fe64      1.0  0.90927  0.38271  0.97140  1.0000
  Fe  Fe65      1.0  0.93969  0.35928  0.93623  1.0000
  C   C353      1.0  0.86975  0.44674  0.52964  1.0000
  N   N36       1.0  0.83592  0.36574  0.69210  1.0000
  H   H577      1.0  0.89276  0.26523  0.56363  1.0000
  S   S129      1.0  0.93146  0.39127  0.92151  1.0000
  Fe  Fe66      1.0  0.88433  0.36409  0.59693  1.0000
  S   S130      1.0  0.92026  0.35284  0.98777  1.0000
  S   S131      1.0  0.86844  0.39221  0.59583  1.0000
  H   H578      1.0  0.87340  0.37653  0.66918  1.0000
  S   S132      1.0  0.92224  0.37535  0.62594  1.0000
  C   C354      1.0  0.89235  0.36923  0.77531  1.0000
  H   H579      1.0  0.97000  0.35777  0.76547  1.0000
  H   H580      1.0  0.71596  0.47924  0.87967  1.0000
  H   H581      1.0  0.90117  0.37101  0.72055  1.0000
  H   H582      1.0  0.89371  0.38830  0.77593  1.0000
  S   S133      1.0  0.97996  0.36507  0.92184  1.0000
  C   C355      1.0  0.87382  0.41197  0.55876  1.0000
  C   C356      1.0  0.86603  0.43102  0.55899  1.0000
  H   H583      1.0  0.95674  0.33956  0.85816  1.0000
  S   S134      1.0  0.89294  0.34611  0.55105  1.0000
  H   H584      1.0  0.69125  0.46638  0.56276  1.0000
  H   H585      1.0  0.85708  0.43363  0.58191  1.0000
  S   S135      1.0  0.96837  0.37261  0.55194  1.0000
  S   S136      1.0  0.88293  0.36796  0.84517  1.0000
  H   H586      1.0  0.82265  0.37520  0.64489  1.0000
  H   H587      1.0  0.82904  0.34873  0.64088  1.0000
  C   C357      1.0  0.80456  0.26857  0.99130  1.0000
  C   C358      1.0  0.00454  0.36960  0.59642  1.0000
  H   H588      1.0  0.94338  0.36331  0.77512  1.0000
  C   C359      1.0  0.96455  0.37033  0.78090  1.0000
  Fe  Fe67      1.0  0.89346  0.35863  0.89832  1.0000
  H   H589      1.0  0.84347  0.33346  0.69373  1.0000
  N   N37       1.0  0.96906  0.36903  0.81845  1.0000
  H   H590      1.0  0.98767  0.35336  0.60876  1.0000
  H   H591      1.0  0.93224  0.33273  0.82540  1.0000
  C   C360      1.0  0.82472  0.37783  0.71487  1.0000
  S   S137      1.0  0.87011  0.35287  0.94732  1.0000
  H   H592      1.0  0.81278  0.32656  0.71278  1.0000
  C   C361      1.0  0.88736  0.35483  0.80617  1.0000
  H   H593      1.0  0.86635  0.40271  0.67152  1.0000
  C   C362      1.0  0.89627  0.35941  0.74390  1.0000
  H   H594      1.0  0.53209  0.41842  0.52716  1.0000
  C   C363      1.0  0.86408  0.38516  0.68561  1.0000
  C   C364      1.0  0.01022  0.38732  0.94330  1.0000
  C   C365      1.0  0.82109  0.35785  0.65876  1.0000
  H   H595      1.0  0.84352  0.34722  0.73527  1.0000
  Fe  Fe68      1.0  0.92970  0.35481  0.58188  1.0000
  C   C366      1.0  0.96028  0.38496  0.83778  1.0000
  H   H596      1.0  0.54433  0.46443  0.53914  1.0000
  H   H597      1.0  0.70426  0.50039  0.55172  1.0000
  H   H598      1.0  0.51524  0.33318  0.92062  1.0000
  H   H599      1.0  0.71860  0.46310  0.51637  1.0000
  H   H600      1.0  0.72486  0.50623  0.90936  1.0000
  S   S138      1.0  0.84330  0.26487  0.56364  1.0000
  H   H601      1.0  0.92560  0.31805  0.52808  1.0000
  C   C367      1.0  0.51322  0.41494  0.51513  1.0000
  H   H602      1.0  0.69657  0.49502  0.88105  1.0000
  C   C368      1.0  0.52368  0.33407  0.94691  1.0000
  C   C369      1.0  0.72298  0.50693  0.82120  1.0000
  H   H603      1.0  0.52965  0.31038  0.00473  1.0000
  H   H604      1.0  0.86365  0.46131  0.53004  1.0000
  H   H605      1.0  0.89008  0.29798  0.52562  1.0000
  N   N38       1.0  0.91058  0.27742  0.51350  1.0000
  S   S139      1.0  0.65721  0.50728  0.85448  1.0000
  H   H606      1.0  0.95298  0.29921  0.50948  1.0000
  H   H607      1.0  0.85012  0.57996  0.49389  1.0000
  H   H608      1.0  0.97357  0.55186  0.15060  1.0000
  H   H609      1.0  0.85619  0.61308  0.49521  1.0000
  C   C370      1.0  0.81133  0.54625  0.02168  1.0000
  N   N39       1.0  0.98895  0.58751  0.18103  1.0000
  H   H610      1.0  0.61936  0.61398  0.03141  1.0000
  C   C371      1.0  0.89478  0.60773  0.02808  1.0000
  H   H611      1.0  0.00445  0.58930  0.23245  1.0000
  H   H612      1.0  0.56945  0.69377  0.09827  1.0000
  C   C372      1.0  0.71302  0.53330  0.06537  1.0000
  H   H613      1.0  0.76782  0.56208  0.48145  1.0000
  H   H614      1.0  0.96763  0.58852  0.13595  1.0000
  C   C373      1.0  0.59021  0.71140  0.49502  1.0000
  N   N40       1.0  0.60380  0.72147  0.06972  1.0000
  H   H615      1.0  0.00515  0.56751  0.50438  1.0000
  C   C374      1.0  0.97611  0.55846  0.17823  1.0000
  C   C375      1.0  0.63687  0.74385  0.49392  1.0000
  H   H616      1.0  0.56256  0.69999  0.05511  1.0000
  H   H617      1.0  0.98228  0.61814  0.16227  1.0000
  C   C376      1.0  0.80120  0.57689  0.04956  1.0000
  H   H618      1.0  0.57073  0.72437  0.08816  1.0000
  H   H619      1.0  0.71937  0.54346  0.09103  1.0000
  C   C377      1.0  0.62010  0.73259  0.10156  1.0000
  C   C378      1.0  0.84884  0.51590  0.27930  1.0000
  C   C379      1.0  0.86302  0.52387  0.24804  1.0000
  C   C380      1.0  0.79165  0.54571  0.49903  1.0000
  H   H620      1.0  0.80484  0.59092  0.07018  1.0000
  H   H621      1.0  0.00130  0.61722  0.22096  1.0000
  H   H622      1.0  0.59868  0.73512  0.02020  1.0000
  C   C381      1.0  0.60867  0.70118  0.05461  1.0000
  C   C382      1.0  0.97233  0.59623  0.16304  1.0000
  H   H623      1.0  0.59326  0.69809  0.47755  1.0000
  C   C383      1.0  0.94089  0.63010  0.04539  1.0000
  S   S140      1.0  0.88427  0.53893  0.05401  1.0000
  Fe  Fe69      1.0  0.89458  0.54300  0.15437  1.0000
  S   S141      1.0  0.90595  0.57872  0.12128  1.0000
  S   S142      1.0  0.90964  0.55014  0.21052  1.0000
  Fe  Fe70      1.0  0.86657  0.55353  0.09344  1.0000
  S   S143      1.0  0.84086  0.57193  0.08140  1.0000
  Fe  Fe71      1.0  0.92257  0.56120  0.08466  1.0000
  S   S144      1.0  0.96176  0.58179  0.05568  1.0000
  S   S145      1.0  0.84360  0.51224  0.35021  1.0000
  S   S146      1.0  0.91355  0.52690  0.11889  1.0000
  Fe  Fe72      1.0  0.90720  0.55668  0.45474  1.0000
  S   S147      1.0  0.90072  0.52490  0.41688  1.0000
  S   S148      1.0  0.94534  0.59644  0.45766  1.0000
  Fe  Fe73      1.0  0.85023  0.52636  0.48134  1.0000
  H   H624      1.0  0.60302  0.68441  0.07261  1.0000
  C   C384      1.0  0.97867  0.57914  0.48216  1.0000
  Fe  Fe74      1.0  0.86191  0.52201  0.40449  1.0000
  H   H625      1.0  0.64101  0.73082  0.47737  1.0000
  H   H626      1.0  0.85266  0.51714  0.22338  1.0000
  S   S149      1.0  0.86967  0.55627  0.43903  1.0000
  H   H627      1.0  0.98123  0.63061  0.09602  1.0000
  H   H628      1.0  0.59697  0.69272  0.03028  1.0000
  H   H629      1.0  0.95310  0.58898  0.17620  1.0000
  C   C385      1.0  0.89057  0.54033  0.24884  1.0000
  H   H630      1.0  0.87872  0.60591  0.47297  1.0000
  C   C386      1.0  0.99191  0.59542  0.21799  1.0000
  C   C387      1.0  0.86201  0.52442  0.31158  1.0000
  C   C388      1.0  0.88953  0.54112  0.31234  1.0000
  C   C389      1.0  0.90371  0.54889  0.28113  1.0000
  H   H631      1.0  0.74281  0.51955  0.10306  1.0000
  H   H632      1.0  0.61673  0.74787  0.11366  1.0000
  H   H633      1.0  0.89991  0.54791  0.33697  1.0000
  H   H634      1.0  0.92500  0.56170  0.28204  1.0000
  C   C390      1.0  0.81608  0.56411  0.04875  1.0000
  H   H635      1.0  0.96185  0.63912  0.03697  1.0000
  C   C391      1.0  0.99989  0.62256  0.45670  1.0000
  H   H636      1.0  0.95603  0.54851  0.18990  1.0000
  H   H637      1.0  0.96092  0.56113  0.48938  1.0000
  H   H638      1.0  0.01286  0.58659  0.04795  1.0000
  H   H639      1.0  0.82257  0.53626  0.02060  1.0000
  H   H640      1.0  0.93898  0.64510  0.06075  1.0000
  S   S150      1.0  0.85408  0.51911  0.12951  1.0000
  C   C392      1.0  0.99371  0.60584  0.07138  1.0000
  H   H641      1.0  0.53101  0.74408  0.47960  1.0000
  H   H642      1.0  0.80223  0.54949  0.47492  1.0000
  H   H643      1.0  0.93716  0.61376  0.06324  1.0000
  C   C393      1.0  0.97658  0.59918  0.46561  1.0000
  S   S151      1.0  0.88848  0.52885  0.49923  1.0000
  H   H644      1.0  0.63207  0.75211  0.03666  1.0000
  H   H645      1.0  0.98797  0.55111  0.19171  1.0000
  C   C394      1.0  0.78194  0.57202  0.02369  1.0000
  C   C395      1.0  0.61095  0.74278  0.04431  1.0000
  H   H646      1.0  0.75244  0.52259  0.05857  1.0000
  C   C396      1.0  0.99786  0.62826  0.08969  1.0000
  H   H647      1.0  0.69368  0.53160  0.05850  1.0000
  H   H648      1.0  0.92183  0.58347  0.01231  1.0000
  C   C397      1.0  0.57545  0.70938  0.07834  1.0000
  H   H649      1.0  0.70002  0.51265  0.49165  1.0000
  H   H650      1.0  0.61533  0.71699  0.12120  1.0000
  C   C398      1.0  0.77206  0.55281  0.50280  1.0000
  H   H651      1.0  0.99848  0.63820  0.44396  1.0000
  H   H652      1.0  0.62986  0.70940  0.04792  1.0000
  H   H653      1.0  0.58450  0.72344  0.47879  1.0000
  C   C399      1.0  0.00382  0.58280  0.49061  1.0000
  H   H654      1.0  0.54236  0.59695  0.02604  1.0000
  H   H655      1.0  0.53318  0.55064  0.02924  1.0000
  H   H656      1.0  0.90590  0.59206  0.50638  1.0000
  H   H657      1.0  0.52742  0.75158  0.05511  1.0000
  H   H658      1.0  0.77118  0.58251  0.02435  1.0000
  C   C400      1.0  0.86599  0.60107  0.49624  1.0000
  H   H659      1.0  0.91682  0.63872  0.50792  1.0000
  H   H660      1.0  0.97227  0.58622  0.23093  1.0000
  H   H661      1.0  0.72764  0.54637  0.04586  1.0000
  H   H662      1.0  0.89120  0.62185  0.04304  1.0000
  H   H663      1.0  0.64161  0.74204  0.09590  1.0000
  H   H664      1.0  0.89023  0.59108  0.04572  1.0000
  H   H665      1.0  0.63320  0.75675  0.47642  1.0000
  H   H666      1.0  0.71862  0.50768  0.01155  1.0000
  C   C401      1.0  0.73645  0.51006  0.07697  1.0000
  N   N41       1.0  0.92227  0.62024  0.01547  1.0000
  S   S152      1.0  0.54534  0.72594  0.00868  1.0000
  Fe  Fe75      1.0  0.57428  0.66703  0.60771  1.0000
  S   S153      1.0  0.54317  0.64230  0.64626  1.0000
  S   S154      1.0  0.55774  0.64317  0.92438  1.0000
  H   H667      1.0  0.65747  0.64437  0.91504  1.0000
  H   H668      1.0  0.61758  0.55609  0.72418  1.0000
  Fe  Fe76      1.0  0.67000  0.52908  0.90652  1.0000
  S   S155      1.0  0.70613  0.56895  0.91373  1.0000
  H   H669      1.0  0.52989  0.63944  0.72300  1.0000
  Fe  Fe77      1.0  0.65980  0.52324  0.98510  1.0000
  C   C402      1.0  0.66737  0.52302  0.81368  1.0000
  Fe  Fe78      1.0  0.68086  0.57636  0.95086  1.0000
  S   S156      1.0  0.67939  0.61397  0.94229  1.0000
  Fe  Fe79      1.0  0.71686  0.55168  0.95903  1.0000
  S   S157      1.0  0.64406  0.53701  0.94141  1.0000
  H   H670      1.0  0.94823  0.65240  0.98271  1.0000
  Fe  Fe80      1.0  0.65276  0.55230  0.59614  1.0000
  H   H671      1.0  0.62295  0.69716  0.52419  1.0000
  S   S158      1.0  0.62129  0.56377  0.58656  1.0000
  Fe  Fe81      1.0  0.70135  0.54622  0.57826  1.0000
  C   C403      1.0  0.92583  0.60060  0.99586  1.0000
  S   S159      1.0  0.73303  0.55685  0.53684  1.0000
  Fe  Fe82      1.0  0.68411  0.54401  0.65367  1.0000
  S   S160      1.0  0.69945  0.56131  0.70771  1.0000
  S   S161      1.0  0.65917  0.52676  0.55836  1.0000
  S   S162      1.0  0.69586  0.57475  0.61183  1.0000
  Fe  Fe83      1.0  0.51406  0.63387  0.60263  1.0000
  C   C404      1.0  0.68542  0.55010  0.81109  1.0000
  C   C405      1.0  0.69488  0.56146  0.77841  1.0000
  C   C406      1.0  0.68603  0.54605  0.74792  1.0000
  N   N42       1.0  0.88158  0.60598  0.52865  1.0000
  H   H672      1.0  0.52179  0.58068  0.93386  1.0000
  H   H673      1.0  0.69232  0.56228  0.83426  1.0000
  H   H674      1.0  0.70923  0.58234  0.77679  1.0000
  H   H675      1.0  0.51497  0.68830  0.77965  1.0000
  S   S163      1.0  0.69537  0.56325  0.99695  1.0000
  C   C407      1.0  0.90306  0.63391  0.53011  1.0000
  H   H676      1.0  0.65616  0.58887  0.64614  1.0000
  C   C408      1.0  0.63120  0.64477  0.95366  1.0000
  C   C409      1.0  0.62074  0.63671  0.98679  1.0000
  H   H677      1.0  0.57282  0.69862  0.51133  1.0000
  C   C410      1.0  0.64872  0.63723  0.94016  1.0000
  C   C411      1.0  0.65526  0.62079  0.95901  1.0000
  H   H678      1.0  0.64506  0.55418  0.70744  1.0000
  C   C412      1.0  0.86401  0.60002  0.55874  1.0000
  H   H679      1.0  0.92510  0.65768  0.00667  1.0000
  C   C413      1.0  0.61557  0.63880  0.60043  1.0000
  C   C414      1.0  0.59286  0.61395  0.59604  1.0000
  C   C415      1.0  0.59512  0.59133  0.59189  1.0000
  C   C416      1.0  0.62003  0.59315  0.59238  1.0000
  C   C417      1.0  0.64277  0.61798  0.59720  1.0000
  C   C418      1.0  0.64052  0.64067  0.60116  1.0000
  H   H680      1.0  0.57354  0.61218  0.59527  1.0000
  H   H681      1.0  0.57741  0.57227  0.58801  1.0000
  H   H682      1.0  0.66211  0.61982  0.59697  1.0000
  H   H683      1.0  0.67385  0.62507  0.73078  1.0000
  H   H684      1.0  0.67730  0.62042  0.66638  1.0000
  H   H685      1.0  0.64808  0.59806  0.75446  1.0000
  S   S164      1.0  0.54543  0.65612  0.56305  1.0000
  C   C419      1.0  0.62904  0.60137  0.69177  1.0000
  H   H686      1.0  0.67562  0.59584  0.73858  1.0000
  C   C420      1.0  0.66181  0.60316  0.73226  1.0000
  H   H687      1.0  0.78770  0.52000  0.57901  1.0000
  H   H688      1.0  0.68124  0.59283  0.67657  1.0000
  H   H689      1.0  0.61766  0.59262  0.66719  1.0000
  C   C421      1.0  0.52964  0.59075  0.00222  1.0000
  H   H690      1.0  0.64000  0.62321  0.68859  1.0000
  H   H691      1.0  0.65821  0.65983  0.60432  1.0000
  H   H692      1.0  0.56730  0.59756  0.95756  1.0000
  H   H693      1.0  0.62030  0.55292  0.67821  1.0000
  C   C422      1.0  0.66633  0.59875  0.67088  1.0000
  S   S165      1.0  0.54263  0.66018  0.99766  1.0000
  C   C423      1.0  0.51485  0.56314  0.95089  1.0000
  H   H694      1.0  0.85473  0.61251  0.55902  1.0000
  C   C424      1.0  0.62721  0.62023  0.00568  1.0000
  C   C425      1.0  0.77739  0.55437  0.99643  1.0000
  H   H695      1.0  0.51548  0.54740  0.93559  1.0000
  H   H696      1.0  0.73476  0.52104  0.80041  1.0000
  H   H697      1.0  0.87756  0.56760  0.52938  1.0000
  S   S166      1.0  0.61363  0.66794  0.60429  1.0000
  Fe  Fe84      1.0  0.52215  0.64195  0.94740  1.0000
  C   C426      1.0  0.73518  0.54296  0.86135  1.0000
  H   H698      1.0  0.52577  0.61835  0.75864  1.0000
  H   H699      1.0  0.75280  0.53192  0.58517  1.0000
  H   H700      1.0  0.61446  0.59645  0.71285  1.0000
  C   C427      1.0  0.63183  0.56237  0.70246  1.0000
  H   H701      1.0  0.91386  0.63573  0.96979  1.0000
  N   N43       1.0  0.64724  0.59143  0.69939  1.0000
  S   S167      1.0  0.75434  0.54839  0.96200  1.0000
  H   H702      1.0  0.62649  0.65750  0.93881  1.0000
  H   H703      1.0  0.94653  0.60917  0.98663  1.0000
  Fe  Fe85      1.0  0.57895  0.66359  0.97330  1.0000
  C   C428      1.0  0.75784  0.54790  0.53383  1.0000
  H   H704      1.0  0.71499  0.54023  0.86001  1.0000
  S   S168      1.0  0.64101  0.52297  0.63930  1.0000
  C   C429      1.0  0.89324  0.58880  0.52937  1.0000
  C   C430      1.0  0.76123  0.52182  0.85918  1.0000
  H   H705      1.0  0.87500  0.60324  0.58368  1.0000
  H   H706      1.0  0.89505  0.64751  0.52906  1.0000
  C   C431      1.0  0.78330  0.52903  0.55751  1.0000
  H   H707      1.0  0.59238  0.73512  0.55588  1.0000
  C   C432      1.0  0.79225  0.54159  0.99561  1.0000
  N   N44       1.0  0.61401  0.72822  0.51661  1.0000
  S   S169      1.0  0.57388  0.70448  0.62099  1.0000
  H   H708      1.0  0.63733  0.72317  0.55625  1.0000
  H   H709      1.0  0.64914  0.59959  0.00665  1.0000
  Fe  Fe86      1.0  0.54261  0.69183  0.57894  1.0000
  S   S170      1.0  0.53884  0.71631  0.53513  1.0000
  Fe  Fe87      1.0  0.55406  0.69948  0.97361  1.0000
  C   C433      1.0  0.92761  0.64251  0.99262  1.0000
  H   H710      1.0  0.77459  0.53611  0.83955  1.0000
  H   H711      1.0  0.87997  0.59961  0.00643  1.0000
  S   S171      1.0  0.59252  0.70457  0.95356  1.0000
  C   C434      1.0  0.57042  0.69095  0.81283  1.0000
  C   C435      1.0  0.64402  0.61194  0.99166  1.0000
  S   S172      1.0  0.52935  0.68745  0.70895  1.0000
  H   H712      1.0  0.84758  0.57902  0.55813  1.0000
  S   S173      1.0  0.58735  0.69369  0.85231  1.0000
  H   H713      1.0  0.53647  0.68947  0.83611  1.0000
  H   H714      1.0  0.74385  0.55180  0.88722  1.0000
  H   H715      1.0  0.57962  0.69026  0.72528  1.0000
  S   S174      1.0  0.53068  0.68059  0.92411  1.0000
  C   C436      1.0  0.54813  0.75014  0.53100  1.0000
  C   C437      1.0  0.65827  0.50765  0.78312  1.0000
  Fe  Fe88      1.0  0.56837  0.68338  0.90539  1.0000
  H   H716      1.0  0.60159  0.69253  0.78177  1.0000
  C   C438      1.0  0.54578  0.68909  0.74854  1.0000
  C   C439      1.0  0.58247  0.69120  0.78134  1.0000
  C   C440      1.0  0.57009  0.68998  0.74931  1.0000
  C   C441      1.0  0.79755  0.53396  0.52653  1.0000
  S   S175      1.0  0.82311  0.52597  0.52440  1.0000
  N   N45       1.0  0.53120  0.56984  0.98289  1.0000
  Fe  Fe89      1.0  0.54031  0.67839  0.65637  1.0000
  C   C442      1.0  0.76346  0.53577  0.56111  1.0000
  C   C443      1.0  0.54580  0.68943  0.81204  1.0000
  C   C444      1.0  0.53370  0.68883  0.78001  1.0000
  C   C445      1.0  0.51906  0.61857  0.73157  1.0000
  C   C446      1.0  0.66739  0.51913  0.75034  1.0000
  H   H717      1.0  0.74719  0.55761  0.84124  1.0000
  H   H718      1.0  0.77002  0.52991  0.88534  1.0000
  S   S176      1.0  0.69257  0.51714  0.62111  1.0000
  H   H719      1.0  0.90581  0.59244  0.55292  1.0000
  H   H720      1.0  0.91511  0.63836  0.55437  1.0000
  H   H721      1.0  0.52228  0.52998  0.99109  1.0000
  C   C447      1.0  0.61958  0.71134  0.53934  1.0000
  S   S177      1.0  0.68179  0.51117  0.94953  1.0000
  C   C448      1.0  0.60932  0.74628  0.53819  1.0000
  H   H722      1.0  0.60273  0.69940  0.55684  1.0000
  N   N46       1.0  0.73416  0.51756  0.85606  1.0000
  H   H723      1.0  0.91221  0.59273  0.97298  1.0000
  H   H724      1.0  0.78908  0.52800  0.97460  1.0000
  H   H725      1.0  0.52561  0.60760  0.71469  1.0000
  H   H726      1.0  0.57193  0.58459  0.99723  1.0000
  H   H727      1.0  0.53648  0.60862  0.98609  1.0000
  H   H728      1.0  0.56115  0.56434  0.95876  1.0000
  C   C449      1.0  0.55906  0.57941  0.97366  1.0000
  S   S178      1.0  0.59988  0.64707  0.00573  1.0000
  H   H729      1.0  0.65515  0.75678  0.50943  1.0000
  C   C450      1.0  0.52129  0.54616  0.00481  1.0000
  H   H730      1.0  0.61516  0.99318  0.36328  1.0000
  H   H731      1.0  0.58006  0.95092  0.38510  1.0000
  Fe  Fe90      1.0  0.55440  0.87086  0.39972  1.0000
  S   S179      1.0  0.58591  0.89159  0.44137  1.0000
  S   S180      1.0  0.57241  0.87456  0.34626  1.0000
  Fe  Fe91      1.0  0.55910  0.85702  0.47534  1.0000
  H   H732      1.0  0.58389  0.00396  0.44225  1.0000
  Fe  Fe92      1.0  0.56230  0.91036  0.45723  1.0000
  C   C451      1.0  0.63631  0.99623  0.07179  1.0000
  C   C452      1.0  0.54893  0.78503  0.49510  1.0000
  S   S181      1.0  0.53198  0.89102  0.41441  1.0000
  H   H733      1.0  0.57455  0.87793  0.21899  1.0000
  S   S182      1.0  0.57079  0.89606  0.05301  1.0000
  Fe  Fe93      1.0  0.54226  0.86936  0.14459  1.0000
  S   S183      1.0  0.58601  0.89111  0.13403  1.0000
  C   C453      1.0  0.52988  0.85910  0.30033  1.0000
  Fe  Fe94      1.0  0.57805  0.91907  0.10293  1.0000
  S   S184      1.0  0.59593  0.96290  0.11660  1.0000
  Fe  Fe95      1.0  0.57481  0.86596  0.08479  1.0000
  S   S185      1.0  0.59565  0.84660  0.05795  1.0000
  S   S186      1.0  0.53458  0.89790  0.11546  1.0000
  C   C454      1.0  0.62796  0.98468  0.46344  1.0000
  C   C455      1.0  0.61742  0.99337  0.09607  1.0000
  C   C456      1.0  0.54630  0.76673  0.04528  1.0000
  H   H734      1.0  0.63725  0.97911  0.06356  1.0000
  C   C457      1.0  0.58146  0.81293  0.04465  1.0000
  H   H735      1.0  0.64353  0.99547  0.34216  1.0000
  S   S187      1.0  0.57305  0.95329  0.46547  1.0000
  H   H736      1.0  0.60331  0.94552  0.40905  1.0000
  C   C458      1.0  0.60341  0.98273  0.45750  1.0000
  H   H737      1.0  0.54389  0.79098  0.47102  1.0000
  Fe  Fe96      1.0  0.52815  0.87298  0.06841  1.0000
  C   C459      1.0  0.55719  0.86972  0.30469  1.0000
  S   S188      1.0  0.52933  0.83510  0.43272  1.0000
  S   S189      1.0  0.51952  0.85506  0.19521  1.0000
  C   C460      1.0  0.53466  0.86160  0.23707  1.0000
  C   C461      1.0  0.56203  0.87278  0.24149  1.0000
  C   C462      1.0  0.57318  0.87666  0.27511  1.0000
  H   H738      1.0  0.58546  0.95765  0.32086  1.0000
  H   H739      1.0  0.62875  0.96754  0.47189  1.0000
  H   H740      1.0  0.54630  0.79798  0.07528  1.0000
  H   H741      1.0  0.64704  0.95497  0.33547  1.0000
  S   S190      1.0  0.53187  0.84224  0.09817  1.0000
  H   H742      1.0  0.63916  0.98956  0.38796  1.0000
  H   H743      1.0  0.64232  0.94929  0.38142  1.0000
  C   C463      1.0  0.59370  0.94297  0.38320  1.0000
  H   H744      1.0  0.58136  0.92143  0.37812  1.0000
  C   C464      1.0  0.55697  0.79308  0.05680  1.0000
  H   H745      1.0  0.61400  0.95988  0.30022  1.0000
  N   N47       1.0  0.61349  0.95604  0.35578  1.0000
  C   C465      1.0  0.62851  0.98483  0.36248  1.0000
  C   C466      1.0  0.63184  0.94568  0.35594  1.0000
  C   C467      1.0  0.59976  0.95045  0.32172  1.0000
  C   C468      1.0  0.51868  0.85490  0.26666  1.0000
  S   S191      1.0  0.53861  0.87810  0.49540  1.0000
  H   H746      1.0  0.59430  0.88477  0.27816  1.0000
  H   H747      1.0  0.62103  0.92394  0.35117  1.0000
  H   H748      1.0  0.61409  0.82110  0.01135  1.0000
  H   H749      1.0  0.58827  0.92879  0.31611  1.0000
  H   H750      1.0  0.51734  0.85362  0.32284  1.0000
  C   C469      1.0  0.60277  0.00531  0.44708  1.0000
  C   C470      1.0  0.59509  0.80596  0.02089  1.0000
  H   H751      1.0  0.51437  0.80624  0.50237  1.0000
  C   C471      1.0  0.55980  0.75977  0.02134  1.0000
  H   H752      1.0  0.53914  0.83754  0.02331  1.0000
  C   C472      1.0  0.54167  0.75840  0.50003  1.0000
  H   H753      1.0  0.60768  0.75854  0.05491  1.0000
  C   C473      1.0  0.58425  0.77963  0.00901  1.0000
  C   C474      1.0  0.53328  0.81803  0.93914  1.0000
  H   H754      1.0  0.58088  0.86343  0.99340  1.0000
  S   S192      1.0  0.57206  0.83765  0.51666  1.0000
  C   C475      1.0  0.56291  0.80387  0.52109  1.0000
  H   H755      1.0  0.53758  0.80180  0.94358  1.0000
  H   H756      1.0  0.52728  0.82361  0.56208  1.0000
  H   H757      1.0  0.58028  0.81001  0.57235  1.0000
  C   C476      1.0  0.56947  0.79564  0.55203  1.0000
  C   C477      1.0  0.57252  0.84889  0.97153  1.0000
  H   H758      1.0  0.59487  0.77473  0.99046  1.0000
  H   H759      1.0  0.54473  0.87327  0.98289  1.0000
  H   H760      1.0  0.57769  0.83344  0.97697  1.0000
  N   N48       1.0  0.54354  0.83736  0.96810  1.0000
  H   H761      1.0  0.58293  0.85927  0.94755  1.0000
  H   H762      1.0  0.54709  0.86938  0.93703  1.0000
  C   C478      1.0  0.53074  0.82390  0.00063  1.0000
  H   H763      1.0  0.54242  0.82749  0.91410  1.0000
  C   C479      1.0  0.56206  0.76895  0.55706  1.0000
  C   C480      1.0  0.53759  0.85859  0.96121  1.0000
  H   H764      1.0  0.62690  0.75944  0.55466  1.0000
  H   H765      1.0  0.60438  0.75892  0.52199  1.0000
  H   H766      1.0  0.56718  0.76299  0.58105  1.0000
  H   H767      1.0  0.53361  0.80688  0.00567  1.0000
  H   H768      1.0  0.51586  0.85060  0.95856  1.0000
