data_image0
_chemical_formula_structural       SH4C2SH8C2NHS2HCH2FeSFe2SHS2H3CHC2H4C3SFeNCH4C3H2SC2NH3SHNCH2C2H2FeH4CHSCFeH2CSC2HCSH5C2SC2H5CHSH6C2SH4C4H2CH2C2HCH2CSNFeH3SCHCFeCHFe2SCFeS3CHC3SH2CH2C3H2CSH2CNHC3HSH3FeCHC2NH2C2SH3SCNFeCHSCHC3S4HCH4CH3SH2FeCHCH3SCFeSCH2CH5CHFeC2SH3CHC3HSHS2FeSFe2S4CNCHC2HCHFeSC5H2CHN2H8FeCHCHFeHSH2CH2SH3SH2CHCHCSH2NH2CH3CH4SCH2SCH4CHSC2SCSH2FeCS4CNC2H4SCH2CH2CHCHCHNCHCH4SC2H2SFeHCH3FeCHFe2SFeCS2C5HSFeCNHC5H2C2HSCSHFeHCH2SHCSH3C3H2CH2CHCSFeH4FeCH3CSCHC2HNCH2CHCH3CHSH2CH4CH7C2HCSCSCHCHSH3FeSHNFeHCH2C2HCHC3H3NHCH2CHCH2C3SH2SFeH2FeNHSH2C2SH2SHC2FeCHCH5CH3C3H2SH2FeHCHNCH2CH3SCH2NHC2H4CH2C3H2CHCH4C4SH6SHS3CSCFeC2SH2SH2FeHCHFeH2C2NHCHFeCH2SCHCH2C3H3FeCH2CH5CS2HSHCH2C6HCH3NHCH5CH2C2H3CHSHC2H3FeCFeS2FeSFeH5CH2C4HSFeCSNHCHCH3CH5SH2C2HCH4C2NSCH4C2HSH4C2H5C2H3C2H2N2HCHCH2SH2SHSH2CH3CHFeCNHFeSCSH2SHFeCHCHCHCHFeC2H2C3SCHCHC3HCH3SCNH2C2H2SH4CHFeH4CFeSCS2C3SH3NH2FeHFeHC6H6CHCNH3FeC2SCS2CHCHFe2SHC5HCHC2SFeCHCHCHCSC2HCHFeH2CH2CSH3C2S2CH5C2SNHSHCHFeC2HCH4CH3CH2SCH3SCHCSFeNH3CH3CHS2HSH2CSH2FeHSH3C4HS2H2CH2CHC2FeCHCNC3HCHCH4NC2SCHCFeH4NHFeH4FeSH2SHC2HCH3Fe2S2HC2H3SCH2C2SCH5CHSHCH2CH2C2HCH2NSCHC2H2SH3CH2C2H3SHCS2H5FeHFe2CFeSFeCHFeHSFeCHFeS4C2HFeH3SCH2CSHC6H3CHCFeC2FeH4CH3CFeHFeH3SH2CFeHSCH2C2HC2H2SCH2C3SCHC2SCNHCH2CHC2S2H4CHNH3CSHFeHSHCNHCH2S2H3CH6C4NH4CSCSHC3H2FeSC2SCSC3HCHFeHC2H2CSH2C3H2C2H2CHCNHSCFeCHC2SNH4SCSC2H3CH2SFeHFeHC2HSC2HC2HCH3C2HFe2H6FeH6SHCSH2NH3NC2H4S2H5CH4CH2SHCH2CSFeHSCH4CH4SNH5C2HFeSH5CNH2CHCHCFeH2CHCNH2CH4
_chemical_formula_sum              "S192 H768 C480 N48 Fe96"
_cell_length_a       43.4418
_cell_length_b       43.1923
_cell_length_c       47.9462
_cell_angle_alpha    89.8771
_cell_angle_beta     90.0365
_cell_angle_gamma    119.783

_space_group_name_H-M_alt    "P 1"
_space_group_IT_number       1

loop_
  _space_group_symop_operation_xyz
  'x, y, z'

loop_
  _atom_site_type_symbol
  _atom_site_label
  _atom_site_symmetry_multiplicity
  _atom_site_fract_x
  _atom_site_fract_y
  _atom_site_fract_z
  _atom_site_occupancy
  S   S1        1.0  0.41544  0.50113  0.24105  1.0000
  H   H1        1.0  0.52983  0.21042  0.22404  1.0000
  H   H2        1.0  0.46549  0.37130  0.08184  1.0000
  H   H3        1.0  0.09428  0.42834  0.10314  1.0000
  H   H4        1.0  0.53773  0.14450  0.22164  1.0000
  C   C1        1.0  0.52081  0.43217  0.10180  1.0000
  C   C2        1.0  0.47122  0.39666  0.07144  1.0000
  S   S2        1.0  0.43361  0.43677  0.25187  1.0000
  H   H5        1.0  0.51977  0.26106  0.19686  1.0000
  H   H6        1.0  0.35264  0.47464  0.07240  1.0000
  H   H7        1.0  0.09884  0.48694  0.09341  1.0000
  H   H8        1.0  0.09071  0.39964  0.07467  1.0000
  H   H9        1.0  0.11670  0.43421  0.24587  1.0000
  H   H10       1.0  0.13150  0.44017  0.08077  1.0000
  H   H11       1.0  0.50805  0.39365  0.23739  1.0000
  H   H12       1.0  0.26570  0.39533  0.05730  1.0000
  C   C3        1.0  0.20460  0.52287  0.03961  1.0000
  C   C4        1.0  0.44882  0.49963  0.14397  1.0000
  N   N1        1.0  0.48665  0.42701  0.09110  1.0000
  H   H13       1.0  0.20947  0.52043  0.08417  1.0000
  S   S3        1.0  0.31639  0.39337  0.00936  1.0000
  S   S4        1.0  0.48962  0.50833  0.21641  1.0000
  H   H14       1.0  0.50362  0.48315  0.09083  1.0000
  C   C5        1.0  0.20084  0.50553  0.01414  1.0000
  H   H15       1.0  0.51746  0.40322  0.20097  1.0000
  H   H16       1.0  0.51966  0.16213  0.04958  1.0000
  Fe  Fe1       1.0  0.12074  0.46640  0.15930  1.0000
  S   S5        1.0  0.14159  0.42827  0.15912  1.0000
  Fe  Fe2       1.0  0.17461  0.45993  0.19561  1.0000
  Fe  Fe3       1.0  0.18563  0.46959  0.13292  1.0000
  S   S6        1.0  0.20345  0.45158  0.09531  1.0000
  H   H17       1.0  0.51025  0.17479  0.24923  1.0000
  S   S7        1.0  0.22083  0.49751  0.16935  1.0000
  S   S8        1.0  0.40256  0.44168  0.17558  1.0000
  H   H18       1.0  0.09823  0.50047  0.05804  1.0000
  H   H19       1.0  0.08164  0.39249  0.23358  1.0000
  H   H20       1.0  0.48958  0.40092  0.05389  1.0000
  C   C6        1.0  0.41807  0.46618  0.14445  1.0000
  H   H21       1.0  0.08808  0.41829  0.02539  1.0000
  C   C7        1.0  0.41349  0.46898  0.09401  1.0000
  C   C8        1.0  0.40012  0.45116  0.11945  1.0000
  H   H22       1.0  0.39993  0.45687  0.07479  1.0000
  H   H23       1.0  0.37630  0.42527  0.11972  1.0000
  H   H24       1.0  0.09464  0.46223  0.01915  1.0000
  H   H25       1.0  0.19237  0.50304  0.24654  1.0000
  C   C9        1.0  0.46205  0.51756  0.11855  1.0000
  C   C10       1.0  0.20377  0.47327  0.06421  1.0000
  C   C11       1.0  0.20117  0.45652  0.03866  1.0000
  S   S9        1.0  0.16244  0.50568  0.13036  1.0000
  Fe  Fe4       1.0  0.49062  0.47951  0.25513  1.0000
  N   N2        1.0  0.53713  0.37059  0.21885  1.0000
  C   C12       1.0  0.20622  0.50680  0.06462  1.0000
  H   H26       1.0  0.19922  0.43058  0.03811  1.0000
  H   H27       1.0  0.44603  0.39277  0.06214  1.0000
  H   H28       1.0  0.31946  0.50691  0.07558  1.0000
  H   H29       1.0  0.51062  0.10911  0.02274  1.0000
  C   C13       1.0  0.29076  0.44233  0.10060  1.0000
  C   C14       1.0  0.44463  0.50209  0.09350  1.0000
  C   C15       1.0  0.19988  0.47270  0.01367  1.0000
  H   H30       1.0  0.32974  0.42751  0.06526  1.0000
  H   H31       1.0  0.51753  0.40771  0.11227  1.0000
  S   S10       1.0  0.06326  0.44907  0.15085  1.0000
  C   C16       1.0  0.50483  0.33673  0.21178  1.0000
  C   C17       1.0  0.49268  0.45977  0.07656  1.0000
  N   N3        1.0  0.09024  0.44740  0.06253  1.0000
  H   H32       1.0  0.46764  0.45665  0.06777  1.0000
  H   H33       1.0  0.28949  0.41651  0.10552  1.0000
  H   H34       1.0  0.43545  0.41421  0.10700  1.0000
  S   S11       1.0  0.18226  0.43322  0.23322  1.0000
  H   H35       1.0  0.06789  0.39176  0.17778  1.0000
  N   N4        1.0  0.29579  0.45015  0.07039  1.0000
  C   C18       1.0  0.29691  0.48434  0.06465  1.0000
  H   H36       1.0  0.33377  0.45832  0.03858  1.0000
  H   H37       1.0  0.23999  0.41713  0.06227  1.0000
  C   C19       1.0  0.10654  0.48497  0.07159  1.0000
  C   C20       1.0  0.53470  0.20029  0.24394  1.0000
  H   H38       1.0  0.27224  0.48361  0.07176  1.0000
  H   H39       1.0  0.29970  0.49048  0.04192  1.0000
  Fe  Fe5       1.0  0.43163  0.46839  0.21526  1.0000
  H   H40       1.0  0.45748  0.39563  0.12667  1.0000
  H   H41       1.0  0.26559  0.44044  0.10813  1.0000
  H   H42       1.0  0.26792  0.42695  0.03212  1.0000
  H   H43       1.0  0.31288  0.46346  0.11297  1.0000
  C   C21       1.0  0.10213  0.42799  0.08108  1.0000
  H   H44       1.0  0.46277  0.51143  0.16310  1.0000
  S   S12       1.0  0.41451  0.43125  0.02333  1.0000
  C   C22       1.0  0.26602  0.42115  0.05488  1.0000
  Fe  Fe6       1.0  0.43961  0.49074  0.02303  1.0000
  H   H45       1.0  0.47861  0.15666  0.03601  1.0000
  H   H46       1.0  0.47178  0.44240  0.12929  1.0000
  C   C23       1.0  0.10118  0.44608  0.03354  1.0000
  S   S13       1.0  0.46325  0.52377  0.06178  1.0000
  C   C24       1.0  0.46184  0.41948  0.11458  1.0000
  C   C25       1.0  0.32952  0.45285  0.06135  1.0000
  H   H47       1.0  0.13030  0.45689  0.03206  1.0000
  C   C26       1.0  0.09677  0.40672  0.25248  1.0000
  S   S14       1.0  0.15006  0.49485  0.19811  1.0000
  H   H48       1.0  0.49371  0.33851  0.19131  1.0000
  H   H49       1.0  0.46970  0.10359  0.00888  1.0000
  H   H50       1.0  0.54031  0.43854  0.08460  1.0000
  H   H51       1.0  0.51049  0.31435  0.21038  1.0000
  H   H52       1.0  0.51886  0.19839  0.03194  1.0000
  C   C27       1.0  0.50753  0.16890  0.03183  1.0000
  C   C28       1.0  0.05119  0.43066  0.06409  1.0000
  S   S15       1.0  0.53841  0.28439  0.14045  1.0000
  C   C29       1.0  0.53924  0.38748  0.01591  1.0000
  C   C30       1.0  0.52826  0.39939  0.22089  1.0000
  H   H53       1.0  0.51157  0.46669  0.05893  1.0000
  H   H54       1.0  0.48379  0.32937  0.22784  1.0000
  H   H55       1.0  0.53295  0.45458  0.11696  1.0000
  H   H56       1.0  0.13600  0.49846  0.07070  1.0000
  H   H57       1.0  0.04226  0.43013  0.08597  1.0000
  C   C31       1.0  0.04309  0.39002  0.18366  1.0000
  H   H58       1.0  0.49776  0.34783  0.44259  1.0000
  S   S16       1.0  0.51320  0.34602  0.34524  1.0000
  H   H59       1.0  0.31967  0.48203  0.38026  1.0000
  H   H60       1.0  0.44044  0.52561  0.32388  1.0000
  H   H61       1.0  0.51765  0.45729  0.49473  1.0000
  H   H62       1.0  0.46836  0.38744  0.37618  1.0000
  H   H63       1.0  0.24631  0.39683  0.35417  1.0000
  H   H64       1.0  0.49110  0.46014  0.34971  1.0000
  C   C32       1.0  0.19142  0.48954  0.26573  1.0000
  C   C33       1.0  0.27476  0.48458  0.34217  1.0000
  S   S17       1.0  0.51103  0.19119  0.31357  1.0000
  H   H65       1.0  0.25554  0.48667  0.35637  1.0000
  H   H66       1.0  0.33077  0.47617  0.33057  1.0000
  H   H67       1.0  0.53129  0.35928  0.26286  1.0000
  H   H68       1.0  0.50862  0.48241  0.39860  1.0000
  C   C34       1.0  0.04642  0.37014  0.28180  1.0000
  C   C35       1.0  0.04891  0.41431  0.46265  1.0000
  C   C36       1.0  0.42678  0.51622  0.39401  1.0000
  C   C37       1.0  0.51602  0.11813  0.36342  1.0000
  H   H69       1.0  0.19552  0.44746  0.49823  1.0000
  H   H70       1.0  0.41127  0.38618  0.38282  1.0000
  C   C38       1.0  0.51039  0.16024  0.39324  1.0000
  H   H71       1.0  0.53789  0.17036  0.46066  1.0000
  H   H72       1.0  0.46586  0.37026  0.32633  1.0000
  C   C39       1.0  0.46349  0.44407  0.35774  1.0000
  C   C40       1.0  0.51025  0.17950  0.36975  1.0000
  H   H73       1.0  0.10876  0.41127  0.30765  1.0000
  C   C41       1.0  0.24438  0.42059  0.34764  1.0000
  H   H74       1.0  0.51591  0.12739  0.31923  1.0000
  H   H75       1.0  0.11153  0.39317  0.25958  1.0000
  C   C42       1.0  0.49323  0.36940  0.49812  1.0000
  S   S18       1.0  0.48056  0.51416  0.28406  1.0000
  N   N5        1.0  0.27910  0.45369  0.34949  1.0000
  Fe  Fe7       1.0  0.11533  0.41682  0.41896  1.0000
  H   H76       1.0  0.18281  0.41143  0.28951  1.0000
  H   H77       1.0  0.30838  0.42872  0.33492  1.0000
  H   H78       1.0  0.46697  0.48064  0.40425  1.0000
  S   S19       1.0  0.05643  0.37927  0.41765  1.0000
  C   C43       1.0  0.51211  0.16764  0.34303  1.0000
  H   H79       1.0  0.18708  0.44083  0.33480  1.0000
  C   C44       1.0  0.52265  0.35954  0.43012  1.0000
  Fe  Fe8       1.0  0.42308  0.47375  0.27797  1.0000
  C   C45       1.0  0.42568  0.41025  0.39617  1.0000
  H   H80       1.0  0.50801  0.16900  0.41382  1.0000
  Fe  Fe9       1.0  0.17694  0.47557  0.45037  1.0000
  Fe  Fe10      1.0  0.17737  0.47491  0.38673  1.0000
  S   S20       1.0  0.14989  0.41533  0.38487  1.0000
  C   C46       1.0  0.51984  0.38125  0.32308  1.0000
  Fe  Fe11      1.0  0.18691  0.42043  0.41939  1.0000
  S   S21       1.0  0.21863  0.39249  0.41606  1.0000
  S   S22       1.0  0.13970  0.47632  0.41814  1.0000
  S   S23       1.0  0.21714  0.48015  0.41886  1.0000
  C   C47       1.0  0.24803  0.40320  0.44417  1.0000
  H   H81       1.0  0.07819  0.42617  0.31678  1.0000
  C   C48       1.0  0.39889  0.47889  0.34401  1.0000
  C   C49       1.0  0.38210  0.46412  0.36942  1.0000
  C   C50       1.0  0.39593  0.48284  0.39438  1.0000
  S   S24       1.0  0.52869  0.03176  0.44679  1.0000
  H   H82       1.0  0.35902  0.43770  0.36994  1.0000
  H   H83       1.0  0.38276  0.47132  0.41386  1.0000
  C   C51       1.0  0.18738  0.45536  0.26500  1.0000
  H   H84       1.0  0.51561  0.36200  0.40819  1.0000
  H   H85       1.0  0.44906  0.42077  0.34364  1.0000
  C   C52       1.0  0.51476  0.13680  0.33985  1.0000
  C   C53       1.0  0.49172  0.38747  0.31735  1.0000
  C   C54       1.0  0.52971  0.43658  0.28671  1.0000
  H   H86       1.0  0.07592  0.43509  0.45874  1.0000
  H   H87       1.0  0.30037  0.51006  0.34363  1.0000
  C   C55       1.0  0.48060  0.46458  0.40505  1.0000
  S   S25       1.0  0.41491  0.50936  0.50234  1.0000
  H   H88       1.0  0.42423  0.40100  0.41809  1.0000
  H   H89       1.0  0.32086  0.39836  0.46385  1.0000
  C   C56       1.0  0.27587  0.39574  0.44266  1.0000
  N   N6        1.0  0.53969  0.33727  0.43175  1.0000
  H   H90       1.0  0.49027  0.28795  0.43527  1.0000
  C   C57       1.0  0.19209  0.48855  0.31643  1.0000
  C   C58       1.0  0.18820  0.45444  0.31567  1.0000
  C   C59       1.0  0.18605  0.43795  0.29000  1.0000
  H   H91       1.0  0.45068  0.46075  0.35562  1.0000
  S   S26       1.0  0.38389  0.45307  0.31358  1.0000
  H   H92       1.0  0.22448  0.42170  0.36159  1.0000
  H   H93       1.0  0.29537  0.43448  0.38482  1.0000
  H   H94       1.0  0.52630  0.32272  0.47481  1.0000
  Fe  Fe12      1.0  0.43584  0.50126  0.46197  1.0000
  C   C60       1.0  0.24400  0.41943  0.46800  1.0000
  H   H95       1.0  0.11560  0.45318  0.29476  1.0000
  C   C61       1.0  0.49151  0.40008  0.49131  1.0000
  C   C62       1.0  0.29538  0.42038  0.48899  1.0000
  N   N7        1.0  0.07336  0.40718  0.27460  1.0000
  H   H96       1.0  0.47463  0.41918  0.29414  1.0000
  H   H97       1.0  0.50427  0.13005  0.47625  1.0000
  C   C63       1.0  0.49660  0.41503  0.29908  1.0000
  C   C64       1.0  0.26732  0.42755  0.49058  1.0000
  S   S27       1.0  0.51315  0.10593  0.41988  1.0000
  H   H98       1.0  0.54129  0.22778  0.44216  1.0000
  H   H99       1.0  0.23361  0.41587  0.32605  1.0000
  H   H100      1.0  0.50946  0.42792  0.38168  1.0000
  S   S28       1.0  0.47979  0.49628  0.48231  1.0000
  C   C65       1.0  0.30426  0.45160  0.32989  1.0000
  N   N8        1.0  0.46284  0.43276  0.38697  1.0000
  Fe  Fe13      1.0  0.44055  0.43777  0.48349  1.0000
  C   C66       1.0  0.29974  0.40466  0.46495  1.0000
  H   H101      1.0  0.48200  0.40377  0.41101  1.0000
  S   S29       1.0  0.39818  0.44235  0.46011  1.0000
  C   C67       1.0  0.48153  0.41209  0.38906  1.0000
  H   H102      1.0  0.41092  0.42513  0.39523  1.0000
  C   C68       1.0  0.51344  0.12966  0.39012  1.0000
  C   C69       1.0  0.51449  0.30083  0.42200  1.0000
  C   C70       1.0  0.09483  0.42523  0.29954  1.0000
  S   S30       1.0  0.19247  0.51175  0.48793  1.0000
  S   S31       1.0  0.14952  0.41579  0.45355  1.0000
  S   S32       1.0  0.53706  0.28935  0.29388  1.0000
  S   S33       1.0  0.45548  0.39633  0.47192  1.0000
  H   H103      1.0  0.26456  0.48232  0.32053  1.0000
  C   C71       1.0  0.29297  0.45795  0.37825  1.0000
  H   H104      1.0  0.22253  0.42515  0.46913  1.0000
  H   H105      1.0  0.27889  0.38292  0.42434  1.0000
  H   H106      1.0  0.27499  0.46037  0.39354  1.0000
  H   H107      1.0  0.48071  0.45696  0.42726  1.0000
  C   C72       1.0  0.42828  0.51331  0.34348  1.0000
  H   H108      1.0  0.51803  0.09434  0.36092  1.0000
  H   H109      1.0  0.53821  0.21970  0.26058  1.0000
  H   H110      1.0  0.52663  0.28340  0.42257  1.0000
  S   S34       1.0  0.53607  0.46924  0.26195  1.0000
  H   H111      1.0  0.29467  0.44809  0.30797  1.0000
  H   H112      1.0  0.47220  0.34348  0.49159  1.0000
  Fe  Fe14      1.0  0.38029  0.44994  0.50221  1.0000
  C   C73       1.0  0.52790  0.15641  0.48099  1.0000
  H   H113      1.0  0.51888  0.17220  0.49341  1.0000
  C   C74       1.0  0.19406  0.50622  0.29140  1.0000
  H   H114      1.0  0.05897  0.35463  0.28939  1.0000
  H   H115      1.0  0.50750  0.20283  0.37231  1.0000
  H   H116      1.0  0.50579  0.30111  0.40017  1.0000
  S   S35       1.0  0.19454  0.50968  0.34826  1.0000
  C   C75       1.0  0.51846  0.43343  0.50016  1.0000
  Fe  Fe15      1.0  0.53867  0.07232  0.41378  1.0000
  S   S36       1.0  0.53593  0.03698  0.37841  1.0000
  C   C76       1.0  0.05558  0.42668  0.26447  1.0000
  H   H117      1.0  0.54043  0.38692  0.43823  1.0000
  H   H118      1.0  0.07519  0.45469  0.25871  1.0000
  C   C77       1.0  0.45660  0.42768  0.60237  1.0000
  H   H119      1.0  0.51601  0.35002  0.67674  1.0000
  H   H120      1.0  0.50548  0.24156  0.68913  1.0000
  H   H121      1.0  0.12934  0.48682  0.57420  1.0000
  H   H122      1.0  0.07925  0.41669  0.60437  1.0000
  H   H123      1.0  0.43917  0.43137  0.58731  1.0000
  C   C78       1.0  0.53300  0.26234  0.69017  1.0000
  H   H124      1.0  0.09412  0.45447  0.52015  1.0000
  Fe  Fe16      1.0  0.47201  0.48488  0.75420  1.0000
  C   C79       1.0  0.09649  0.43631  0.53539  1.0000
  C   C80       1.0  0.53709  0.18199  0.72233  1.0000
  S   S37       1.0  0.48545  0.52760  0.56066  1.0000
  H   H125      1.0  0.47925  0.36610  0.70663  1.0000
  H   H126      1.0  0.09517  0.49260  0.55836  1.0000
  H   H127      1.0  0.07698  0.38782  0.57641  1.0000
  C   C81       1.0  0.08949  0.41613  0.58319  1.0000
  H   H128      1.0  0.52945  0.15844  0.70867  1.0000
  C   C82       1.0  0.19518  0.45906  0.51796  1.0000
  C   C83       1.0  0.19512  0.49134  0.51881  1.0000
  C   C84       1.0  0.40316  0.47363  0.61356  1.0000
  H   H129      1.0  0.51395  0.04630  0.54528  1.0000
  S   S38       1.0  0.41864  0.43902  0.52556  1.0000
  H   H130      1.0  0.51699  0.39577  0.72737  1.0000
  S   S39       1.0  0.47766  0.51923  0.71727  1.0000
  S   S40       1.0  0.20593  0.47332  0.67420  1.0000
  Fe  Fe17      1.0  0.10848  0.45127  0.66299  1.0000
  S   S41       1.0  0.12458  0.40950  0.66184  1.0000
  Fe  Fe18      1.0  0.15752  0.43779  0.69932  1.0000
  Fe  Fe19      1.0  0.17108  0.44942  0.63685  1.0000
  S   S42       1.0  0.18891  0.43169  0.59907  1.0000
  S   S43       1.0  0.13811  0.47696  0.70236  1.0000
  S   S44       1.0  0.15227  0.48918  0.63484  1.0000
  S   S45       1.0  0.39279  0.46611  0.66984  1.0000
  C   C85       1.0  0.10012  0.47535  0.57283  1.0000
  N   N9        1.0  0.51067  0.34344  0.72131  1.0000
  C   C86       1.0  0.31530  0.46709  0.61540  1.0000
  H   H131      1.0  0.32388  0.42684  0.57718  1.0000
  C   C87       1.0  0.41924  0.48355  0.63980  1.0000
  C   C88       1.0  0.45967  0.51139  0.59094  1.0000
  H   H132      1.0  0.49168  0.46367  0.55533  1.0000
  C   C89       1.0  0.45574  0.50731  0.64147  1.0000
  H   H133      1.0  0.53615  0.25921  0.73470  1.0000
  Fe  Fe20      1.0  0.45463  0.49812  0.52269  1.0000
  S   S46       1.0  0.52761  0.26919  0.63404  1.0000
  C   C90       1.0  0.52132  0.37200  0.51441  1.0000
  C   C91       1.0  0.19359  0.45608  0.56852  1.0000
  C   C92       1.0  0.19422  0.44134  0.54273  1.0000
  C   C93       1.0  0.19614  0.50693  0.54464  1.0000
  C   C94       1.0  0.19575  0.48946  0.56946  1.0000
  H   H134      1.0  0.19308  0.41575  0.54181  1.0000
  H   H135      1.0  0.30940  0.40211  0.60926  1.0000
  C   C95       1.0  0.47595  0.52108  0.61710  1.0000
  H   H136      1.0  0.23419  0.39290  0.60944  1.0000
  N   N10       1.0  0.48620  0.42685  0.58788  1.0000
  N   N11       1.0  0.08248  0.43796  0.56313  1.0000
  H   H137      1.0  0.12505  0.44434  0.53651  1.0000
  H   H138      1.0  0.33833  0.48295  0.60139  1.0000
  H   H139      1.0  0.29675  0.46207  0.56094  1.0000
  H   H140      1.0  0.49416  0.39746  0.62062  1.0000
  H   H141      1.0  0.46450  0.29819  0.73859  1.0000
  H   H142      1.0  0.19844  0.48294  0.74595  1.0000
  H   H143      1.0  0.25295  0.42484  0.56518  1.0000
  H   H144      1.0  0.30560  0.48510  0.62295  1.0000
  Fe  Fe21      1.0  0.41915  0.48378  0.71208  1.0000
  C   C96       1.0  0.49577  0.36742  0.72480  1.0000
  H   H145      1.0  0.32518  0.45895  0.63392  1.0000
  C   C97       1.0  0.25685  0.41578  0.62008  1.0000
  H   H146      1.0  0.24669  0.43307  0.62842  1.0000
  Fe  Fe22      1.0  0.18411  0.51070  0.67403  1.0000
  H   H147      1.0  0.37521  0.45468  0.61207  1.0000
  S   S47       1.0  0.15624  0.40644  0.73718  1.0000
  H   H148      1.0  0.28024  0.38902  0.57950  1.0000
  H   H149      1.0  0.53172  0.42175  0.59807  1.0000
  C   C98       1.0  0.30071  0.41235  0.59136  1.0000
  H   H150      1.0  0.06439  0.39688  0.69834  1.0000
  H   H151      1.0  0.26462  0.40516  0.63830  1.0000
  S   S48       1.0  0.40471  0.51680  0.73929  1.0000
  H   H152      1.0  0.53125  0.46197  0.56278  1.0000
  H   H153      1.0  0.46860  0.51492  0.66140  1.0000
  H   H154      1.0  0.26378  0.43968  0.50910  1.0000
  S   S49       1.0  0.05137  0.43555  0.65516  1.0000
  H   H155      1.0  0.45450  0.37074  0.57898  1.0000
  H   H156      1.0  0.19699  0.50182  0.58926  1.0000
  C   C99       1.0  0.42315  0.48788  0.58920  1.0000
  H   H157      1.0  0.43980  0.40256  0.61409  1.0000
  C   C100      1.0  0.50734  0.46059  0.57240  1.0000
  H   H158      1.0  0.26486  0.46597  0.58255  1.0000
  C   C101      1.0  0.27493  0.44780  0.57632  1.0000
  S   S50       1.0  0.53753  0.30463  0.55680  1.0000
  H   H159      1.0  0.49163  0.28726  0.71727  1.0000
  H   H160      1.0  0.41027  0.48057  0.56909  1.0000
  N   N12       1.0  0.28695  0.43575  0.60079  1.0000
  H   H161      1.0  0.11847  0.42613  0.58536  1.0000
  H   H162      1.0  0.51791  0.10576  0.51847  1.0000
  C   C102      1.0  0.50918  0.42262  0.60850  1.0000
  H   H163      1.0  0.46395  0.30219  0.70123  1.0000
  H   H164      1.0  0.53139  0.14728  0.53598  1.0000
  H   H165      1.0  0.51931  0.12158  0.75148  1.0000
  C   C103      1.0  0.47179  0.39653  0.56823  1.0000
  H   H166      1.0  0.51284  0.18405  0.72595  1.0000
  H   H167      1.0  0.45587  0.39969  0.55139  1.0000
  H   H168      1.0  0.49340  0.39414  0.55799  1.0000
  H   H169      1.0  0.52177  0.34817  0.52051  1.0000
  S   S51       1.0  0.41420  0.44659  0.74692  1.0000
  C   C104      1.0  0.53224  0.35308  0.69558  1.0000
  H   H170      1.0  0.06257  0.44222  0.74901  1.0000
  H   H171      1.0  0.08225  0.40887  0.52655  1.0000
  S   S52       1.0  0.32473  0.43105  0.51718  1.0000
  C   C105      1.0  0.48138  0.30614  0.71947  1.0000
  H   H172      1.0  0.51660  0.48425  0.58624  1.0000
  H   H173      1.0  0.46647  0.45003  0.61758  1.0000
  H   H174      1.0  0.47857  0.36016  0.74361  1.0000
  H   H175      1.0  0.52073  0.44524  0.62352  1.0000
  C   C106      1.0  0.04385  0.42414  0.56122  1.0000
  H   H176      1.0  0.09050  0.47746  0.59392  1.0000
  S   S53       1.0  0.53677  0.05562  0.60202  1.0000
  C   C107      1.0  0.53324  0.34702  0.74553  1.0000
  C   C108      1.0  0.54084  0.13289  0.52230  1.0000
  S   S54       1.0  0.51395  0.46947  0.76086  1.0000
  C   C109      1.0  0.51342  0.16536  0.85273  1.0000
  S   S55       1.0  0.51353  0.27375  0.85484  1.0000
  H   H177      1.0  0.47418  0.37131  0.86273  1.0000
  H   H178      1.0  0.08384  0.42654  0.83343  1.0000
  Fe  Fe23      1.0  0.51063  0.30296  0.81707  1.0000
  C   C110      1.0  0.53394  0.37331  0.88069  1.0000
  S   S56       1.0  0.46893  0.31942  0.81449  1.0000
  S   S57       1.0  0.39536  0.49167  0.99973  1.0000
  S   S58       1.0  0.50252  0.18105  0.82270  1.0000
  S   S59       1.0  0.51376  0.26501  0.78696  1.0000
  C   C111      1.0  0.24952  0.35645  0.98902  1.0000
  N   N13       1.0  0.26632  0.43288  0.85539  1.0000
  C   C112      1.0  0.46534  0.40505  0.78419  1.0000
  C   C113      1.0  0.04329  0.41871  0.96263  1.0000
  H   H179      1.0  0.50334  0.11603  0.83369  1.0000
  H   H180      1.0  0.53794  0.38251  0.80542  1.0000
  H   H181      1.0  0.11322  0.49110  0.79280  1.0000
  H   H182      1.0  0.54106  0.42444  0.91690  1.0000
  S   S60       1.0  0.46365  0.51962  0.78445  1.0000
  C   C114      1.0  0.06559  0.42985  0.81889  1.0000
  H   H183      1.0  0.35503  0.43419  0.86470  1.0000
  H   H184      1.0  0.44506  0.41132  0.77834  1.0000
  C   C115      1.0  0.51147  0.13200  0.85245  1.0000
  H   H185      1.0  0.45031  0.35639  0.89504  1.0000
  H   H186      1.0  0.50877  0.19570  0.98102  1.0000
  C   C116      1.0  0.48181  0.36294  0.80307  1.0000
  H   H187      1.0  0.09827  0.39808  0.79500  1.0000
  C   C117      1.0  0.51964  0.11903  0.87656  1.0000
  H   H188      1.0  0.52714  0.34557  0.87535  1.0000
  C   C118      1.0  0.50179  0.35388  0.92416  1.0000
  H   H189      1.0  0.46867  0.15374  0.98483  1.0000
  N   N14       1.0  0.50599  0.37376  0.89798  1.0000
  C   C119      1.0  0.17414  0.43229  0.76728  1.0000
  H   H190      1.0  0.53768  0.38790  0.86069  1.0000
  C   C120      1.0  0.41264  0.51889  0.84367  1.0000
  H   H191      1.0  0.27927  0.39546  0.87409  1.0000
  H   H192      1.0  0.52038  0.46548  0.00394  1.0000
  H   H193      1.0  0.19773  0.45948  0.99405  1.0000
  H   H194      1.0  0.49502  0.35744  0.98845  1.0000
  S   S61       1.0  0.19547  0.52407  0.98324  1.0000
  C   C121      1.0  0.49787  0.16633  0.98209  1.0000
  C   C122      1.0  0.23202  0.41881  0.87006  1.0000
  H   H195      1.0  0.06398  0.45347  0.82614  1.0000
  H   H196      1.0  0.52532  0.21162  0.87732  1.0000
  S   S62       1.0  0.14391  0.41286  0.89040  1.0000
  Fe  Fe24      1.0  0.11166  0.42883  0.91693  1.0000
  H   H197      1.0  0.12516  0.46948  0.76638  1.0000
  C   C123      1.0  0.49892  0.11744  0.00568  1.0000
  H   H198      1.0  0.53805  0.21289  0.77081  1.0000
  H   H199      1.0  0.28673  0.48442  0.87442  1.0000
  H   H200      1.0  0.17329  0.42174  0.83760  1.0000
  Fe  Fe25      1.0  0.40604  0.48374  0.77483  1.0000
  C   C124      1.0  0.41584  0.51276  0.89394  1.0000
  H   H201      1.0  0.50381  0.10739  0.98574  1.0000
  Fe  Fe26      1.0  0.17633  0.48340  0.94871  1.0000
  Fe  Fe27      1.0  0.18276  0.47122  0.88716  1.0000
  S   S63       1.0  0.21109  0.49819  0.84727  1.0000
  Fe  Fe28      1.0  0.17289  0.41550  0.92976  1.0000
  C   C125      1.0  0.27573  0.40446  0.85314  1.0000
  S   S64       1.0  0.14834  0.48757  0.91064  1.0000
  S   S65       1.0  0.21439  0.47276  0.92469  1.0000
  C   C126      1.0  0.22218  0.37981  0.95756  1.0000
  C   C127      1.0  0.22038  0.35171  0.97333  1.0000
  C   C128      1.0  0.51148  0.38296  0.99831  1.0000
  C   C129      1.0  0.38629  0.48301  0.84178  1.0000
  C   C130      1.0  0.05350  0.43867  0.77113  1.0000
  H   H202      1.0  0.19618  0.32614  0.97356  1.0000
  S   S66       1.0  0.46798  0.40369  0.97345  1.0000
  Fe  Fe29      1.0  0.42535  0.49298  0.96115  1.0000
  C   C131      1.0  0.52897  0.13910  0.90112  1.0000
  N   N15       1.0  0.07825  0.43432  0.78974  1.0000
  H   H203      1.0  0.25537  0.43460  0.94492  1.0000
  C   C132      1.0  0.20529  0.48963  0.79060  1.0000
  C   C133      1.0  0.19748  0.47252  0.81663  1.0000
  C   C134      1.0  0.17892  0.43526  0.81781  1.0000
  C   C135      1.0  0.16782  0.41521  0.79320  1.0000
  C   C136      1.0  0.37489  0.46206  0.86599  1.0000
  H   H204      1.0  0.49518  0.41228  0.91724  1.0000
  H   H205      1.0  0.28868  0.45455  0.81518  1.0000
  C   C137      1.0  0.29401  0.46332  0.87124  1.0000
  C   C138      1.0  0.52379  0.18587  0.87704  1.0000
  H   H206      1.0  0.15339  0.38636  0.79426  1.0000
  S   S67       1.0  0.36587  0.46467  0.80963  1.0000
  C   C139      1.0  0.53118  0.17256  0.90128  1.0000
  S   S68       1.0  0.13682  0.42574  0.95693  1.0000
  H   H207      1.0  0.42799  0.35238  0.79923  1.0000
  Fe  Fe30      1.0  0.37240  0.43249  0.99704  1.0000
  H   H208      1.0  0.21043  0.39546  0.85903  1.0000
  C   C140      1.0  0.50106  0.42960  0.77907  1.0000
  H   H209      1.0  0.31983  0.47581  0.86002  1.0000
  H   H210      1.0  0.05128  0.46242  0.77688  1.0000
  S   S69       1.0  0.47230  0.49774  0.98473  1.0000
  H   H211      1.0  0.30806  0.44254  0.97187  1.0000
  C   C141      1.0  0.50418  0.41083  0.99433  1.0000
  S   S70       1.0  0.39872  0.43340  0.95662  1.0000
  H   H212      1.0  0.22389  0.43943  0.87170  1.0000
  H   H213      1.0  0.25480  0.38073  0.84200  1.0000
  H   H214      1.0  0.29823  0.45485  0.89220  1.0000
  C   C142      1.0  0.45574  0.37172  0.79613  1.0000
  C   C143      1.0  0.26354  0.44504  0.82712  1.0000
  C   C144      1.0  0.28359  0.41725  0.97230  1.0000
  H   H215      1.0  0.50135  0.14660  0.76811  1.0000
  H   H216      1.0  0.49442  0.32568  0.91996  1.0000
  C   C145      1.0  0.52714  0.42139  0.78715  1.0000
  H   H217      1.0  0.50265  0.15759  0.96149  1.0000
  H   H218      1.0  0.37991  0.46075  0.91054  1.0000
  C   C146      1.0  0.25375  0.41283  0.95719  1.0000
  H   H219      1.0  0.24190  0.42320  0.81486  1.0000
  C   C147      1.0  0.11382  0.46629  0.78772  1.0000
  S   S71       1.0  0.05249  0.40118  0.90930  1.0000
  Fe  Fe31      1.0  0.52344  0.24007  0.82450  1.0000
  H   H220      1.0  0.25794  0.46751  0.82807  1.0000
  H   H221      1.0  0.52679  0.36614  0.93653  1.0000
  H   H222      1.0  0.30085  0.41382  0.84126  1.0000
  H   H223      1.0  0.48073  0.35361  0.93760  1.0000
  Fe  Fe32      1.0  0.44342  0.43793  0.98314  1.0000
  C   C148      1.0  0.51756  0.38835  0.79942  1.0000
  H   H224      1.0  0.07104  0.43889  0.96196  1.0000
  H   H225      1.0  0.23345  0.40993  0.89162  1.0000
  H   H226      1.0  0.51991  0.42696  0.88531  1.0000
  C   C149      1.0  0.51605  0.41103  0.90460  1.0000
  S   S72       1.0  0.18491  0.37145  0.93752  1.0000
  C   C150      1.0  0.38944  0.47696  0.89200  1.0000
  H   H227      1.0  0.09051  0.40522  0.75948  1.0000
  C   C151      1.0  0.28130  0.38893  0.98829  1.0000
  C   C152      1.0  0.08023  0.40249  0.78119  1.0000
  H   H228      1.0  0.51728  0.33752  0.76498  1.0000
  N   N16       1.0  0.51433  0.15661  0.00497  1.0000
  C   C153      1.0  0.52627  0.14607  0.76376  1.0000
  H   H229      1.0  0.51756  0.09305  0.87638  1.0000
  H   H230      1.0  0.13264  0.46458  0.80248  1.0000
  C   C154      1.0  0.47208  0.35680  0.88250  1.0000
  H   H231      1.0  0.05377  0.37791  0.78203  1.0000
  C   C155      1.0  0.19319  0.46956  0.76594  1.0000
  H   H232      1.0  0.24756  0.33459  0.00143  1.0000
  H   H233      1.0  0.46384  0.32876  0.87676  1.0000
  H   H234      1.0  0.21984  0.51848  0.78950  1.0000
  C   C156      1.0  0.52550  0.44368  0.00731  1.0000
  H   H235      1.0  0.53876  0.18830  0.92010  1.0000
  S   S73       1.0  0.53653  0.12228  0.93213  1.0000
  H   H236      1.0  0.53665  0.14326  0.78429  1.0000
  H   H237      1.0  0.43829  0.64187  0.13925  1.0000
  C   C157      1.0  0.49707  0.94198  0.04728  1.0000
  H   H238      1.0  0.26598  0.60289  0.08004  1.0000
  H   H239      1.0  0.49474  0.66735  0.16605  1.0000
  H   H240      1.0  0.49413  0.77202  0.23653  1.0000
  H   H241      1.0  0.51200  0.86326  0.25368  1.0000
  C   C158      1.0  0.25004  0.59628  0.12311  1.0000
  H   H242      1.0  0.45734  0.77576  0.19775  1.0000
  H   H243      1.0  0.34733  0.62279  0.25552  1.0000
  H   H244      1.0  0.51996  0.00621  0.07189  1.0000
  H   H245      1.0  0.40953  0.59440  0.13802  1.0000
  H   H246      1.0  0.30976  0.61739  0.03187  1.0000
  H   H247      1.0  0.20554  0.54837  0.04008  1.0000
  H   H248      1.0  0.50118  0.60747  0.13727  1.0000
  C   C159      1.0  0.48447  0.64095  0.17646  1.0000
  C   C160      1.0  0.47292  0.80524  0.20006  1.0000
  H   H249      1.0  0.49596  0.81496  0.18564  1.0000
  C   C161      1.0  0.25557  0.61260  0.14919  1.0000
  S   S74       1.0  0.32317  0.67482  0.07435  1.0000
  C   C162      1.0  0.43700  0.70452  0.18828  1.0000
  S   S75       1.0  0.49147  0.59661  0.23630  1.0000
  C   C163      1.0  0.28278  0.64798  0.15251  1.0000
  H   H250      1.0  0.48083  0.92370  0.06446  1.0000
  C   C164      1.0  0.32760  0.59903  0.24369  1.0000
  H   H251      1.0  0.47132  0.64175  0.19615  1.0000
  S   S76       1.0  0.22849  0.58910  0.17768  1.0000
  H   H252      1.0  0.28696  0.66093  0.17253  1.0000
  H   H253      1.0  0.46017  0.58912  0.11833  1.0000
  H   H254      1.0  0.26431  0.60616  0.02892  1.0000
  Fe  Fe33      1.0  0.37946  0.71555  0.08494  1.0000
  S   S77       1.0  0.41667  0.69378  0.08534  1.0000
  H   H255      1.0  0.48720  0.86645  0.22472  1.0000
  N   N17       1.0  0.45961  0.61144  0.15830  1.0000
  Fe  Fe34      1.0  0.19417  0.53053  0.16905  1.0000
  H   H256      1.0  0.49731  0.92495  0.03002  1.0000
  C   C165      1.0  0.42936  0.61661  0.15111  1.0000
  H   H257      1.0  0.22932  0.56901  0.12042  1.0000
  H   H258      1.0  0.43440  0.81007  0.24187  1.0000
  C   C166      1.0  0.27089  0.61554  0.10022  1.0000
  C   C167      1.0  0.44656  0.57712  0.17317  1.0000
  H   H259      1.0  0.48829  0.63670  0.12078  1.0000
  C   C168      1.0  0.30438  0.66695  0.12978  1.0000
  H   H260      1.0  0.46880  0.57244  0.17882  1.0000
  C   C169      1.0  0.47811  0.61117  0.13251  1.0000
  C   C170      1.0  0.29810  0.65089  0.10350  1.0000
  C   C171      1.0  0.45096  0.70091  0.21361  1.0000
  H   H261      1.0  0.42753  0.55414  0.16027  1.0000
  H   H262      1.0  0.41567  0.61833  0.17017  1.0000
  H   H263      1.0  0.53175  0.81200  0.22388  1.0000
  N   N18       1.0  0.29212  0.59586  0.24439  1.0000
  H   H264      1.0  0.32508  0.69435  0.13237  1.0000
  C   C172      1.0  0.45302  0.80047  0.24773  1.0000
  H   H265      1.0  0.48636  0.54301  0.11821  1.0000
  H   H266      1.0  0.45594  0.81617  0.19261  1.0000
  C   C173      1.0  0.29377  0.62741  0.23081  1.0000
  H   H267      1.0  0.28308  0.66656  0.01334  1.0000
  C   C174      1.0  0.43259  0.69690  0.23861  1.0000
  H   H268      1.0  0.31203  0.65242  0.24206  1.0000
  H   H269      1.0  0.36068  0.69868  0.21254  1.0000
  C   C175      1.0  0.38562  0.69877  0.21293  1.0000
  C   C176      1.0  0.50379  0.85486  0.23169  1.0000
  C   C177      1.0  0.40038  0.69683  0.23839  1.0000
  S   S78       1.0  0.41183  0.75980  0.05490  1.0000
  H   H270      1.0  0.43798  0.77082  0.24673  1.0000
  H   H271      1.0  0.39238  0.70417  0.16838  1.0000
  S   S79       1.0  0.40271  0.74994  0.12293  1.0000
  Fe  Fe35      1.0  0.45067  0.74014  0.05778  1.0000
  H   H272      1.0  0.46515  0.91681  0.11516  1.0000
  H   H273      1.0  0.30320  0.63030  0.20887  1.0000
  Fe  Fe36      1.0  0.43920  0.79227  0.09275  1.0000
  N   N19       1.0  0.48443  0.81556  0.22925  1.0000
  H   H274      1.0  0.44346  0.69394  0.25805  1.0000
  S   S80       1.0  0.48108  0.77630  0.09331  1.0000
  H   H275      1.0  0.47647  0.70219  0.21402  1.0000
  H   H276      1.0  0.26720  0.62540  0.23011  1.0000
  C   C178      1.0  0.52158  0.88674  0.15769  1.0000
  C   C179      1.0  0.47846  0.87546  0.12123  1.0000
  S   S81       1.0  0.45156  0.84961  0.09353  1.0000
  H   H277      1.0  0.49664  0.83898  0.13256  1.0000
  H   H278      1.0  0.27430  0.56432  0.20705  1.0000
  S   S82       1.0  0.46255  0.71393  0.15783  1.0000
  H   H279      1.0  0.43308  0.57665  0.19305  1.0000
  C   C180      1.0  0.40383  0.70242  0.18788  1.0000
  C   C181      1.0  0.48124  0.90859  0.12675  1.0000
  Fe  Fe37      1.0  0.44274  0.73142  0.12087  1.0000
  C   C182      1.0  0.50464  0.93108  0.14730  1.0000
  H   H280      1.0  0.50758  0.63792  0.18255  1.0000
  C   C183      1.0  0.49844  0.86438  0.13690  1.0000
  H   H281      1.0  0.23956  0.56027  0.22936  1.0000
  H   H282      1.0  0.49276  0.66309  0.24265  1.0000
  H   H283      1.0  0.50661  0.95660  0.15143  1.0000
  H   H284      1.0  0.33766  0.60201  0.22194  1.0000
  H   H285      1.0  0.51557  0.97365  0.09717  1.0000
  C   C184      1.0  0.50805  0.80167  0.23765  1.0000
  H   H286      1.0  0.32894  0.67899  0.01426  1.0000
  H   H287      1.0  0.26447  0.53881  0.23884  1.0000
  H   H288      1.0  0.52827  0.86717  0.21870  1.0000
  C   C185      1.0  0.52483  0.92018  0.16282  1.0000
  C   C186      1.0  0.28690  0.60719  0.01717  1.0000
  C   C187      1.0  0.26656  0.56331  0.22933  1.0000
  H   H289      1.0  0.48306  0.95604  0.03966  1.0000
  H   H290      1.0  0.53663  0.98774  0.23492  1.0000
  S   S83       1.0  0.47649  0.73263  0.01957  1.0000
  H   H291      1.0  0.32717  0.57524  0.25307  1.0000
  H   H292      1.0  0.52745  0.93061  0.25277  1.0000
  Fe  Fe38      1.0  0.47377  0.53900  0.24504  1.0000
  H   H293      1.0  0.27912  0.57926  0.01146  1.0000
  C   C188      1.0  0.53602  0.99594  0.25685  1.0000
  H   H294      1.0  0.53780  0.87860  0.16916  1.0000
  N   N20       1.0  0.53342  0.96749  0.05677  1.0000
  C   C189      1.0  0.53178  0.98993  0.07928  1.0000
  H   H295      1.0  0.53542  0.92992  0.08522  1.0000
  H   H296      1.0  0.40429  0.71721  0.01035  1.0000
  C   C190      1.0  0.52773  0.93011  0.36854  1.0000
  H   H297      1.0  0.49721  0.69750  0.43217  1.0000
  H   H298      1.0  0.40244  0.78005  0.44204  1.0000
  H   H299      1.0  0.47787  0.88321  0.47290  1.0000
  S   S84       1.0  0.44721  0.53802  0.42519  1.0000
  C   C191      1.0  0.49546  0.65417  0.26308  1.0000
  H   H300      1.0  0.49901  0.69984  0.28392  1.0000
  H   H301      1.0  0.44703  0.63472  0.37410  1.0000
  N   N21       1.0  0.46156  0.64439  0.41746  1.0000
  H   H302      1.0  0.40615  0.61741  0.42792  1.0000
  C   C192      1.0  0.41344  0.82626  0.48294  1.0000
  C   C193      1.0  0.49976  0.61101  0.29263  1.0000
  H   H303      1.0  0.19690  0.53257  0.29189  1.0000
  H   H304      1.0  0.44793  0.87879  0.44549  1.0000
  H   H305      1.0  0.42134  0.65840  0.40893  1.0000
  H   H306      1.0  0.27084  0.61540  0.49472  1.0000
  C   C194      1.0  0.42889  0.64491  0.42522  1.0000
  H   H307      1.0  0.47817  0.64394  0.45972  1.0000
  H   H308      1.0  0.43239  0.65945  0.44515  1.0000
  C   C195      1.0  0.49881  0.67495  0.28650  1.0000
  C   C196      1.0  0.50323  0.66415  0.31299  1.0000
  C   C197      1.0  0.45525  0.62344  0.39161  1.0000
  H   H309      1.0  0.29235  0.57966  0.47019  1.0000
  H   H310      1.0  0.48337  0.86986  0.43872  1.0000
  C   C198      1.0  0.47151  0.62793  0.44022  1.0000
  H   H311      1.0  0.47970  0.62341  0.38468  1.0000
  C   C199      1.0  0.45011  0.72594  0.49062  1.0000
  H   H312      1.0  0.52038  0.98185  0.31188  1.0000
  H   H313      1.0  0.44950  0.60068  0.44523  1.0000
  H   H314      1.0  0.43433  0.59509  0.39460  1.0000
  H   H315      1.0  0.46586  0.55798  0.36794  1.0000
  C   C200      1.0  0.44232  0.53189  0.36846  1.0000
  C   C201      1.0  0.49061  0.68130  0.41281  1.0000
  C   C202      1.0  0.50395  0.63226  0.31603  1.0000
  C   C203      1.0  0.46126  0.81434  0.47412  1.0000
  S   S85       1.0  0.41923  0.68715  0.34176  1.0000
  H   H316      1.0  0.49939  0.93056  0.28042  1.0000
  H   H317      1.0  0.49489  0.62523  0.43439  1.0000
  H   H318      1.0  0.26744  0.54207  0.49253  1.0000
  H   H319      1.0  0.25407  0.59193  0.27487  1.0000
  H   H320      1.0  0.44012  0.80889  0.42107  1.0000
  H   H321      1.0  0.47655  0.82972  0.49268  1.0000
  S   S86       1.0  0.50795  0.69039  0.34233  1.0000
  H   H322      1.0  0.27843  0.57000  0.28450  1.0000
  S   S87       1.0  0.41720  0.76142  0.33277  1.0000
  S   S88       1.0  0.50982  0.84749  0.31812  1.0000
  S   S89       1.0  0.49163  0.94039  0.41149  1.0000
  C   C204      1.0  0.47042  0.88017  0.38072  1.0000
  S   S90       1.0  0.47604  0.74887  0.29872  1.0000
  C   C205      1.0  0.45202  0.73321  0.44025  1.0000
  Fe  Fe39      1.0  0.42516  0.73227  0.36851  1.0000
  C   C206      1.0  0.41357  0.71333  0.49024  1.0000
  C   C207      1.0  0.41563  0.72110  0.43982  1.0000
  S   S91       1.0  0.37917  0.69610  0.26976  1.0000
  H   H323      1.0  0.50768  0.62391  0.33642  1.0000
  H   H324      1.0  0.44634  0.86907  0.39291  1.0000
  S   S92       1.0  0.48456  0.76322  0.36630  1.0000
  H   H325      1.0  0.40553  0.81944  0.42684  1.0000
  H   H326      1.0  0.53727  0.92605  0.28846  1.0000
  Fe  Fe40      1.0  0.47638  0.78896  0.32842  1.0000
  H   H327      1.0  0.48044  0.81449  0.45863  1.0000
  C   C208      1.0  0.46919  0.73547  0.46557  1.0000
  H   H328      1.0  0.36823  0.70177  0.46462  1.0000
  Fe  Fe41      1.0  0.41733  0.71919  0.30572  1.0000
  H   H329      1.0  0.46711  0.74121  0.42120  1.0000
  H   H330      1.0  0.29956  0.61793  0.28561  1.0000
  C   C209      1.0  0.50510  0.87360  0.34401  1.0000
  C   C210      1.0  0.49705  0.91555  0.38495  1.0000
  N   N22       1.0  0.43980  0.82899  0.46214  1.0000
  H   H331      1.0  0.50055  0.58661  0.29510  1.0000
  C   C211      1.0  0.47458  0.85914  0.36054  1.0000
  H   H332      1.0  0.45386  0.83189  0.35750  1.0000
  Fe  Fe42      1.0  0.47814  0.72005  0.33692  1.0000
  C   C212      1.0  0.39639  0.71097  0.46485  1.0000
  H   H333      1.0  0.49751  0.74548  0.46586  1.0000
  H   H334      1.0  0.42650  0.84119  0.50232  1.0000
  S   S93       1.0  0.39378  0.71955  0.40856  1.0000
  C   C213      1.0  0.29314  0.56741  0.49044  1.0000
  H   H335      1.0  0.46072  0.80785  0.26994  1.0000
  C   C214      1.0  0.42120  0.80851  0.43695  1.0000
  H   H336      1.0  0.31439  0.56021  0.48920  1.0000
  H   H337      1.0  0.39683  0.83718  0.47459  1.0000
  C   C215      1.0  0.52740  0.93981  0.27444  1.0000
  C   C216      1.0  0.46326  0.86679  0.45455  1.0000
  C   C217      1.0  0.28054  0.59379  0.27365  1.0000
  H   H338      1.0  0.44414  0.78632  0.48103  1.0000
  H   H339      1.0  0.48338  0.69504  0.39659  1.0000
  H   H340      1.0  0.51521  0.68183  0.40547  1.0000
  Fe  Fe43      1.0  0.53192  0.99892  0.41204  1.0000
  C   C218      1.0  0.53170  0.90913  0.34802  1.0000
  H   H341      1.0  0.33561  0.63857  0.49119  1.0000
  H   H342      1.0  0.39524  0.79797  0.48905  1.0000
  C   C219      1.0  0.49569  0.62204  0.26609  1.0000
  H   H343      1.0  0.50822  0.98872  0.26180  1.0000
  H   H344      1.0  0.51770  0.80953  0.25945  1.0000
  H   H345      1.0  0.44693  0.76724  0.69705  1.0000
  H   H346      1.0  0.46455  0.58041  0.61880  1.0000
  H   H347      1.0  0.50070  0.94608  0.59059  1.0000
  C   C220      1.0  0.24941  0.59245  0.65415  1.0000
  S   S94       1.0  0.41253  0.68225  0.58666  1.0000
  S   S95       1.0  0.22310  0.56827  0.68283  1.0000
  H   H348      1.0  0.53937  0.98756  0.59904  1.0000
  S   S96       1.0  0.31587  0.65846  0.57992  1.0000
  H   H349      1.0  0.33880  0.64343  0.52837  1.0000
  C   C221      1.0  0.52351  0.87919  0.65470  1.0000
  H   H350      1.0  0.44040  0.84848  0.68506  1.0000
  H   H351      1.0  0.29023  0.63297  0.67978  1.0000
  C   C222      1.0  0.45411  0.79509  0.69195  1.0000
  C   C223      1.0  0.43591  0.61604  0.64276  1.0000
  C   C224      1.0  0.45650  0.80969  0.74078  1.0000
  C   C225      1.0  0.29097  0.63305  0.60871  1.0000
  C   C226      1.0  0.44662  0.57766  0.67304  1.0000
  C   C227      1.0  0.30254  0.64401  0.63602  1.0000
  H   H352      1.0  0.49891  0.67951  0.74740  1.0000
  C   C228      1.0  0.40185  0.78848  0.71505  1.0000
  H   H353      1.0  0.50358  0.90611  0.55569  1.0000
  H   H354      1.0  0.42155  0.62188  0.65932  1.0000
  H   H355      1.0  0.27170  0.54909  0.54364  1.0000
  N   N23       1.0  0.46348  0.60947  0.65480  1.0000
  H   H356      1.0  0.49642  0.62719  0.61819  1.0000
  C   C229      1.0  0.23831  0.58104  0.62682  1.0000
  H   H357      1.0  0.38779  0.62130  0.73292  1.0000
  H   H358      1.0  0.39317  0.76048  0.72123  1.0000
  H   H359      1.0  0.48063  0.86439  0.70467  1.0000
  H   H360      1.0  0.44683  0.82043  0.75762  1.0000
  H   H361      1.0  0.24953  0.59297  0.58313  1.0000
  C   C230      1.0  0.25882  0.60150  0.60416  1.0000
  H   H362      1.0  0.21344  0.55703  0.62314  1.0000
  H   H363      1.0  0.47490  0.64635  0.68861  1.0000
  C   C231      1.0  0.48282  0.60342  0.63205  1.0000
  C   C232      1.0  0.28158  0.62398  0.65869  1.0000
  H   H364      1.0  0.50340  0.59769  0.64042  1.0000
  H   H365      1.0  0.36135  0.68841  0.71728  1.0000
  H   H366      1.0  0.42747  0.55339  0.66138  1.0000
  C   C233      1.0  0.44395  0.71182  0.74077  1.0000
  H   H367      1.0  0.32717  0.66832  0.63975  1.0000
  S   S97       1.0  0.48473  0.60842  0.73944  1.0000
  H   H368      1.0  0.38797  0.68377  0.67291  1.0000
  C   C234      1.0  0.48862  0.64078  0.67135  1.0000
  C   C235      1.0  0.38861  0.69411  0.71693  1.0000
  H   H369      1.0  0.50194  0.66534  0.65830  1.0000
  H   H370      1.0  0.50956  0.63660  0.68109  1.0000
  H   H371      1.0  0.44774  0.63950  0.62845  1.0000
  Fe  Fe44      1.0  0.46308  0.54994  0.74665  1.0000
  C   C236      1.0  0.50199  0.92090  0.64968  1.0000
  Fe  Fe45      1.0  0.44356  0.73142  0.56081  1.0000
  S   S98       1.0  0.40148  0.74691  0.56051  1.0000
  S   S99       1.0  0.46016  0.70260  0.65920  1.0000
  Fe  Fe46      1.0  0.43734  0.71823  0.62333  1.0000
  S   S100      1.0  0.39456  0.73255  0.62831  1.0000
  Fe  Fe47      1.0  0.37224  0.70015  0.58934  1.0000
  H   H372      1.0  0.19647  0.53212  0.54552  1.0000
  H   H373      1.0  0.45428  0.90236  0.62533  1.0000
  H   H374      1.0  0.49352  0.82903  0.63319  1.0000
  H   H375      1.0  0.44933  0.78207  0.74702  1.0000
  H   H376      1.0  0.43209  0.58149  0.69057  1.0000
  C   C237      1.0  0.45126  0.84724  0.70584  1.0000
  H   H377      1.0  0.39084  0.79921  0.73083  1.0000
  H   H378      1.0  0.27396  0.61930  0.53205  1.0000
  C   C238      1.0  0.40907  0.70533  0.74128  1.0000
  C   C239      1.0  0.45901  0.70924  0.71564  1.0000
  C   C240      1.0  0.47373  0.89592  0.63336  1.0000
  C   C241      1.0  0.47065  0.86281  0.62717  1.0000
  H   H379      1.0  0.38925  0.78755  0.69459  1.0000
  S   S101      1.0  0.47280  0.76613  0.59729  1.0000
  Fe  Fe48      1.0  0.42810  0.77783  0.59931  1.0000
  C   C242      1.0  0.43926  0.70030  0.69096  1.0000
  S   S102      1.0  0.43591  0.83310  0.60546  1.0000
  N   N24       1.0  0.44094  0.81014  0.71343  1.0000
  H   H380      1.0  0.41603  0.59268  0.63066  1.0000
  C   C243      1.0  0.49557  0.85443  0.63793  1.0000
  H   H381      1.0  0.48351  0.81072  0.69003  1.0000
  C   C244      1.0  0.27073  0.60139  0.51425  1.0000
  H   H382      1.0  0.48650  0.71576  0.71509  1.0000
  H   H383      1.0  0.44134  0.85933  0.72133  1.0000
  H   H384      1.0  0.46677  0.57209  0.68253  1.0000
  C   C245      1.0  0.40372  0.69173  0.69175  1.0000
  H   H385      1.0  0.44265  0.79466  0.67106  1.0000
  H   H386      1.0  0.48598  0.82574  0.74035  1.0000
  H   H387      1.0  0.50420  0.94643  0.65413  1.0000
  H   H388      1.0  0.30252  0.59119  0.55877  1.0000
  H   H389      1.0  0.41037  0.59626  0.73847  1.0000
  S   S103      1.0  0.47293  0.73175  0.52207  1.0000
  H   H390      1.0  0.53589  0.91431  0.59909  1.0000
  H   H391      1.0  0.24398  0.57738  0.51612  1.0000
  C   C246      1.0  0.52698  0.91261  0.66038  1.0000
  C   C247      1.0  0.29791  0.57353  0.54051  1.0000
  H   H392      1.0  0.33340  0.57089  0.75368  1.0000
  C   C248      1.0  0.40335  0.61526  0.74827  1.0000
  H   H393      1.0  0.31859  0.56552  0.54100  1.0000
  H   H394      1.0  0.42864  0.64048  0.75195  1.0000
  H   H395      1.0  0.51752  0.98251  0.56634  1.0000
  H   H396      1.0  0.50426  0.53908  0.61853  1.0000
  C   C249      1.0  0.33385  0.62437  0.51104  1.0000
  C   C250      1.0  0.52543  0.96846  0.58178  1.0000
  N   N25       1.0  0.29892  0.59168  0.51406  1.0000
  S   S104      1.0  0.53693  0.01876  0.67683  1.0000
  C   C251      1.0  0.52781  0.92948  0.54696  1.0000
  H   H397      1.0  0.51914  0.94160  0.53038  1.0000
  H   H398      1.0  0.35590  0.61827  0.51129  1.0000
  H   H399      1.0  0.39869  0.70584  0.50952  1.0000
  H   H400      1.0  0.50511  0.63139  0.83986  1.0000
  C   C252      1.0  0.48894  0.81583  0.98269  1.0000
  C   C253      1.0  0.47573  0.86221  0.97041  1.0000
  H   H401      1.0  0.44502  0.60251  0.90491  1.0000
  S   S105      1.0  0.51025  0.95362  0.92908  1.0000
  H   H402      1.0  0.49381  0.59455  0.79745  1.0000
  H   H403      1.0  0.46679  0.64397  0.95929  1.0000
  H   H404      1.0  0.43351  0.79656  0.94865  1.0000
  H   H405      1.0  0.44798  0.56135  0.87092  1.0000
  C   C254      1.0  0.49506  0.63442  0.76965  1.0000
  C   C255      1.0  0.46010  0.81306  0.93895  1.0000
  H   H406      1.0  0.46796  0.79446  0.92965  1.0000
  H   H407      1.0  0.50371  0.63727  0.96644  1.0000
  H   H408      1.0  0.36005  0.61721  0.80669  1.0000
  H   H409      1.0  0.47380  0.87882  0.95345  1.0000
  H   H410      1.0  0.33305  0.64839  0.95838  1.0000
  C   C256      1.0  0.49704  0.62093  0.79574  1.0000
  C   C257      1.0  0.51581  0.94398  0.79153  1.0000
  H   H411      1.0  0.31006  0.68451  0.98259  1.0000
  H   H412      1.0  0.46274  0.79922  0.99299  1.0000
  H   H413      1.0  0.42143  0.53532  0.82514  1.0000
  C   C258      1.0  0.50719  0.67590  0.81769  1.0000
  C   C259      1.0  0.51421  0.62377  0.91368  1.0000
  H   H414      1.0  0.49518  0.88086  0.98584  1.0000
  H   H415      1.0  0.53040  0.83905  0.93701  1.0000
  N   N26       1.0  0.49453  0.64173  0.92287  1.0000
  N   N27       1.0  0.38356  0.60080  0.77458  1.0000
  H   H416      1.0  0.44935  0.84775  0.98081  1.0000
  C   C260      1.0  0.40573  0.59429  0.79450  1.0000
  H   H417      1.0  0.39905  0.65283  0.79084  1.0000
  C   C261      1.0  0.26453  0.61558  0.97340  1.0000
  H   H418      1.0  0.49708  0.59425  0.91396  1.0000
  H   H419      1.0  0.25755  0.58849  0.96586  1.0000
  S   S106      1.0  0.39127  0.71349  0.77140  1.0000
  H   H420      1.0  0.42999  0.61964  0.80023  1.0000
  H   H421      1.0  0.52083  0.87363  0.92804  1.0000
  S   S107      1.0  0.42590  0.70007  0.84286  1.0000
  H   H422      1.0  0.24061  0.61292  0.98416  1.0000
  S   S108      1.0  0.51261  0.70105  0.84780  1.0000
  H   H423      1.0  0.46323  0.60127  0.95304  1.0000
  H   H424      1.0  0.50392  0.69533  0.92668  1.0000
  C   C262      1.0  0.42738  0.53373  0.86969  1.0000
  H   H425      1.0  0.45689  0.82809  0.92143  1.0000
  H   H426      1.0  0.35793  0.63251  0.77222  1.0000
  H   H427      1.0  0.33472  0.55557  0.78827  1.0000
  C   C263      1.0  0.50539  0.68931  0.79158  1.0000
  H   H428      1.0  0.51108  0.92749  0.81067  1.0000
  Fe  Fe49      1.0  0.42793  0.73592  0.80831  1.0000
  C   C264      1.0  0.50352  0.64185  0.81975  1.0000
  N   N28       1.0  0.48660  0.83712  0.95944  1.0000
  H   H429      1.0  0.47272  0.63883  0.88206  1.0000
  Fe  Fe50      1.0  0.42899  0.74220  0.87155  1.0000
  S   S109      1.0  0.48720  0.76572  0.80511  1.0000
  C   C265      1.0  0.45081  0.72375  0.98926  1.0000
  S   S110      1.0  0.48839  0.77281  0.87361  1.0000
  H   H430      1.0  0.37361  0.71757  0.96698  1.0000
  H   H431      1.0  0.46242  0.84946  0.86772  1.0000
  S   S111      1.0  0.42517  0.77548  0.83705  1.0000
  H   H432      1.0  0.45962  0.72379  0.91866  1.0000
  Fe  Fe51      1.0  0.48507  0.73289  0.84217  1.0000
  C   C266      1.0  0.44768  0.72272  0.93863  1.0000
  H   H433      1.0  0.49218  0.72765  0.96236  1.0000
  C   C267      1.0  0.48302  0.89587  0.89425  1.0000
  H   H434      1.0  0.26964  0.63277  0.95469  1.0000
  C   C268      1.0  0.30478  0.66668  0.00089  1.0000
  H   H435      1.0  0.53055  0.68974  0.90098  1.0000
  C   C269      1.0  0.48534  0.87477  0.87303  1.0000
  H   H436      1.0  0.45827  0.88675  0.90530  1.0000
  Fe  Fe52      1.0  0.48456  0.80264  0.83660  1.0000
  C   C270      1.0  0.41483  0.72131  0.93996  1.0000
  C   C271      1.0  0.51253  0.92885  0.90101  1.0000
  H   H437      1.0  0.44916  0.64567  0.90985  1.0000
  H   H438      1.0  0.52427  0.63155  0.89196  1.0000
  C   C272      1.0  0.46583  0.72433  0.96330  1.0000
  C   C273      1.0  0.41670  0.71930  0.99048  1.0000
  C   C274      1.0  0.39901  0.71870  0.96589  1.0000
  S   S112      1.0  0.39466  0.72634  0.90993  1.0000
  C   C275      1.0  0.48151  0.63063  0.95168  1.0000
  H   H439      1.0  0.50908  0.71584  0.78975  1.0000
  C   C276      1.0  0.49988  0.66882  0.76758  1.0000
  H   H440      1.0  0.39116  0.58184  0.81416  1.0000
  C   C277      1.0  0.32604  0.63147  0.97749  1.0000
  C   C278      1.0  0.46400  0.63175  0.90410  1.0000
  C   C279      1.0  0.37469  0.62686  0.78664  1.0000
  H   H441      1.0  0.35004  0.64274  0.99103  1.0000
  C   C280      1.0  0.51842  0.68078  0.92198  1.0000
  H   H442      1.0  0.32011  0.60435  0.97091  1.0000
  H   H443      1.0  0.53733  0.63053  0.92743  1.0000
  H   H444      1.0  0.50124  0.95894  0.79411  1.0000
  S   S113      1.0  0.52016  0.86179  0.83088  1.0000
  C   C281      1.0  0.35056  0.56695  0.76890  1.0000
  N   N29       1.0  0.29557  0.63024  0.99223  1.0000
  H   H445      1.0  0.49809  0.79734  0.97530  1.0000
  H   H446      1.0  0.41463  0.57625  0.78551  1.0000
  C   C282      1.0  0.52159  0.85728  0.94570  1.0000
  C   C283      1.0  0.51706  0.88686  0.85831  1.0000
  H   H447      1.0  0.50791  0.83301  0.99902  1.0000
  H   H448      1.0  0.50374  0.92529  0.77373  1.0000
  S   S114      1.0  0.43415  0.53202  0.92644  1.0000
  H   H449      1.0  0.45964  0.71948  0.75955  1.0000
  H   H450      1.0  0.35635  0.54652  0.76016  1.0000
  H   H451      1.0  0.54051  0.68951  0.93721  1.0000
  H   H452      1.0  0.78927  0.41292  0.15990  1.0000
  C   C284      1.0  0.75468  0.39216  0.02201  1.0000
  H   H453      1.0  0.80579  0.20854  0.20346  1.0000
  Fe  Fe53      1.0  0.57904  0.06315  0.13953  1.0000
  H   H454      1.0  0.69174  0.20639  0.14853  1.0000
  H   H455      1.0  0.71327  0.39650  0.04347  1.0000
  H   H456      1.0  0.70885  0.21685  0.07214  1.0000
  H   H457      1.0  0.89322  0.32973  0.15075  1.0000
  C   C285      1.0  0.59794  0.09422  0.02056  1.0000
  Fe  Fe54      1.0  0.64524  0.07587  0.16902  1.0000
  S   S115      1.0  0.70355  0.10708  0.16007  1.0000
  C   C286      1.0  0.91046  0.35369  0.13786  1.0000
  S   S116      1.0  0.61790  0.10802  0.16611  1.0000
  S   S117      1.0  0.62829  0.35864  0.03694  1.0000
  C   C287      1.0  0.57820  0.09107  0.04459  1.0000
  C   C288      1.0  0.81305  0.28336  0.15299  1.0000
  C   C289      1.0  0.66750  0.16021  0.10517  1.0000
  S   S118      1.0  0.82390  0.34234  0.18261  1.0000
  H   H458      1.0  0.88590  0.29246  0.10903  1.0000
  H   H459      1.0  0.78778  0.33907  0.04237  1.0000
  H   H460      1.0  0.79054  0.38556  0.18754  1.0000
  N   N30       1.0  0.73862  0.36798  0.17054  1.0000
  H   H461      1.0  0.66204  0.13484  0.11549  1.0000
  H   H462      1.0  0.70325  0.17223  0.15290  1.0000
  Fe  Fe55      1.0  0.58023  0.30413  0.04026  1.0000
  H   H463      1.0  0.92929  0.37476  0.15228  1.0000
  Fe  Fe56      1.0  0.83428  0.29602  0.03528  1.0000
  H   H464      1.0  0.80888  0.23924  0.12922  1.0000
  C   C290      1.0  0.76606  0.17658  0.23385  1.0000
  C   C291      1.0  0.73271  0.14643  0.23809  1.0000
  C   C292      1.0  0.71327  0.12534  0.21542  1.0000
  C   C293      1.0  0.72745  0.13378  0.18850  1.0000
  C   C294      1.0  0.76079  0.16396  0.18419  1.0000
  C   C295      1.0  0.77991  0.18559  0.20682  1.0000
  H   H465      1.0  0.62652  0.07461  0.09194  1.0000
  H   H466      1.0  0.68774  0.10203  0.21891  1.0000
  H   H467      1.0  0.77192  0.17054  0.16342  1.0000
  H   H468      1.0  0.69244  0.23055  0.10128  1.0000
  H   H469      1.0  0.72582  0.17051  0.07816  1.0000
  H   H470      1.0  0.59639  0.24292  0.21760  1.0000
  C   C296      1.0  0.56440  0.29438  0.17066  1.0000
  H   H471      1.0  0.91649  0.31098  0.08035  1.0000
  C   C297      1.0  0.81681  0.33262  0.12624  1.0000
  N   N31       1.0  0.70431  0.18877  0.11043  1.0000
  H   H472      1.0  0.96584  0.32560  0.11326  1.0000
  H   H473      1.0  0.73723  0.21697  0.14553  1.0000
  H   H474      1.0  0.66098  0.07943  0.04944  1.0000
  Fe  Fe57      1.0  0.83018  0.25903  0.25290  1.0000
  C   C298      1.0  0.62736  0.08928  0.02211  1.0000
  C   C299      1.0  0.56125  0.17147  0.21839  1.0000
  S   S119      1.0  0.96118  0.32780  0.23424  1.0000
  C   C300      1.0  0.58803  0.08343  0.07037  1.0000
  S   S120      1.0  0.59861  0.28938  0.07912  1.0000
  S   S121      1.0  0.86090  0.28239  0.21342  1.0000
  C   C301      1.0  0.03411  0.41473  0.17325  1.0000
  H   H475      1.0  0.81149  0.27080  0.17279  1.0000
  C   C302      1.0  0.81074  0.26514  0.12823  1.0000
  H   H476      1.0  0.64778  0.16729  0.11327  1.0000
  Fe  Fe58      1.0  0.84368  0.32321  0.21858  1.0000
  Fe  Fe59      1.0  0.59543  0.37524  0.06245  1.0000
  S   S122      1.0  0.81026  0.25831  0.07153  1.0000
  H   H477      1.0  0.73857  0.24366  0.09914  1.0000
  C   C303      1.0  0.55124  0.36667  0.24589  1.0000
  C   C304      1.0  0.81174  0.28077  0.10240  1.0000
  C   C305      1.0  0.74735  0.34430  0.06430  1.0000
  C   C306      1.0  0.55993  0.41996  0.02957  1.0000
  C   C307      1.0  0.72905  0.17684  0.10080  1.0000
  H   H478      1.0  0.74479  0.32595  0.08071  1.0000
  C   C308      1.0  0.70936  0.19652  0.14064  1.0000
  H   H479      1.0  0.89314  0.36329  0.12870  1.0000
  C   C309      1.0  0.60093  0.31826  0.16989  1.0000
  C   C310      1.0  0.62033  0.32979  0.19479  1.0000
  S   S123      1.0  0.57140  0.09965  0.23779  1.0000
  Fe  Fe60      1.0  0.58573  0.07525  0.20225  1.0000
  C   C311      1.0  0.81716  0.31756  0.15202  1.0000
  H   H480      1.0  0.88570  0.32616  0.08728  1.0000
  C   C312      1.0  0.77181  0.35181  0.04269  1.0000
  H   H481      1.0  0.81950  0.35890  0.12532  1.0000
  C   C313      1.0  0.61833  0.07992  0.07213  1.0000
  H   H482      1.0  0.56985  0.47368  0.03489  1.0000
  C   C314      1.0  0.81402  0.31420  0.10148  1.0000
  S   S124      1.0  0.61644  0.04656  0.20773  1.0000
  C   C315      1.0  0.71128  0.22136  0.09508  1.0000
  C   C316      1.0  0.63807  0.08302  0.04806  1.0000
  H   H483      1.0  0.03781  0.40275  0.05619  1.0000
  C   C317      1.0  0.55352  0.44830  0.02474  1.0000
  H   H484      1.0  0.93586  0.30889  0.14245  1.0000
  Fe  Fe61      1.0  0.64376  0.34552  0.07808  1.0000
  H   H485      1.0  0.61410  0.32854  0.15021  1.0000
  H   H486      1.0  0.64820  0.34951  0.19421  1.0000
  C   C318      1.0  0.60341  0.31694  0.22047  1.0000
  H   H487      1.0  0.66233  0.15461  0.08249  1.0000
  H   H488      1.0  0.81361  0.32594  0.08173  1.0000
  C   C319      1.0  0.95185  0.33284  0.12916  1.0000
  S   S125      1.0  0.69550  0.35026  0.09162  1.0000
  H   H489      1.0  0.72475  0.15251  0.11220  1.0000
  H   H490      1.0  0.75710  0.19766  0.10426  1.0000
  H   H491      1.0  0.55748  0.18218  0.19834  1.0000
  C   C320      1.0  0.56742  0.29124  0.22108  1.0000
  C   C321      1.0  0.77447  0.39667  0.17837  1.0000
  S   S126      1.0  0.62746  0.33453  0.25137  1.0000
  S   S127      1.0  0.56133  0.07727  0.09972  1.0000
  C   C322      1.0  0.72583  0.35997  0.06436  1.0000
  H   H492      1.0  0.77326  0.41496  0.19408  1.0000
  H   H493      1.0  0.02680  0.34346  0.20937  1.0000
  H   H494      1.0  0.73130  0.39987  0.13957  1.0000
  H   H495      1.0  0.69110  0.36291  0.15221  1.0000
  H   H496      1.0  0.71524  0.40165  0.17381  1.0000
  C   C323      1.0  0.72019  0.34676  0.19555  1.0000
  C   C324      1.0  0.71820  0.38387  0.15862  1.0000
  S   S128      1.0  0.86429  0.35569  0.03837  1.0000
  N   N32       1.0  0.92935  0.34555  0.11598  1.0000
  H   H497      1.0  0.75587  0.35987  0.13054  1.0000
  S   S129      1.0  0.61611  0.36797  0.10347  1.0000
  H   H498      1.0  0.97242  0.35361  0.14281  1.0000
  C   C325      1.0  0.98765  0.36019  0.20953  1.0000
  H   H499      1.0  0.71710  0.36348  0.21176  1.0000
  Fe  Fe62      1.0  0.56994  0.31234  0.10211  1.0000
  C   C326      1.0  0.01976  0.36263  0.20150  1.0000
  C   C327      1.0  0.90326  0.31753  0.09738  1.0000
  H   H500      1.0  0.97202  0.39981  0.11279  1.0000
  C   C328      1.0  0.72935  0.38378  0.04314  1.0000
  H   H501      1.0  0.58465  0.16767  0.21599  1.0000
  H   H502      1.0  0.93559  0.38845  0.08930  1.0000
  H   H503      1.0  0.75657  0.33181  0.15798  1.0000
  H   H504      1.0  0.63597  0.09827  0.24975  1.0000
  C   C329      1.0  0.00144  0.41167  0.18052  1.0000
  H   H505      1.0  0.99443  0.43082  0.17255  1.0000
  H   H506      1.0  0.71514  0.32310  0.14268  1.0000
  H   H507      1.0  0.56629  0.16682  0.01699  1.0000
  C   C330      1.0  0.95178  0.37811  0.09947  1.0000
  H   H508      1.0  0.55506  0.09421  0.04315  1.0000
  H   H509      1.0  0.96598  0.37280  0.08244  1.0000
  S   S130      1.0  0.89120  0.36109  0.24386  1.0000
  C   C331      1.0  0.97830  0.38454  0.19882  1.0000
  H   H510      1.0  0.73516  0.33469  0.20517  1.0000
  H   H511      1.0  0.80428  0.19725  0.01738  1.0000
  H   H512      1.0  0.69314  0.32470  0.19033  1.0000
  S   S131      1.0  0.59226  0.42498  0.05409  1.0000
  C   C332      1.0  0.74169  0.34460  0.14958  1.0000
  H   H513      1.0  0.95362  0.38291  0.20504  1.0000
  C   C333      1.0  0.77565  0.37588  0.02160  1.0000
  S   S132      1.0  0.60827  0.03260  0.14007  1.0000
  Fe  Fe63      1.0  0.90587  0.31819  0.24149  1.0000
  N   N33       1.0  0.56597  0.19540  0.24199  1.0000
  H   H514      1.0  0.55437  0.28044  0.24064  1.0000
  H   H515      1.0  0.62234  0.22778  0.23642  1.0000
  H   H516      1.0  0.72374  0.14366  0.01672  1.0000
  C   C334      1.0  0.54791  0.28005  0.19623  1.0000
  H   H517      1.0  0.58888  0.40507  0.20163  1.0000
  H   H518      1.0  0.55890  0.34567  0.24503  1.0000
  H   H519      1.0  0.57164  0.35855  0.19499  1.0000
  C   C335      1.0  0.59814  0.23039  0.23741  1.0000
  H   H520      1.0  0.75911  0.13332  0.01755  1.0000
  S   S133      1.0  0.96162  0.38563  0.01729  1.0000
  S   S134      1.0  0.80964  0.29727  0.25600  1.0000
  H   H521      1.0  0.57534  0.39188  0.25211  1.0000
  S   S135      1.0  0.87541  0.29308  0.00907  1.0000
  H   H522      1.0  0.55439  0.38238  0.17613  1.0000
  H   H523      1.0  0.77007  0.20906  0.01717  1.0000
  C   C336      1.0  0.56419  0.37961  0.19692  1.0000
  S   S136      1.0  0.54334  0.03294  0.17549  1.0000
  H   H524      1.0  0.03931  0.41382  0.24559  1.0000
  H   H525      1.0  0.60207  0.24937  0.25458  1.0000
  Fe  Fe64      1.0  0.90291  0.35281  0.00890  1.0000
  H   H526      1.0  0.55203  0.42536  0.22629  1.0000
  S   S137      1.0  0.54639  0.32132  0.06336  1.0000
  H   H527      1.0  0.54436  0.36569  0.01907  1.0000
  H   H528      1.0  0.04135  0.44558  0.05141  1.0000
  H   H529      1.0  0.00669  0.39883  0.39136  1.0000
  C   C337      1.0  0.77441  0.20325  0.34085  1.0000
  C   C338      1.0  0.62253  0.09636  0.26913  1.0000
  C   C339      1.0  0.59155  0.09866  0.26923  1.0000
  C   C340      1.0  0.55794  0.43076  0.29288  1.0000
  H   H530      1.0  0.57603  0.25295  0.39889  1.0000
  S   S138      1.0  0.59776  0.10026  0.41790  1.0000
  S   S139      1.0  0.80769  0.30146  0.50112  1.0000
  H   H531      1.0  0.79262  0.34532  0.44670  1.0000
  H   H532      1.0  0.02812  0.36935  0.29835  1.0000
  C   C341      1.0  0.03357  0.38353  0.44619  1.0000
  H   H533      1.0  0.68937  0.15991  0.31729  1.0000
  H   H534      1.0  0.77497  0.22808  0.34780  1.0000
  C   C342      1.0  0.63619  0.09146  0.29419  1.0000
  H   H535      1.0  0.57387  0.19694  0.28642  1.0000
  C   C343      1.0  0.93698  0.41208  0.40333  1.0000
  C   C344      1.0  0.58162  0.26686  0.46901  1.0000
  Fe  Fe65      1.0  0.59640  0.31597  0.29152  1.0000
  C   C345      1.0  0.76600  0.32097  0.44559  1.0000
  H   H536      1.0  0.84624  0.37368  0.37653  1.0000
  C   C346      1.0  0.84355  0.29899  0.35122  1.0000
  N   N34       1.0  0.73771  0.17310  0.33892  1.0000
  C   C347      1.0  0.73823  0.14097  0.32902  1.0000
  C   C348      1.0  0.97842  0.36144  0.47204  1.0000
  C   C349      1.0  0.57545  0.09822  0.29462  1.0000
  H   H537      1.0  0.78817  0.20914  0.32034  1.0000
  C   C350      1.0  0.84409  0.34762  0.37647  1.0000
  H   H538      1.0  0.72916  0.18729  0.29778  1.0000
  C   C351      1.0  0.58692  0.26560  0.41867  1.0000
  H   H539      1.0  0.56806  0.36279  0.46941  1.0000
  H   H540      1.0  0.71653  0.20638  0.32564  1.0000
  H   H541      1.0  0.75052  0.14537  0.30791  1.0000
  H   H542      1.0  0.69299  0.14382  0.36608  1.0000
  N   N35       1.0  0.74208  0.32650  0.42692  1.0000
  C   C352      1.0  0.61911  0.08927  0.31947  1.0000
  C   C353      1.0  0.63496  0.31133  0.44565  1.0000
  S   S140      1.0  0.79018  0.20196  0.26273  1.0000
  C   C354      1.0  0.84666  0.33279  0.35123  1.0000
  H   H543      1.0  0.90821  0.39793  0.39838  1.0000
  C   C355      1.0  0.71727  0.18209  0.31906  1.0000
  Fe  Fe66      1.0  0.85862  0.33070  0.28110  1.0000
  H   H544      1.0  0.74587  0.39803  0.49897  1.0000
  H   H545      1.0  0.56377  0.31998  0.46270  1.0000
  H   H546      1.0  0.66064  0.33520  0.44671  1.0000
  H   H547      1.0  0.62761  0.30767  0.49007  1.0000
  N   N36       1.0  0.55551  0.15231  0.49583  1.0000
  H   H548      1.0  0.94864  0.43970  0.39496  1.0000
  Fe  Fe67      1.0  0.60406  0.30707  0.35368  1.0000
  H   H549      1.0  0.71090  0.11761  0.32767  1.0000
  H   H550      1.0  0.83834  0.25522  0.37642  1.0000
  H   H551      1.0  0.92259  0.37761  0.35433  1.0000
  H   H552      1.0  0.76993  0.29867  0.43838  1.0000
  Fe  Fe68      1.0  0.59469  0.06174  0.38535  1.0000
  S   S141      1.0  0.83548  0.27377  0.43302  1.0000
  H   H553      1.0  0.93714  0.35647  0.42598  1.0000
  H   H554      1.0  0.65950  0.08850  0.29385  1.0000
  S   S142      1.0  0.63427  0.07912  0.35014  1.0000
  H   H555      1.0  0.98661  0.33302  0.43857  1.0000
  C   C356      1.0  0.83794  0.29606  0.40173  1.0000
  C   C357      1.0  0.83935  0.28075  0.37643  1.0000
  H   H556      1.0  0.84503  0.28711  0.33190  1.0000
  C   C358      1.0  0.93786  0.35661  0.40280  1.0000
  H   H557      1.0  0.79048  0.19744  0.35582  1.0000
  H   H558      1.0  0.58498  0.33661  0.41430  1.0000
  H   H559      1.0  0.75369  0.13351  0.34331  1.0000
  Fe  Fe69      1.0  0.85036  0.30702  0.47201  1.0000
  Fe  Fe70      1.0  0.58773  0.05728  0.44879  1.0000
  S   S143      1.0  0.87703  0.29062  0.28073  1.0000
  S   S144      1.0  0.60562  0.35167  0.32843  1.0000
  H   H560      1.0  0.57660  0.09310  0.33925  1.0000
  C   C359      1.0  0.61590  0.29623  0.47024  1.0000
  C   C360      1.0  0.72091  0.16607  0.36676  1.0000
  H   H561      1.0  0.95232  0.34258  0.39624  1.0000
  H   H562      1.0  0.95132  0.34084  0.47560  1.0000
  H   H563      1.0  0.72186  0.13928  0.25891  1.0000
  S   S145      1.0  0.64232  0.31849  0.38909  1.0000
  C   C361      1.0  0.58931  0.09367  0.31974  1.0000
  H   H564      1.0  0.72048  0.18990  0.37501  1.0000
  H   H565      1.0  0.73525  0.15848  0.38213  1.0000
  C   C362      1.0  0.83981  0.32933  0.40169  1.0000
  C   C363      1.0  0.62010  0.29660  0.41977  1.0000
  S   S146      1.0  0.60072  0.27446  0.31643  1.0000
  C   C364      1.0  0.70721  0.29349  0.42585  1.0000
  H   H566      1.0  0.96347  0.41891  0.35140  1.0000
  H   H567      1.0  0.83852  0.34124  0.42105  1.0000
  H   H568      1.0  0.75549  0.31495  0.46730  1.0000
  H   H569      1.0  0.76353  0.38123  0.43944  1.0000
  H   H570      1.0  0.70971  0.27043  0.41848  1.0000
  C   C365      1.0  0.99258  0.41274  0.39911  1.0000
  H   H571      1.0  0.68882  0.29643  0.41134  1.0000
  S   S147      1.0  0.85619  0.35809  0.32044  1.0000
  H   H572      1.0  0.69425  0.28659  0.44672  1.0000
  C   C366      1.0  0.75752  0.33552  0.39860  1.0000
  H   H573      1.0  0.96353  0.37723  0.35128  1.0000
  H   H574      1.0  0.76186  0.31407  0.38995  1.0000
  C   C367      1.0  0.56758  0.25089  0.44325  1.0000
  H   H575      1.0  0.91005  0.34030  0.39553  1.0000
  H   H576      1.0  0.99610  0.41511  0.42216  1.0000
  C   C368      1.0  0.99845  0.35698  0.45112  1.0000
  C   C369      1.0  0.56719  0.13203  0.47819  1.0000
  H   H577      1.0  0.73985  0.33945  0.38390  1.0000
  C   C370      1.0  0.73758  0.35606  0.43772  1.0000
  H   H578      1.0  0.59142  0.38032  0.42075  1.0000
  H   H579      1.0  0.78366  0.36059  0.39865  1.0000
  N   N37       1.0  0.95460  0.39330  0.39149  1.0000
  S   S148      1.0  0.55507  0.25124  0.49901  1.0000
  C   C371      1.0  0.57165  0.35294  0.41386  1.0000
  H   H580      1.0  0.57494  0.39872  0.31550  1.0000
  C   C372      1.0  0.99345  0.39249  0.48811  1.0000
  C   C373      1.0  0.95099  0.39176  0.36078  1.0000
  H   H581      1.0  0.58365  0.44755  0.28347  1.0000
  H   H582      1.0  0.93954  0.41396  0.42648  1.0000
  S   S149      1.0  0.87924  0.36672  0.47054  1.0000
  H   H583      1.0  0.54474  0.10494  0.47345  1.0000
  H   H584      1.0  0.59651  0.20400  0.48237  1.0000
  H   H585      1.0  0.72001  0.36131  0.42391  1.0000
  C   C374      1.0  0.55300  0.40306  0.31093  1.0000
  H   H586      1.0  0.72569  0.35001  0.45899  1.0000
  H   H587      1.0  0.00634  0.44026  0.39040  1.0000
  C   C375      1.0  0.02877  0.41884  0.48348  1.0000
  C   C376      1.0  0.58609  0.18792  0.50181  1.0000
  H   H588      1.0  0.57768  0.14557  0.45779  1.0000
  H   H589      1.0  0.03751  0.42743  0.28054  1.0000
  H   H590      1.0  0.54549  0.05277  0.50094  1.0000
  S   S150      1.0  0.61882  0.07280  0.48912  1.0000
  H   H591      1.0  0.55161  0.10027  0.29487  1.0000
  C   C377      1.0  0.56974  0.17940  0.26817  1.0000
  S   S151      1.0  0.80695  0.38879  0.49522  1.0000
  S   S152      1.0  0.88411  0.30401  0.50629  1.0000
  H   H592      1.0  0.56490  0.35464  0.39169  1.0000
  H   H593      1.0  0.02979  0.35576  0.26341  1.0000
  H   H594      1.0  0.54553  0.15334  0.27257  1.0000
  H   H595      1.0  0.58827  0.12856  0.48846  1.0000
  H   H596      1.0  0.59242  0.17428  0.26716  1.0000
  Fe  Fe71      1.0  0.83850  0.36114  0.50191  1.0000
  H   H597      1.0  0.04021  0.44329  0.49536  1.0000
  Fe  Fe72      1.0  0.54200  0.25004  0.32140  1.0000
  Fe  Fe73      1.0  0.90942  0.36355  0.50742  1.0000
  C   C378      1.0  0.54991  0.33570  0.46093  1.0000
  Fe  Fe74      1.0  0.54640  0.32136  0.33296  1.0000
  S   S153      1.0  0.54536  0.27918  0.36083  1.0000
  Fe  Fe75      1.0  0.57420  0.28981  0.53506  1.0000
  C   C379      1.0  0.74627  0.38337  0.51715  1.0000
  H   H598      1.0  0.79855  0.21281  0.69871  1.0000
  Fe  Fe76      1.0  0.56580  0.05268  0.63979  1.0000
  H   H599      1.0  0.75121  0.24212  0.57491  1.0000
  S   S154      1.0  0.61611  0.04376  0.70310  1.0000
  Fe  Fe77      1.0  0.57762  0.06416  0.70242  1.0000
  C   C380      1.0  0.77370  0.37554  0.52063  1.0000
  H   H600      1.0  0.55443  0.38115  0.69632  1.0000
  Fe  Fe78      1.0  0.63804  0.07658  0.66425  1.0000
  S   S155      1.0  0.69480  0.11527  0.65325  1.0000
  S   S156      1.0  0.60684  0.31604  0.74982  1.0000
  S   S157      1.0  0.60224  0.10007  0.66549  1.0000
  S   S158      1.0  0.59267  0.27697  0.57473  1.0000
  C   C381      1.0  0.82100  0.33486  0.62856  1.0000
  C   C382      1.0  0.82163  0.28646  0.60352  1.0000
  H   H601      1.0  0.93097  0.29132  0.59980  1.0000
  Fe  Fe79      1.0  0.89872  0.31931  0.75202  1.0000
  H   H602      1.0  0.74914  0.33322  0.58340  1.0000
  H   H603      1.0  0.73830  0.15834  0.60814  1.0000
  H   H604      1.0  0.61097  0.08059  0.59035  1.0000
  S   S159      1.0  0.56074  0.08220  0.74076  1.0000
  C   C383      1.0  0.74399  0.17924  0.59214  1.0000
  H   H605      1.0  0.56770  0.46197  0.52272  1.0000
  H   H606      1.0  0.72889  0.12571  0.75178  1.0000
  C   C384      1.0  0.70857  0.37095  0.66468  1.0000
  S   S160      1.0  0.82078  0.33944  0.68533  1.0000
  H   H607      1.0  0.81769  0.24351  0.62915  1.0000
  C   C385      1.0  0.76617  0.17141  0.72792  1.0000
  C   C386      1.0  0.73542  0.13828  0.73145  1.0000
  C   C387      1.0  0.71306  0.12125  0.70869  1.0000
  C   C388      1.0  0.72190  0.13681  0.68218  1.0000
  C   C389      1.0  0.75290  0.16982  0.67861  1.0000
  C   C390      1.0  0.77468  0.18739  0.70155  1.0000
  H   H608      1.0  0.64245  0.08627  0.54573  1.0000
  H   H609      1.0  0.68960  0.09559  0.71154  1.0000
  H   H610      1.0  0.76020  0.18186  0.65815  1.0000
  C   C391      1.0  0.59612  0.06996  0.52022  1.0000
  H   H611      1.0  0.66016  0.16570  0.58653  1.0000
  C   C392      1.0  0.02476  0.40853  0.68265  1.0000
  Fe  Fe80      1.0  0.82652  0.25177  0.75157  1.0000
  C   C393      1.0  0.72530  0.21778  0.57058  1.0000
  C   C394      1.0  0.54209  0.05540  0.54541  1.0000
  Fe  Fe81      1.0  0.83699  0.31778  0.72181  1.0000
  H   H612      1.0  0.68133  0.14733  0.56534  1.0000
  H   H613      1.0  0.71329  0.39806  0.66987  1.0000
  H   H614      1.0  0.60107  0.31856  0.64826  1.0000
  H   H615      1.0  0.74202  0.22796  0.62533  1.0000
  C   C395      1.0  0.77437  0.35701  0.54436  1.0000
  H   H616      1.0  0.98455  0.38567  0.62301  1.0000
  H   H617      1.0  0.72738  0.20809  0.54955  1.0000
  H   H618      1.0  0.75012  0.38851  0.61919  1.0000
  C   C396      1.0  0.98221  0.36522  0.72660  1.0000
  Fe  Fe82      1.0  0.84418  0.30481  0.53543  1.0000
  H   H619      1.0  0.77056  0.42347  0.64446  1.0000
  Fe  Fe83      1.0  0.63562  0.33422  0.57358  1.0000
  H   H620      1.0  0.74559  0.16828  0.57156  1.0000
  H   H621      1.0  0.77074  0.20213  0.59671  1.0000
  H   H622      1.0  0.69294  0.36260  0.64497  1.0000
  S   S161      1.0  0.87492  0.35486  0.75405  1.0000
  H   H623      1.0  0.55623  0.20624  0.71052  1.0000
  H   H624      1.0  0.54662  0.33097  0.74288  1.0000
  C   C397      1.0  0.68165  0.15879  0.58618  1.0000
  Fe  Fe84      1.0  0.58440  0.35997  0.55658  1.0000
  H   H625      1.0  0.03766  0.44044  0.54666  1.0000
  S   S162      1.0  0.61970  0.34590  0.53204  1.0000
  C   C398      1.0  0.54801  0.40535  0.52361  1.0000
  H   H626      1.0  0.82373  0.33233  0.58390  1.0000
  H   H627      1.0  0.67467  0.13725  0.60190  1.0000
  C   C399      1.0  0.82216  0.31907  0.60336  1.0000
  C   C400      1.0  0.73453  0.33415  0.65450  1.0000
  H   H628      1.0  0.63112  0.33751  0.69401  1.0000
  C   C401      1.0  0.71575  0.20481  0.61982  1.0000
  C   C402      1.0  0.56031  0.06277  0.57077  1.0000
  H   H629      1.0  0.02665  0.35813  0.73653  1.0000
  H   H630      1.0  0.92762  0.37695  0.64163  1.0000
  S   S163      1.0  0.82626  0.26778  0.57248  1.0000
  C   C403      1.0  0.81833  0.26888  0.62885  1.0000
  H   H631      1.0  0.81413  0.27075  0.67349  1.0000
  H   H632      1.0  0.54419  0.33575  0.69254  1.0000
  C   C404      1.0  0.72056  0.35466  0.56135  1.0000
  C   C405      1.0  0.92661  0.35050  0.59060  1.0000
  C   C406      1.0  0.81680  0.28449  0.65403  1.0000
  S   S164      1.0  0.68868  0.34276  0.58776  1.0000
  C   C407      1.0  0.81900  0.31789  0.65396  1.0000
  H   H633      1.0  0.88795  0.33494  0.63741  1.0000
  C   C408      1.0  0.74813  0.34702  0.56488  1.0000
  C   C409      1.0  0.58548  0.30017  0.71757  1.0000
  S   S165      1.0  0.86379  0.28488  0.71733  1.0000
  C   C410      1.0  0.60387  0.31624  0.69297  1.0000
  N   N38       1.0  0.71667  0.19016  0.59218  1.0000
  H   H634      1.0  0.70857  0.18446  0.63655  1.0000
  C   C411      1.0  0.59667  0.07450  0.57085  1.0000
  H   H635      1.0  0.69587  0.21389  0.62043  1.0000
  H   H636      1.0  0.93706  0.37984  0.59038  1.0000
  C   C412      1.0  0.61452  0.07804  0.54560  1.0000
  H   H637      1.0  0.79548  0.35092  0.54711  1.0000
  C   C413      1.0  0.91706  0.34766  0.64038  1.0000
  C   C414      1.0  0.58675  0.30578  0.66706  1.0000
  S   S166      1.0  0.60513  0.35428  0.59810  1.0000
  S   S167      1.0  0.79696  0.28188  0.75325  1.0000
  H   H638      1.0  0.82258  0.36065  0.62836  1.0000
  H   H639      1.0  0.92158  0.33861  0.66098  1.0000
  H   H640      1.0  0.03246  0.42461  0.58191  1.0000
  H   H641      1.0  0.69160  0.35238  0.68139  1.0000
  C   C415      1.0  0.97249  0.35611  0.62220  1.0000
  H   H642      1.0  0.97879  0.34768  0.64240  1.0000
  N   N39       1.0  0.93379  0.33842  0.61747  1.0000
  H   H643      1.0  0.89760  0.33729  0.58640  1.0000
  H   H644      1.0  0.76740  0.40831  0.69507  1.0000
  H   H645      1.0  0.57885  0.15382  0.72894  1.0000
  C   C416      1.0  0.76412  0.39571  0.63963  1.0000
  S   S168      1.0  0.87167  0.36443  0.53892  1.0000
  H   H646      1.0  0.92329  0.28911  0.63684  1.0000
  Fe  Fe85      1.0  0.56096  0.29760  0.59646  1.0000
  H   H647      1.0  0.74666  0.36229  0.70561  1.0000
  S   S169      1.0  0.96826  0.39893  0.51371  1.0000
  H   H648      1.0  0.88972  0.28519  0.61290  1.0000
  C   C417      1.0  0.91886  0.29931  0.61675  1.0000
  N   N40       1.0  0.74226  0.37054  0.66183  1.0000
  H   H649      1.0  0.93891  0.34414  0.57275  1.0000
  C   C418      1.0  0.99017  0.40251  0.68619  1.0000
  H   H650      1.0  0.62773  0.08453  0.75044  1.0000
  H   H651      1.0  0.98018  0.41529  0.67234  1.0000
  S   S170      1.0  0.60328  0.03151  0.63567  1.0000
  S   S171      1.0  0.58114  0.40937  0.54678  1.0000
  H   H652      1.0  0.70486  0.22612  0.56955  1.0000
  H   H653      1.0  0.02958  0.39625  0.55327  1.0000
  H   H654      1.0  0.78957  0.39574  0.63678  1.0000
  C   C419      1.0  0.01653  0.37082  0.72274  1.0000
  H   H655      1.0  0.69864  0.37912  0.53479  1.0000
  H   H656      1.0  0.78779  0.38211  0.68690  1.0000
  H   H657      1.0  0.98606  0.34974  0.60538  1.0000
  H   H658      1.0  0.55432  0.37522  0.74884  1.0000
  H   H659      1.0  0.94244  0.37684  0.71117  1.0000
  H   H660      1.0  0.72000  0.32532  0.63433  1.0000
  C   C420      1.0  0.55994  0.05894  0.52022  1.0000
  C   C421      1.0  0.76183  0.38131  0.68853  1.0000
  C   C422      1.0  0.96885  0.38081  0.70814  1.0000
  C   C423      1.0  0.71948  0.37259  0.53737  1.0000
  N   N41       1.0  0.55246  0.17868  0.74893  1.0000
  H   H661      1.0  0.71801  0.31443  0.67074  1.0000
  H   H662      1.0  0.75933  0.33282  0.65240  1.0000
  H   H663      1.0  0.60564  0.20122  0.73313  1.0000
  H   H664      1.0  0.57849  0.20330  0.51610  1.0000
  C   C424      1.0  0.58471  0.17642  0.74318  1.0000
  S   S172      1.0  0.79348  0.19250  0.75675  1.0000
  C   C425      1.0  0.55099  0.27946  0.66568  1.0000
  S   S173      1.0  0.95748  0.34036  0.75557  1.0000
  H   H665      1.0  0.56105  0.12955  0.53415  1.0000
  C   C426      1.0  0.54687  0.43606  0.51594  1.0000
  C   C427      1.0  0.03786  0.39261  0.70097  1.0000
  C   C428      1.0  0.55026  0.27258  0.71605  1.0000
  H   H666      1.0  0.58185  0.23542  0.75621  1.0000
  H   H667      1.0  0.60809  0.18589  0.51186  1.0000
  Fe  Fe86      1.0  0.60821  0.07111  0.89083  1.0000
  S   S174      1.0  0.64075  0.08405  0.85143  1.0000
  C   C429      1.0  0.97100  0.36751  0.96419  1.0000
  C   C430      1.0  0.58424  0.08509  0.77138  1.0000
  S   S175      1.0  0.86424  0.28273  0.78586  1.0000
  C   C431      1.0  0.75019  0.22335  0.81681  1.0000
  S   S176      1.0  0.61850  0.11345  0.92232  1.0000
  C   C432      1.0  0.02760  0.39655  0.93959  1.0000
  C   C433      1.0  0.72790  0.35583  0.95337  1.0000
  C   C434      1.0  0.74095  0.17861  0.96816  1.0000
  H   H668      1.0  0.55092  0.23905  0.94830  1.0000
  C   C435      1.0  0.78650  0.20211  0.00357  1.0000
  H   H669      1.0  0.69677  0.36354  0.90704  1.0000
  Fe  Fe87      1.0  0.57248  0.30157  0.78825  1.0000
  H   H670      1.0  0.89957  0.36883  0.86009  1.0000
  C   C436      1.0  0.66612  0.31275  0.94613  1.0000
  C   C437      1.0  0.91320  0.36270  0.84310  1.0000
  H   H671      1.0  0.65535  0.35924  0.97564  1.0000
  H   H672      1.0  0.77162  0.14014  0.95390  1.0000
  C   C438      1.0  0.59023  0.34142  0.94433  1.0000
  S   S177      1.0  0.60178  0.34451  0.88826  1.0000
  H   H673      1.0  0.68339  0.20559  0.82908  1.0000
  H   H674      1.0  0.92546  0.38612  0.82881  1.0000
  C   C439      1.0  0.95597  0.34481  0.83093  1.0000
  C   C440      1.0  0.56177  0.21024  0.76645  1.0000
  C   C441      1.0  0.58060  0.32401  0.97022  1.0000
  H   H675      1.0  0.82310  0.32093  0.92601  1.0000
  H   H676      1.0  0.59584  0.17190  0.76270  1.0000
  C   C442      1.0  0.56134  0.26750  0.94724  1.0000
  C   C443      1.0  0.78746  0.16347  0.96770  1.0000
  H   H677      1.0  0.90135  0.29906  0.86250  1.0000
  H   H678      1.0  0.98866  0.37987  0.87718  1.0000
  C   C444      1.0  0.68245  0.36268  0.97682  1.0000
  H   H679      1.0  0.72989  0.34037  0.97122  1.0000
  C   C445      1.0  0.61907  0.08539  0.82090  1.0000
  N   N42       1.0  0.71837  0.18791  0.81316  1.0000
  H   H680      1.0  0.58399  0.33921  0.98895  1.0000
  S   S178      1.0  0.58257  0.27500  0.82449  1.0000
  C   C446      1.0  0.96742  0.38502  0.86951  1.0000
  Fe  Fe88      1.0  0.61373  0.07350  0.95428  1.0000
  C   C447      1.0  0.57049  0.08714  0.79729  1.0000
  H   H681      1.0  0.70408  0.13280  0.81749  1.0000
  C   C448      1.0  0.58552  0.32188  0.91989  1.0000
  C   C449      1.0  0.69025  0.18424  0.83251  1.0000
  S   S179      1.0  0.64994  0.08937  0.99171  1.0000
  N   N43       1.0  0.93967  0.35393  0.85425  1.0000
  H   H682      1.0  0.80375  0.22602  0.99069  1.0000
  H   H683      1.0  0.55912  0.16543  0.98003  1.0000
  H   H684      1.0  0.82655  0.26841  0.83514  1.0000
  H   H685      1.0  0.83058  0.24038  0.87899  1.0000
  S   S180      1.0  0.56874  0.34204  0.81504  1.0000
  C   C450      1.0  0.72758  0.15992  0.81928  1.0000
  S   S181      1.0  0.83224  0.25991  0.93629  1.0000
  C   C451      1.0  0.82803  0.26405  0.87969  1.0000
  C   C452      1.0  0.82603  0.28009  0.85481  1.0000
  H   H686      1.0  0.67201  0.30291  0.92653  1.0000
  H   H687      1.0  0.57730  0.08929  0.84190  1.0000
  H   H688      1.0  0.74812  0.16132  0.80461  1.0000
  C   C453      1.0  0.82761  0.27907  0.90542  1.0000
  H   H689      1.0  0.75669  0.20209  0.95433  1.0000
  H   H690      1.0  0.74488  0.24537  0.81148  1.0000
  S   S182      1.0  0.87565  0.35657  0.97025  1.0000
  Fe  Fe89      1.0  0.84484  0.29682  0.97276  1.0000
  H   H691      1.0  0.69852  0.18562  0.85466  1.0000
  Fe  Fe90      1.0  0.83408  0.35364  0.99976  1.0000
  H   H692      1.0  0.02640  0.41490  0.77190  1.0000
  C   C454      1.0  0.82287  0.31077  0.85554  1.0000
  C   C455      1.0  0.63333  0.08443  0.79494  1.0000
  H   H693      1.0  0.69787  0.20451  0.77894  1.0000
  S   S183      1.0  0.82165  0.33214  0.82465  1.0000
  C   C456      1.0  0.82409  0.30953  0.90622  1.0000
  C   C457      1.0  0.82157  0.32525  0.88131  1.0000
  H   H694      1.0  0.65742  0.08289  0.79384  1.0000
  C   C458      1.0  0.57022  0.28480  0.92125  1.0000
  C   C459      1.0  0.70560  0.18419  0.78411  1.0000
  H   H695      1.0  0.96882  0.36710  0.81566  1.0000
  C   C460      1.0  0.69063  0.37219  0.92712  1.0000
  H   H696      1.0  0.97931  0.35314  0.92305  1.0000
  H   H697      1.0  0.73590  0.34714  0.93420  1.0000
  H   H698      1.0  0.94323  0.34740  0.96479  1.0000
  C   C461      1.0  0.61615  0.08464  0.77027  1.0000
  C   C462      1.0  0.58797  0.08746  0.82203  1.0000
  H   H699      1.0  0.80430  0.18667  0.95397  1.0000
  Fe  Fe91      1.0  0.83732  0.31532  0.78522  1.0000
  Fe  Fe92      1.0  0.57204  0.31124  0.85135  1.0000
  H   H700      1.0  0.68223  0.15735  0.78037  1.0000
  H   H701      1.0  0.80562  0.15771  0.98024  1.0000
  H   H702      1.0  0.66387  0.36945  0.92487  1.0000
  H   H703      1.0  0.63864  0.30814  0.94433  1.0000
  H   H704      1.0  0.72598  0.11529  0.99066  1.0000
  H   H705      1.0  0.66555  0.15814  0.82979  1.0000
  Fe  Fe93      1.0  0.55929  0.08628  0.92539  1.0000
  H   H706      1.0  0.75825  0.41146  0.00611  1.0000
  H   H707      1.0  0.70113  0.39137  0.98108  1.0000
  H   H708      1.0  0.54599  0.08791  0.79832  1.0000
  H   H709      1.0  0.89236  0.34008  0.83096  1.0000
  H   H710      1.0  0.66626  0.29589  0.96366  1.0000
  H   H711      1.0  0.93581  0.32120  0.81911  1.0000
  S   S184      1.0  0.60943  0.03331  0.92261  1.0000
  H   H712      1.0  0.74808  0.38432  0.95699  1.0000
  C   C463      1.0  0.99143  0.37090  0.94047  1.0000
  S   S185      1.0  0.55501  0.04902  0.95967  1.0000
  H   H713      1.0  0.72651  0.18768  0.76899  1.0000
  H   H714      1.0  0.68298  0.34712  0.99519  1.0000
  N   N44       1.0  0.76433  0.17091  0.98576  1.0000
  H   H715      1.0  0.81905  0.34894  0.88204  1.0000
  H   H716      1.0  0.97635  0.33832  0.83849  1.0000
  H   H717      1.0  0.98032  0.40918  0.85605  1.0000
  N   N45       1.0  0.69180  0.35087  0.95085  1.0000
  C   C464      1.0  0.92205  0.32313  0.87345  1.0000
  C   C465      1.0  0.56716  0.28717  0.97180  1.0000
  H   H718      1.0  0.94134  0.31613  0.88265  1.0000
  H   H719      1.0  0.56667  0.26962  0.90241  1.0000
  H   H720      1.0  0.59047  0.10070  0.00084  1.0000
  H   H721      1.0  0.73807  0.16242  0.84082  1.0000
  S   S186      1.0  0.54896  0.04682  0.89120  1.0000
  S   S187      1.0  0.80587  0.38496  0.99430  1.0000
  H   H722      1.0  0.55484  0.44053  0.78358  1.0000
  H   H723      1.0  0.90875  0.32872  0.89105  1.0000
  H   H724      1.0  0.72355  0.15544  0.95467  1.0000
  H   H725      1.0  0.70998  0.40107  0.92984  1.0000
  H   H726      1.0  0.77237  0.22645  0.80322  1.0000
  C   C466      1.0  0.98668  0.38975  0.98719  1.0000
  H   H727      1.0  0.95630  0.39160  0.88805  1.0000
  H   H728      1.0  0.75970  0.22741  0.83874  1.0000
  H   H729      1.0  0.60166  0.37009  0.94330  1.0000
  H   H730      1.0  0.03893  0.40586  0.82125  1.0000
  C   C467      1.0  0.02277  0.41541  0.98628  1.0000
  H   H731      1.0  0.72318  0.18450  0.98107  1.0000
  H   H732      1.0  0.57254  0.20821  0.78704  1.0000
  S   S188      1.0  0.80100  0.29406  0.99899  1.0000
  H   H733      1.0  0.03464  0.43330  0.00358  1.0000
  C   C468      1.0  0.74244  0.13948  0.00351  1.0000
  H   H734      1.0  0.55991  0.38574  0.89174  1.0000
  H   H735      1.0  0.56550  0.20335  0.99963  1.0000
  C   C469      1.0  0.55302  0.17378  0.00026  1.0000
  S   S189      1.0  0.55971  0.26574  0.00426  1.0000
  Fe  Fe94      1.0  0.57631  0.00628  0.17849  1.0000
  H   H736      1.0  0.55567  0.97462  0.01550  1.0000
  S   S190      1.0  0.55395  0.94801  0.18878  1.0000
  C   C470      1.0  0.55058  0.94763  0.06745  1.0000
  H   H737      1.0  0.57793  0.96606  0.07511  1.0000
  H   H738      1.0  0.55228  0.02553  0.25760  1.0000
  H   H739      1.0  0.58195  0.00978  0.03957  1.0000
  H   H740      1.0  0.55239  0.93043  0.05105  1.0000
  C   C471      1.0  0.55425  0.99052  0.03319  1.0000
  H   H741      1.0  0.58860  0.98142  0.24772  1.0000
  H   H742      1.0  0.55864  0.00871  0.08753  1.0000
  H   H743      1.0  0.54247  0.00652  0.02503  1.0000
  H   H744      1.0  0.55578  0.92012  0.33579  1.0000
  S   S191      1.0  0.59055  0.02093  0.41661  1.0000
  N   N46       1.0  0.54950  0.97902  0.27650  1.0000
  H   H745      1.0  0.55934  0.97942  0.32054  1.0000
  H   H746      1.0  0.56358  0.02004  0.30726  1.0000
  H   H747      1.0  0.59768  0.97766  0.28379  1.0000
  H   H748      1.0  0.54858  0.95729  0.37200  1.0000
  H   H749      1.0  0.60399  0.01928  0.27052  1.0000
  C   C472      1.0  0.58658  0.98981  0.26931  1.0000
  C   C473      1.0  0.54807  0.99052  0.30528  1.0000
  H   H750      1.0  0.54406  0.91924  0.53688  1.0000
  Fe  Fe95      1.0  0.57721  0.00093  0.67467  1.0000
  S   S192      1.0  0.56250  0.94346  0.68094  1.0000
  H   H751      1.0  0.57263  0.95687  0.60833  1.0000
  H   H752      1.0  0.57248  0.99955  0.54014  1.0000
  H   H753      1.0  0.57762  0.93024  0.58190  1.0000
  H   H754      1.0  0.59549  0.00667  0.57268  1.0000
  H   H755      1.0  0.54918  0.97196  0.74246  1.0000
  C   C474      1.0  0.57983  0.98623  0.55664  1.0000
  N   N47       1.0  0.54806  0.95570  0.56898  1.0000
  H   H756      1.0  0.54284  0.87267  0.66288  1.0000
  H   H757      1.0  0.59770  0.97777  0.54686  1.0000
  C   C475      1.0  0.55908  0.93860  0.59049  1.0000
  H   H758      1.0  0.58791  0.00856  0.75760  1.0000
  C   C476      1.0  0.54414  0.94096  0.88615  1.0000
  H   H759      1.0  0.57122  0.92905  0.85396  1.0000
  C   C477      1.0  0.56890  0.99298  0.81096  1.0000
  Fe  Fe96      1.0  0.55073  0.01204  0.92533  1.0000
  H   H760      1.0  0.56426  0.97824  0.83093  1.0000
  H   H761      1.0  0.56708  0.96622  0.89137  1.0000
  C   C478      1.0  0.54643  0.91992  0.86493  1.0000
  H   H762      1.0  0.56871  0.93097  0.80301  1.0000
  C   C479      1.0  0.57243  0.94752  0.78412  1.0000
  N   N48       1.0  0.55409  0.96846  0.78696  1.0000
  H   H763      1.0  0.59805  0.01084  0.80888  1.0000
  H   H764      1.0  0.56212  0.92900  0.76602  1.0000
  C   C480      1.0  0.55930  0.98941  0.76121  1.0000
  H   H765      1.0  0.55665  0.01020  0.81301  1.0000
  H   H766      1.0  0.60146  0.96514  0.78095  1.0000
  H   H767      1.0  0.54547  0.00528  0.76234  1.0000
  H   H768      1.0  0.54230  0.87576  0.96047  1.0000
