data_image0
_chemical_formula_structural       SFeS2FeS2FeSFeS3HCH2CFeS3H2C7H6C2HCH4CH2CH5C6H5CHNCHCHN2H3C4H11CH2CH2CHNH2C3HFeHC2HNHCH6CH3CH6CHFeSHFeSFeSFeS3FeHSHSNH5CH4C2FeNHCH2CH2CHCHC8H4SCH2CHCH2CHSCHCHCH3CHFeHC3H4FeHC2HS2CHSCH7CNSH3CHSHS2H3FeH2CHC2H3FeS2FeHSFeSFeHS2HSH2CFeSCSCFeSCFeS2FeCFeS3FeS2FeS2FeSFeCS2HSHC4H2C6H4CHC2H2SH4CSFeCH5CH2C6H2CHC6H4CH2C6H4NC3H9CSHC2HCHFeCH4NHFeCSH3C2H2CSH4SNH2CH2CH3NC4H12S2CH3SC2HCHN2H2SH5CH2C3HCHNH2CH7CHCH2S2HSHCFeS2FeS2Fe2S3HS2FeS2FeS2FeSFeS3C5H2CH4CHCH2C6H4C6H6CH5CH2C2HSC2HCHCHCH2C3H3CH6NHNH2C3HFeH5FeCSFeC3N2C4H13C4H4CH2CH2CNH3CSC2HCNCHC2HCH3CHNHCFeCH4CHCH3CH3C2H4SHSFeH3C2FeS2H2CHC6H4CH4CNHSCH2CHNCH2CHS2CH4CNH4CHSH5CFeH4CSHCHCH2FeSFeHSFeS3HCH3NCSC6HCH2CHC2H3NCHCHCH3SH2CHCHCHCH2CH4CFeH2SC2H3SH2FeS2FeS2FeSFeS3HS2HS2C3H2SFeHCHC2H3C6H4C6H5CSH4C4H4CH3C2H2C2NH3NC2HNH3CHC2HCH5CHFeH2FeCHC2H5NCH7CNH2S2FeS2FeS2FeSFeS3CH4CFeSCFeSCH2SH2CNH2C3HFeNH2C7H4C2HCH3C6H6CHC3HCH6CH2C2H2SHNC2HCHCH4SH3SH2CHCH2C2HSCFeHSH3C2FeSFeS2FeSFeS3FeHSFeCSH2FeHC2HSCNHSHSC4H3C2FeC3H3CH4CH4C6H4SH2CHCHSHSNHFeCSH2NHC2HCHCH5C3H3CHFeCHSH2FeHCSH4CNCH2SHCH2CH2CH3C3HFeS2FeSHFeSHSFeS2FeS2FeSFeS3H3CHC2H2C2H4C6H4SH4NH2C7H9C3HCHCH4CH5CNH3N2HCHC2H2CHCHC2H2CH3CH3CSH2SHSHCHCFeCHNHSCHCH2C8H2CH2CSH5CH9NCH2FeC2SH2CH4FeCHCSH4CH2CHFeS2CHFeS4FeSCSHCSC3H2CH8CH3CHC4FeCH3FeH4C2HNHC5H3CHSHFeCH2CHC3HCNHC2S2HCH3CH2CH3CSH4CHSFeHSFeSFe2S4FeS2FeS2HFeS3FeS2FeS2FeSFeS4FeSHFeHSFeSHS3HC6H4CH4CH4CHNCHC6H4CHC4H4CH4C6H3CHC4H2SHC4H5CH3CFeHC2HC2HCH4CNC4H3FeH2CH4SH3C2H6CH4CNCHCNHC2FeHCHCH4NC3H8FeHCHCHCHCHC2NCH5CNC2S2HC3HNH2C2H9FeH2CHCH7NHCHC3H3CNCHCH4CH5CHSCH3CH5CH2FeSH2SFeS2FeS2FeCFeS3FeSNFeS2FeS2FeS2FeSHSCFeS2FeS2FeSFeS3HC3HC2H3C6H4C5H2C6H5C6H5CHCHC2NC8H4C6H2CH4SH3FeC3H5NHNC4H12NC3H10FeCFeHCSHNH2CH4CH2NSHCH5S2HNC4H12CHCH2SH4C2H2NFeCH2CHCH3CFeHCH2CSCS2H5SHC2H2FeS2FeS2FeSFeS3H2S2H2CFeSCH2FeHSHC2H3C2H2C6H4CHCNH2C7H7CSHC5H3CSHSH2CH4CHSHNH2SHNH3CH5CHSCH2CFeH9SHFeS2FeS2FeSFeS3HSC7H4C6H5CHCHCH2C2HC2H2NC5H2CHFeHFeHFeH3CH6CH7NHCH3SHNC2HCHCHC2HSH
_chemical_formula_sum              "S288 Fe144 H1152 C720 N72"
_cell_length_a       72.5822
_cell_length_b       74.8034
_cell_length_c       32.2216
_cell_angle_alpha    89.3526
_cell_angle_beta     90.8813
_cell_angle_gamma    112.016

_space_group_name_H-M_alt    "P 1"
_space_group_IT_number       1

loop_
  _space_group_symop_operation_xyz
  'x, y, z'

loop_
  _atom_site_type_symbol
  _atom_site_label
  _atom_site_symmetry_multiplicity
  _atom_site_fract_x
  _atom_site_fract_y
  _atom_site_fract_z
  _atom_site_occupancy
  S   S1        1.0  0.25557  0.02901  0.49976  1.0000
  Fe  Fe1       1.0  0.28199  0.06602  0.26874  1.0000
  S   S2        1.0  0.25713  0.07019  0.23207  1.0000
  S   S3        1.0  0.28973  0.07747  0.33479  1.0000
  Fe  Fe2       1.0  0.29703  0.05104  0.19187  1.0000
  S   S4        1.0  0.27369  0.05475  0.15054  1.0000
  S   S5        1.0  0.31905  0.03789  0.17102  1.0000
  Fe  Fe3       1.0  0.27997  0.08316  0.18252  1.0000
  S   S6        1.0  0.28778  0.11156  0.14611  1.0000
  Fe  Fe4       1.0  0.25330  0.04149  0.20375  1.0000
  S   S7        1.0  0.22525  0.01637  0.18665  1.0000
  S   S8        1.0  0.30507  0.08032  0.22042  1.0000
  S   S9        1.0  0.27642  0.03645  0.24406  1.0000
  H   H1        1.0  0.28831  0.98956  0.11404  1.0000
  C   C1        1.0  0.28421  0.98669  0.19689  1.0000
  H   H2        1.0  0.32425  0.16164  0.24481  1.0000
  H   H3        1.0  0.42804  0.01472  0.40805  1.0000
  C   C2        1.0  0.30727  0.02314  0.04888  1.0000
  Fe  Fe5       1.0  0.26945  0.21082  0.11795  1.0000
  S   S10       1.0  0.25883  0.18233  0.15444  1.0000
  S   S11       1.0  0.24546  0.21824  0.08546  1.0000
  S   S12       1.0  0.28925  0.21768  0.06245  1.0000
  H   H4        1.0  0.39434  0.00692  0.47035  1.0000
  H   H5        1.0  0.28016  0.99155  0.22674  1.0000
  C   C3        1.0  0.26383  0.00065  0.15935  1.0000
  C   C4        1.0  0.27942  0.13101  0.14933  1.0000
  C   C5        1.0  0.28969  0.14811  0.12722  1.0000
  C   C6        1.0  0.28391  0.16410  0.12916  1.0000
  C   C7        1.0  0.26760  0.16310  0.15296  1.0000
  C   C8        1.0  0.25738  0.14603  0.17527  1.0000
  C   C9        1.0  0.26323  0.13006  0.17350  1.0000
  H   H6        1.0  0.30232  0.14904  0.10862  1.0000
  H   H7        1.0  0.29213  0.17719  0.11226  1.0000
  H   H8        1.0  0.24468  0.14507  0.19365  1.0000
  H   H9        1.0  0.25504  0.11695  0.19032  1.0000
  H   H10       1.0  0.33644  0.13748  0.27976  1.0000
  H   H11       1.0  0.24222  0.10329  0.45975  1.0000
  C   C10       1.0  0.30692  0.03083  0.08846  1.0000
  C   C11       1.0  0.31936  0.02888  0.12031  1.0000
  H   H12       1.0  0.14721  0.23105  0.30300  1.0000
  C   C12       1.0  0.33208  0.01907  0.11207  1.0000
  H   H13       1.0  0.29717  0.03846  0.09410  1.0000
  H   H14       1.0  0.41281  0.02868  0.41408  1.0000
  H   H15       1.0  0.25865  0.00482  0.18857  1.0000
  H   H16       1.0  0.27721  0.01308  0.14942  1.0000
  C   C13       1.0  0.42385  0.03950  0.49291  1.0000
  H   H17       1.0  0.24672  0.06269  0.52100  1.0000
  H   H18       1.0  0.24712  0.02010  0.41327  1.0000
  C   C14       1.0  0.32508  0.01020  0.46980  1.0000
  H   H19       1.0  0.29827  0.99819  0.18646  1.0000
  H   H20       1.0  0.29357  0.14885  0.31368  1.0000
  H   H21       1.0  0.28280  0.10725  0.28723  1.0000
  H   H22       1.0  0.43945  0.04020  0.41742  1.0000
  H   H23       1.0  0.23425  0.01203  0.27313  1.0000
  C   C15       1.0  0.26513  0.04274  0.45421  1.0000
  C   C16       1.0  0.27954  0.06143  0.45612  1.0000
  C   C17       1.0  0.28690  0.07184  0.41929  1.0000
  C   C18       1.0  0.28008  0.06365  0.38018  1.0000
  C   C19       1.0  0.26574  0.04491  0.37828  1.0000
  C   C20       1.0  0.25828  0.03455  0.41514  1.0000
  H   H24       1.0  0.28515  0.06785  0.48588  1.0000
  H   H25       1.0  0.29808  0.08627  0.42108  1.0000
  H   H26       1.0  0.26031  0.03845  0.34840  1.0000
  H   H27       1.0  0.21045  0.16095  0.04780  1.0000
  H   H28       1.0  0.34180  0.01750  0.13642  1.0000
  C   C21       1.0  0.30993  0.14941  0.23900  1.0000
  H   H29       1.0  0.26451  0.17627  0.06502  1.0000
  N   N1        1.0  0.30589  0.13437  0.27155  1.0000
  C   C22       1.0  0.31123  0.03319  0.49207  1.0000
  H   H30       1.0  0.32308  0.12078  0.24029  1.0000
  C   C23       1.0  0.33247  0.01141  0.07238  1.0000
  H   H31       1.0  0.26663  0.11637  0.51777  1.0000
  N   N2        1.0  0.30655  0.01286  0.48056  1.0000
  N   N3        1.0  0.23820  0.15865  0.03216  1.0000
  H   H32       1.0  0.33277  0.01972  0.44355  1.0000
  H   H33       1.0  0.30242  0.13167  0.33764  1.0000
  H   H34       1.0  0.27303  0.09543  0.51385  1.0000
  C   C24       1.0  0.28648  0.11879  0.26310  1.0000
  C   C25       1.0  0.23470  0.14139  0.05850  1.0000
  C   C26       1.0  0.32169  0.12637  0.27150  1.0000
  C   C27       1.0  0.22541  0.99794  0.26097  1.0000
  H   H35       1.0  0.27851  0.00936  0.45178  1.0000
  H   H36       1.0  0.31771  0.04316  0.46562  1.0000
  H   H37       1.0  0.45765  0.03368  0.47792  1.0000
  H   H38       1.0  0.29925  0.01734  0.41731  1.0000
  H   H39       1.0  0.16118  0.22325  0.23859  1.0000
  H   H40       1.0  0.28282  0.00155  0.52429  1.0000
  H   H41       1.0  0.44604  0.00829  0.46854  1.0000
  H   H42       1.0  0.31851  0.11416  0.29399  1.0000
  H   H43       1.0  0.27421  0.12430  0.26199  1.0000
  H   H44       1.0  0.40917  0.99262  0.46350  1.0000
  H   H45       1.0  0.29794  0.15530  0.23695  1.0000
  C   C28       1.0  0.29706  0.00016  0.51593  1.0000
  H   H46       1.0  0.25192  0.99863  0.13562  1.0000
  H   H47       1.0  0.28647  0.11187  0.23281  1.0000
  C   C29       1.0  0.21898  0.99604  0.21957  1.0000
  H   H48       1.0  0.31981  0.15461  0.32012  1.0000
  H   H49       1.0  0.31089  0.14351  0.20783  1.0000
  C   C30       1.0  0.30541  0.14278  0.31260  1.0000
  H   H50       1.0  0.29769  0.03555  0.50189  1.0000
  N   N4        1.0  0.42579  0.02310  0.47075  1.0000
  H   H51       1.0  0.28928  0.99263  0.43468  1.0000
  H   H52       1.0  0.13089  0.23163  0.23525  1.0000
  C   C31       1.0  0.32010  0.01349  0.04049  1.0000
  C   C32       1.0  0.25957  0.17091  0.03314  1.0000
  C   C33       1.0  0.29279  0.00782  0.44445  1.0000
  H   H53       1.0  0.22299  0.07972  0.46445  1.0000
  Fe  Fe6       1.0  0.26615  0.22652  0.03101  1.0000
  H   H54       1.0  0.34244  0.00404  0.06639  1.0000
  C   C34       1.0  0.40845  0.00536  0.47995  1.0000
  C   C35       1.0  0.44420  0.02063  0.48453  1.0000
  H   H55       1.0  0.24363  0.13300  0.04824  1.0000
  N   N5        1.0  0.24169  0.08926  0.51859  1.0000
  H   H56       1.0  0.21877  0.13161  0.05803  1.0000
  C   C36       1.0  0.42657  0.02687  0.42555  1.0000
  H   H57       1.0  0.24828  0.08210  0.45755  1.0000
  H   H58       1.0  0.33566  0.01355  0.49655  1.0000
  H   H59       1.0  0.23892  0.14546  0.09145  1.0000
  H   H60       1.0  0.29375  0.98473  0.50857  1.0000
  H   H61       1.0  0.23106  0.17434  0.08078  1.0000
  H   H62       1.0  0.32211  0.03765  0.51835  1.0000
  C   C37       1.0  0.23866  0.08860  0.47306  1.0000
  H   H63       1.0  0.41028  0.04200  0.48259  1.0000
  H   H64       1.0  0.32211  0.99505  0.46061  1.0000
  H   H65       1.0  0.40736  0.00193  0.51377  1.0000
  C   C38       1.0  0.22668  0.16967  0.04814  1.0000
  H   H66       1.0  0.44631  0.00101  0.03528  1.0000
  H   H67       1.0  0.42244  0.03674  0.52701  1.0000
  H   H68       1.0  0.44412  0.01778  0.51853  1.0000
  H   H69       1.0  0.43689  0.05308  0.48771  1.0000
  H   H70       1.0  0.23174  0.11270  0.52701  1.0000
  H   H71       1.0  0.22131  0.05995  0.52735  1.0000
  C   C39       1.0  0.26264  0.10121  0.52854  1.0000
  H   H72       1.0  0.22915  0.18291  0.02917  1.0000
  Fe  Fe7       1.0  0.26400  0.02703  0.65747  1.0000
  S   S13       1.0  0.28192  0.05747  0.67815  1.0000
  H   H73       1.0  0.30463  0.99846  0.69278  1.0000
  Fe  Fe8       1.0  0.26518  0.04023  0.56523  1.0000
  S   S14       1.0  0.28358  0.07108  0.57966  1.0000
  Fe  Fe9       1.0  0.30049  0.05884  0.62255  1.0000
  S   S15       1.0  0.33370  0.07199  0.62598  1.0000
  Fe  Fe10      1.0  0.26331  0.06728  0.63375  1.0000
  S   S16       1.0  0.24968  0.08970  0.64679  1.0000
  S   S17       1.0  0.28395  0.02830  0.60370  1.0000
  S   S18       1.0  0.24349  0.03656  0.61718  1.0000
  Fe  Fe11      1.0  0.28161  0.20461  0.66376  1.0000
  H   H74       1.0  0.21262  0.08902  0.53174  1.0000
  S   S19       1.0  0.29429  0.18162  0.64908  1.0000
  H   H75       1.0  0.35465  0.03222  0.72515  1.0000
  S   S20       1.0  0.26338  0.20222  0.72069  1.0000
  N   N6        1.0  0.32322  0.01930  0.73624  1.0000
  H   H76       1.0  0.44190  0.02686  0.82632  1.0000
  H   H77       1.0  0.34699  0.03842  0.77398  1.0000
  H   H78       1.0  0.32922  0.04238  0.69165  1.0000
  H   H79       1.0  0.42653  0.03367  0.88946  1.0000
  H   H80       1.0  0.29770  0.02489  0.02441  1.0000
  C   C40       1.0  0.33682  0.03799  0.60303  1.0000
  H   H81       1.0  0.21681  0.23233  0.61449  1.0000
  H   H82       1.0  0.29440  0.18602  0.83131  1.0000
  H   H83       1.0  0.28310  0.17336  0.74063  1.0000
  H   H84       1.0  0.45607  0.02413  0.89566  1.0000
  C   C41       1.0  0.30982  0.01121  0.77158  1.0000
  C   C42       1.0  0.31879  0.03534  0.71718  1.0000
  Fe  Fe12      1.0  0.28319  0.23293  0.73237  1.0000
  N   N7        1.0  0.31039  0.18727  0.77486  1.0000
  H   H85       1.0  0.32320  0.99164  0.71852  1.0000
  C   C43       1.0  0.43186  0.01145  0.82940  1.0000
  H   H86       1.0  0.33777  0.19478  0.80947  1.0000
  H   H87       1.0  0.31955  0.17131  0.82119  1.0000
  C   C44       1.0  0.34519  0.05815  0.60159  1.0000
  H   H88       1.0  0.21587  0.14356  0.98690  1.0000
  H   H89       1.0  0.31243  0.20951  0.81870  1.0000
  C   C45       1.0  0.17596  0.21978  0.74895  1.0000
  H   H90       1.0  0.32641  0.19519  0.71752  1.0000
  C   C46       1.0  0.36303  0.06743  0.58070  1.0000
  H   H91       1.0  0.33998  0.01167  0.58535  1.0000
  C   C47       1.0  0.22857  0.09772  0.53821  1.0000
  C   C48       1.0  0.36372  0.03646  0.56120  1.0000
  C   C49       1.0  0.26245  0.11523  0.64786  1.0000
  C   C50       1.0  0.25174  0.12702  0.65639  1.0000
  C   C51       1.0  0.26119  0.14732  0.65683  1.0000
  C   C52       1.0  0.28150  0.15610  0.64847  1.0000
  C   C53       1.0  0.29220  0.14431  0.63993  1.0000
  C   C54       1.0  0.28277  0.12401  0.63963  1.0000
  H   H92       1.0  0.23602  0.12042  0.66279  1.0000
  H   H93       1.0  0.25273  0.15616  0.66347  1.0000
  H   H94       1.0  0.30791  0.15091  0.63348  1.0000
  H   H95       1.0  0.29125  0.11519  0.63309  1.0000
  S   S21       1.0  0.26235  0.21500  0.62253  1.0000
  C   C55       1.0  0.31948  0.20130  0.74132  1.0000
  H   H96       1.0  0.41320  0.01437  0.92410  1.0000
  H   H97       1.0  0.24045  0.14452  0.97587  1.0000
  C   C56       1.0  0.26557  0.22176  0.92105  1.0000
  H   H98       1.0  0.23450  0.16562  0.96851  1.0000
  C   C57       1.0  0.18445  0.20865  0.72756  1.0000
  H   H99       1.0  0.30131  0.16300  0.73346  1.0000
  H   H100      1.0  0.30810  0.20538  0.72480  1.0000
  C   C58       1.0  0.32589  0.18193  0.79572  1.0000
  H   H101      1.0  0.37345  0.00184  0.73095  1.0000
  S   S22       1.0  0.25293  0.21376  0.96845  1.0000
  C   C59       1.0  0.36243  0.98736  0.73339  1.0000
  H   H102      1.0  0.41815  0.00935  0.81068  1.0000
  C   C60       1.0  0.37215  0.05660  0.56009  1.0000
  H   H103      1.0  0.26551  0.10170  0.56265  1.0000
  C   C61       1.0  0.30129  0.19606  0.80525  1.0000
  H   H104      1.0  0.32332  0.03072  0.61992  1.0000
  H   H105      1.0  0.36962  0.08303  0.57982  1.0000
  H   H106      1.0  0.32002  0.04672  0.74018  1.0000
  C   C62       1.0  0.34407  0.02658  0.75119  1.0000
  H   H107      1.0  0.21878  0.99096  0.69887  1.0000
  Fe  Fe13      1.0  0.24596  0.21514  0.68066  1.0000
  H   H108      1.0  0.29394  0.00570  0.76141  1.0000
  C   C63       1.0  0.25682  0.21253  0.88392  1.0000
  C   C64       1.0  0.32020  0.00407  0.70504  1.0000
  C   C65       1.0  0.23693  0.06946  0.53464  1.0000
  H   H109      1.0  0.45310  0.99954  0.88588  1.0000
  H   H110      1.0  0.34773  0.01500  0.76696  1.0000
  H   H111      1.0  0.28772  0.15884  0.78119  1.0000
  H   H112      1.0  0.40285  0.01603  0.87383  1.0000
  Fe  Fe14      1.0  0.35927  0.99111  0.53790  1.0000
  H   H113      1.0  0.44218  0.00531  0.93073  1.0000
  C   C66       1.0  0.26626  0.21870  0.84555  1.0000
  C   C67       1.0  0.29496  0.16984  0.75696  1.0000
  H   H114      1.0  0.30684  0.00380  0.54401  1.0000
  S   S23       1.0  0.36892  0.00229  0.93600  1.0000
  S   S24       1.0  0.31987  0.00421  0.98986  1.0000
  C   C68       1.0  0.44463  0.98847  0.01685  1.0000
  H   H115      1.0  0.25928  0.21152  0.81723  1.0000
  S   S25       1.0  0.21272  0.20317  0.68072  1.0000
  C   C69       1.0  0.20214  0.21757  0.70596  1.0000
  H   H116      1.0  0.26890  0.16291  0.02304  1.0000
  H   H117      1.0  0.24262  0.20060  0.88481  1.0000
  H   H118      1.0  0.33102  0.21480  0.75345  1.0000
  H   H119      1.0  0.31277  0.99905  0.78663  1.0000
  H   H120      1.0  0.31172  0.02228  0.79580  1.0000
  H   H121      1.0  0.17751  0.19307  0.72841  1.0000
  H   H122      1.0  0.10153  0.22923  0.86075  1.0000
  C   C70       1.0  0.41364  0.98553  0.87564  1.0000
  N   N8        1.0  0.42702  0.00601  0.87328  1.0000
  S   S26       1.0  0.26229  0.00260  0.70308  1.0000
  H   H123      1.0  0.16250  0.21274  0.76636  1.0000
  H   H124      1.0  0.30344  0.03021  0.70391  1.0000
  H   H125      1.0  0.23064  0.09841  0.57262  1.0000
  C   C71       1.0  0.34624  0.02716  0.58333  1.0000
  H   H126      1.0  0.28949  0.20019  0.79051  1.0000
  S   S27       1.0  0.40746  0.98830  0.99793  1.0000
  H   H127      1.0  0.45381  0.99063  0.56038  1.0000
  S   S28       1.0  0.37489  0.02325  0.53346  1.0000
  S   S29       1.0  0.36591  0.99337  0.81766  1.0000
  H   H128      1.0  0.33307  0.17533  0.77349  1.0000
  H   H129      1.0  0.43936  0.00253  0.81514  1.0000
  H   H130      1.0  0.38574  0.06388  0.54324  1.0000
  Fe  Fe15      1.0  0.33891  0.98839  0.96526  1.0000
  H   H131      1.0  0.26287  0.18376  0.01251  1.0000
  H   H132      1.0  0.10832  0.22464  0.78597  1.0000
  C   C72       1.0  0.44543  0.00890  0.89731  1.0000
  H   H133      1.0  0.33027  0.00957  0.67817  1.0000
  C   C73       1.0  0.41698  0.01808  0.89087  1.0000
  C   C74       1.0  0.23196  0.15278  0.98893  1.0000
  H   H134      1.0  0.23881  0.06938  0.56896  1.0000
  H   H135      1.0  0.22457  0.22879  0.56377  1.0000
  H   H136      1.0  0.13419  0.23369  0.80024  1.0000
  Fe  Fe16      1.0  0.35381  0.37627  0.39384  1.0000
  S   S30       1.0  0.35399  0.40581  0.40630  1.0000
  S   S31       1.0  0.35254  0.36303  0.33002  1.0000
  Fe  Fe17      1.0  0.35596  0.36694  0.48684  1.0000
  H   H137      1.0  0.98740  0.39060  0.05930  1.0000
  S   S32       1.0  0.98070  0.33710  0.30954  1.0000
  Fe  Fe18      1.0  0.33317  0.39101  0.45800  1.0000
  S   S33       1.0  0.30438  0.39273  0.47756  1.0000
  Fe  Fe19      1.0  0.37858  0.40877  0.45299  1.0000
  H   H138      1.0  0.27451  0.31380  0.10998  1.0000
  S   S34       1.0  0.33079  0.36125  0.44151  1.0000
  S   S35       1.0  0.37926  0.37955  0.43777  1.0000
  H   H139      1.0  0.38496  0.40028  0.33320  1.0000
  S   S36       1.0  0.33690  0.37187  0.07179  1.0000
  H   H140      1.0  0.16568  0.28100  0.25997  1.0000
  H   H141      1.0  0.39580  0.37073  0.14328  1.0000
  C   C75       1.0  0.27411  0.33429  0.04103  1.0000
  Fe  Fe20      1.0  0.35482  0.40073  0.09957  1.0000
  S   S37       1.0  0.35176  0.41003  0.16511  1.0000
  C   C76       1.0  0.98067  0.36072  0.44104  1.0000
  S   S38       1.0  0.38399  0.40325  0.07204  1.0000
  C   C77       1.0  0.29601  0.34136  0.31219  1.0000
  Fe  Fe21      1.0  0.00051  0.28317  0.26078  1.0000
  S   S39       1.0  0.98885  0.30367  0.22933  1.0000
  C   C78       1.0  0.24044  0.25565  0.21080  1.0000
  Fe  Fe22      1.0  0.03973  0.31435  0.28650  1.0000
  S   S40       1.0  0.03058  0.33748  0.25783  1.0000
  S   S41       1.0  0.07051  0.32478  0.31751  1.0000
  Fe  Fe23      1.0  0.00065  0.32203  0.28617  1.0000
  C   C79       1.0  0.99652  0.38388  0.07681  1.0000
  Fe  Fe24      1.0  0.01961  0.31734  0.20388  1.0000
  S   S42       1.0  0.02682  0.33036  0.13929  1.0000
  S   S43       1.0  0.01043  0.30040  0.31940  1.0000
  S   S44       1.0  0.03049  0.29522  0.23059  1.0000
  Fe  Fe25      1.0  0.16909  0.30151  0.34765  1.0000
  S   S45       1.0  0.17661  0.27810  0.37938  1.0000
  S   S46       1.0  0.13967  0.29128  0.31096  1.0000
  Fe  Fe26      1.0  0.21108  0.33050  0.36438  1.0000
  S   S47       1.0  0.22125  0.30912  0.39691  1.0000
  S   S48       1.0  0.23448  0.35893  0.34651  1.0000
  Fe  Fe27      1.0  0.20538  0.28941  0.34491  1.0000
  S   S49       1.0  0.21839  0.26916  0.31599  1.0000
  Fe  Fe28      1.0  0.19181  0.29991  0.42874  1.0000
  C   C80       1.0  0.37349  0.31491  0.04294  1.0000
  S   S50       1.0  0.19718  0.31139  0.31028  1.0000
  S   S51       1.0  0.18238  0.32283  0.39945  1.0000
  H   H142      1.0  0.29756  0.34127  0.27791  1.0000
  S   S52       1.0  0.33428  0.26498  0.08759  1.0000
  H   H143      1.0  0.24544  0.24441  0.20124  1.0000
  C   C81       1.0  0.22717  0.27018  0.26461  1.0000
  C   C82       1.0  0.22733  0.28460  0.23638  1.0000
  C   C83       1.0  0.23377  0.28435  0.19538  1.0000
  C   C84       1.0  0.23387  0.25582  0.25165  1.0000
  H   H144      1.0  0.22240  0.29587  0.24597  1.0000
  H   H145      1.0  0.23364  0.29542  0.17361  1.0000
  C   C85       1.0  0.12042  0.30054  0.31402  1.0000
  C   C86       1.0  0.12236  0.31654  0.33831  1.0000
  C   C87       1.0  0.10682  0.32356  0.33937  1.0000
  C   C88       1.0  0.08912  0.31463  0.31645  1.0000
  C   C89       1.0  0.08718  0.29864  0.29207  1.0000
  C   C90       1.0  0.10276  0.29169  0.29082  1.0000
  H   H146      1.0  0.13581  0.32353  0.35633  1.0000
  H   H147      1.0  0.10852  0.33595  0.35828  1.0000
  H   H148      1.0  0.07364  0.29156  0.27439  1.0000
  H   H149      1.0  0.10105  0.27927  0.27203  1.0000
  C   C91       1.0  0.99282  0.35039  0.43221  1.0000
  H   H150      1.0  0.00210  0.34802  0.45655  1.0000
  C   C92       1.0  0.99310  0.34312  0.39213  1.0000
  C   C93       1.0  0.98141  0.34637  0.36027  1.0000
  H   H151      1.0  0.35804  0.32128  0.14220  1.0000
  H   H152      1.0  0.41451  0.42117  0.26364  1.0000
  S   S53       1.0  0.98417  0.25100  0.26166  1.0000
  H   H153      1.0  0.00244  0.33512  0.38589  1.0000
  H   H154      1.0  0.37857  0.31489  0.19948  1.0000
  H   H155      1.0  0.40652  0.44115  0.25909  1.0000
  H   H156      1.0  0.17123  0.24905  0.31459  1.0000
  C   C94       1.0  0.14093  0.24702  0.23186  1.0000
  S   S54       1.0  0.37741  0.35216  0.03427  1.0000
  Fe  Fe29      1.0  0.36535  0.37563  0.03979  1.0000
  C   C95       1.0  0.34432  0.28872  0.06811  1.0000
  H   H157      1.0  0.21445  0.32791  0.51017  1.0000
  H   H158      1.0  0.37777  0.33486  0.22887  1.0000
  H   H159      1.0  0.02863  0.33898  0.05184  1.0000
  H   H160      1.0  0.43652  0.43635  0.32365  1.0000
  H   H161      1.0  0.17318  0.24201  0.20139  1.0000
  C   C96       1.0  0.39578  0.36237  0.17219  1.0000
  H   H162      1.0  0.39361  0.45213  0.32036  1.0000
  H   H163      1.0  0.18731  0.27500  0.26466  1.0000
  C   C97       1.0  0.40035  0.41027  0.34065  1.0000
  C   C98       1.0  0.01224  0.28365  0.06376  1.0000
  C   C99       1.0  0.01612  0.29530  0.09937  1.0000
  C   C100      1.0  0.02193  0.31528  0.09528  1.0000
  C   C101      1.0  0.02392  0.32352  0.05537  1.0000
  C   C102      1.0  0.36543  0.33682  0.15038  1.0000
  H   H164      1.0  0.00796  0.26821  0.06709  1.0000
  H   H165      1.0  0.01481  0.28884  0.12995  1.0000
  C   C103      1.0  0.99742  0.35515  0.11021  1.0000
  H   H166      1.0  0.97946  0.26354  0.11917  1.0000
  C   C104      1.0  0.28514  0.38276  0.44098  1.0000
  C   C105      1.0  0.26564  0.37291  0.45450  1.0000
  C   C106      1.0  0.25010  0.36496  0.42559  1.0000
  C   C107      1.0  0.25388  0.36774  0.38311  1.0000
  C   C108      1.0  0.27335  0.37774  0.36956  1.0000
  C   C109      1.0  0.28905  0.38481  0.39845  1.0000
  H   H167      1.0  0.26247  0.37152  0.48732  1.0000
  H   H168      1.0  0.23506  0.35739  0.43615  1.0000
  H   H169      1.0  0.27627  0.38006  0.33672  1.0000
  H   H170      1.0  0.30405  0.39256  0.38788  1.0000
  C   C110      1.0  0.96893  0.36392  0.40918  1.0000
  H   H171      1.0  0.31695  0.32413  0.50001  1.0000
  H   H172      1.0  0.38857  0.41712  0.26509  1.0000
  C   C111      1.0  0.35102  0.37561  0.28419  1.0000
  C   C112      1.0  0.34755  0.39274  0.28551  1.0000
  C   C113      1.0  0.34745  0.40294  0.24862  1.0000
  C   C114      1.0  0.35070  0.39604  0.21015  1.0000
  C   C115      1.0  0.35360  0.37862  0.20867  1.0000
  C   C116      1.0  0.35374  0.36842  0.24563  1.0000
  H   H173      1.0  0.34490  0.39813  0.31489  1.0000
  H   H174      1.0  0.34491  0.41629  0.24987  1.0000
  H   H175      1.0  0.35587  0.37318  0.17903  1.0000
  H   H176      1.0  0.35612  0.35502  0.24455  1.0000
  N   N9        1.0  0.27766  0.32572  0.32633  1.0000
  C   C117      1.0  0.27818  0.30680  0.31511  1.0000
  C   C118      1.0  0.26019  0.32791  0.30618  1.0000
  C   C119      1.0  0.27623  0.32678  0.37190  1.0000
  H   H177      1.0  0.29616  0.35581  0.32082  1.0000
  H   H178      1.0  0.29109  0.30452  0.32998  1.0000
  H   H179      1.0  0.27929  0.30549  0.28093  1.0000
  H   H180      1.0  0.24604  0.31669  0.31709  1.0000
  H   H181      1.0  0.26050  0.32670  0.27185  1.0000
  H   H182      1.0  0.25957  0.34221  0.31303  1.0000
  H   H183      1.0  0.26302  0.31473  0.38393  1.0000
  H   H184      1.0  0.27483  0.34049  0.38133  1.0000
  H   H185      1.0  0.28961  0.32605  0.38799  1.0000
  C   C120      1.0  0.36410  0.29572  0.05550  1.0000
  S   S55       1.0  0.40866  0.43437  0.44679  1.0000
  H   H186      1.0  0.28870  0.34645  0.04503  1.0000
  C   C121      1.0  0.39720  0.33558  0.13321  1.0000
  C   C122      1.0  0.42527  0.44230  0.33292  1.0000
  H   H187      1.0  0.35628  0.34002  0.17439  1.0000
  C   C123      1.0  0.17027  0.23889  0.23504  1.0000
  H   H188      1.0  0.40129  0.33373  0.21586  1.0000
  Fe  Fe30      1.0  0.26139  0.24849  0.10850  1.0000
  C   C124      1.0  0.41288  0.46397  0.50330  1.0000
  H   H189      1.0  0.00958  0.38561  0.05712  1.0000
  H   H190      1.0  0.98933  0.33955  0.11700  1.0000
  H   H191      1.0  0.23387  0.24463  0.27326  1.0000
  H   H192      1.0  0.00228  0.36255  0.14052  1.0000
  N   N10       1.0  0.38609  0.34139  0.16500  1.0000
  H   H193      1.0  0.41151  0.36639  0.18253  1.0000
  Fe  Fe31      1.0  0.30134  0.24807  0.08671  1.0000
  C   C125      1.0  0.17296  0.27146  0.24771  1.0000
  S   S56       1.0  0.34767  0.41730  0.04719  1.0000
  H   H194      1.0  0.42929  0.45682  0.31844  1.0000
  H   H195      1.0  0.41064  0.40332  0.33055  1.0000
  H   H196      1.0  0.31855  0.29576  0.07783  1.0000
  C   C126      1.0  0.24029  0.26984  0.18234  1.0000
  C   C127      1.0  0.96949  0.35694  0.36894  1.0000
  H   H197      1.0  0.96750  0.25859  0.04680  1.0000
  H   H198      1.0  0.41275  0.33845  0.14340  1.0000
  C   C128      1.0  0.39054  0.43768  0.33447  1.0000
  S   S57       1.0  0.24782  0.26975  0.13024  1.0000
  H   H199      1.0  0.39794  0.34361  0.10357  1.0000
  H   H200      1.0  0.24604  0.29995  0.06207  1.0000
  H   H201      1.0  0.00205  0.39236  0.10563  1.0000
  H   H202      1.0  0.42667  0.44435  0.36721  1.0000
  S   S58       1.0  0.35744  0.39633  0.50590  1.0000
  N   N11       1.0  0.16025  0.25091  0.25301  1.0000
  H   H203      1.0  0.28203  0.35270  0.51368  1.0000
  H   H204      1.0  0.39105  0.43941  0.36883  1.0000
  C   C129      1.0  0.33378  0.30111  0.06765  1.0000
  H   H205      1.0  0.38797  0.36726  0.19637  1.0000
  H   H206      1.0  0.37505  0.42831  0.32575  1.0000
  C   C130      1.0  0.42155  0.45685  0.47233  1.0000
  H   H207      1.0  0.28589  0.29886  0.08754  1.0000
  H   H208      1.0  0.44811  0.46277  0.43659  1.0000
  H   H209      1.0  0.36495  0.34541  0.12223  1.0000
  N   N12       1.0  0.09032  0.34763  0.20094  1.0000
  C   C131      1.0  0.07720  0.32705  0.19892  1.0000
  C   C132      1.0  0.07955  0.35866  0.22015  1.0000
  C   C133      1.0  0.09621  0.35499  0.15846  1.0000
  C   C134      1.0  0.10818  0.34976  0.22627  1.0000
  H   H210      1.0  0.06346  0.32492  0.18034  1.0000
  H   H211      1.0  0.07254  0.32105  0.23045  1.0000
  H   H212      1.0  0.08477  0.31820  0.18472  1.0000
  H   H213      1.0  0.08891  0.37429  0.22206  1.0000
  H   H214      1.0  0.06580  0.35714  0.20219  1.0000
  H   H215      1.0  0.07502  0.35353  0.25242  1.0000
  H   H216      1.0  0.10441  0.34699  0.14312  1.0000
  H   H217      1.0  0.10598  0.37055  0.15867  1.0000
  H   H218      1.0  0.08292  0.35338  0.13871  1.0000
  H   H219      1.0  0.11863  0.36506  0.22785  1.0000
  H   H220      1.0  0.11633  0.34106  0.21371  1.0000
  H   H221      1.0  0.10414  0.34479  0.25880  1.0000
  S   S59       1.0  0.98110  0.36981  0.49183  1.0000
  S   S60       1.0  0.28374  0.24061  0.14552  1.0000
  C   C135      1.0  0.38594  0.33076  0.20404  1.0000
  H   H222      1.0  0.39001  0.31991  0.12606  1.0000
  H   H223      1.0  0.37229  0.28623  0.05566  1.0000
  H   H224      1.0  0.23174  0.25432  0.51064  1.0000
  S   S61       1.0  0.18746  0.28804  0.49491  1.0000
  C   C136      1.0  0.40362  0.42712  0.27515  1.0000
  C   C137      1.0  0.36343  0.32758  0.04395  1.0000
  H   H225      1.0  0.26440  0.29472  0.32509  1.0000
  C   C138      1.0  0.44113  0.46809  0.46030  1.0000
  H   H226      1.0  0.30952  0.34005  0.32649  1.0000
  N   N13       1.0  0.40495  0.42934  0.32078  1.0000
  N   N14       1.0  0.98491  0.36335  0.08618  1.0000
  H   H227      1.0  0.17636  0.27533  0.21451  1.0000
  H   H228      1.0  0.40159  0.41145  0.37504  1.0000
  S   S62       1.0  0.27993  0.25751  0.05074  1.0000
  H   H229      1.0  0.46439  0.46775  0.03695  1.0000
  H   H230      1.0  0.18492  0.24167  0.25063  1.0000
  H   H231      1.0  0.39787  0.45559  0.51298  1.0000
  H   H232      1.0  0.01107  0.35652  0.09303  1.0000
  H   H233      1.0  0.14286  0.25045  0.19813  1.0000
  C   C139      1.0  0.34341  0.32065  0.05580  1.0000
  H   H234      1.0  0.33562  0.33041  0.05686  1.0000
  H   H235      1.0  0.97570  0.29073  0.07690  1.0000
  C   C140      1.0  0.25656  0.29979  0.03738  1.0000
  C   C141      1.0  0.97847  0.35267  0.04689  1.0000
  C   C142      1.0  0.28443  0.31313  0.08451  1.0000
  H   H236      1.0  0.29936  0.32454  0.09006  1.0000
  C   C143      1.0  0.15693  0.24640  0.29770  1.0000
  H   H237      1.0  0.26406  0.33567  0.06545  1.0000
  N   N15       1.0  0.27624  0.31540  0.04336  1.0000
  H   H238      1.0  0.25763  0.28533  0.03888  1.0000
  H   H239      1.0  0.38887  0.32011  0.03354  1.0000
  C   C144      1.0  0.42366  0.48198  0.52197  1.0000
  H   H240      1.0  0.97155  0.36948  0.14067  1.0000
  H   H241      1.0  0.30692  0.35360  0.51950  1.0000
  H   H242      1.0  0.13315  0.25596  0.24521  1.0000
  H   H243      1.0  0.42929  0.44469  0.03182  1.0000
  H   H244      1.0  0.28936  0.29404  0.52157  1.0000
  H   H245      1.0  0.14965  0.25545  0.31236  1.0000
  H   H246      1.0  0.96899  0.33727  0.05259  1.0000
  C   C145      1.0  0.96728  0.36169  0.11068  1.0000
  H   H247      1.0  0.96514  0.26885  0.15845  1.0000
  C   C146      1.0  0.31841  0.31660  0.52792  1.0000
  H   H248      1.0  0.23016  0.27706  0.52286  1.0000
  H   H249      1.0  0.30631  0.35028  0.63432  1.0000
  S   S63       1.0  0.26408  0.24573  0.69711  1.0000
  S   S64       1.0  0.99855  0.40106  0.97067  1.0000
  H   H250      1.0  0.28630  0.33149  0.52989  1.0000
  S   S65       1.0  0.28425  0.26799  0.59018  1.0000
  H   H251      1.0  0.23092  0.28264  0.84319  1.0000
  C   C147      1.0  0.22806  0.26763  0.83322  1.0000
  Fe  Fe32      1.0  0.02649  0.32512  0.86217  1.0000
  S   S66       1.0  0.99726  0.30572  0.88755  1.0000
  S   S67       1.0  0.03866  0.35747  0.85876  1.0000
  Fe  Fe33      1.0  0.03824  0.29233  0.83540  1.0000
  S   S68       1.0  0.00935  0.26977  0.85828  1.0000
  S   S69       1.0  0.06285  0.28707  0.79994  1.0000
  Fe  Fe34      1.0  0.99398  0.28825  0.82938  1.0000
  Fe  Fe35      1.0  0.01447  0.28893  0.91457  1.0000
  S   S70       1.0  0.00848  0.27658  0.98008  1.0000
  S   S71       1.0  0.02233  0.30919  0.80228  1.0000
  S   S72       1.0  0.04425  0.30988  0.89356  1.0000
  H   H252      1.0  0.96669  0.40590  0.75340  1.0000
  S   S73       1.0  0.30072  0.38197  0.98995  1.0000
  S   S74       1.0  0.35942  0.39042  0.98287  1.0000
  Fe  Fe36      1.0  0.18946  0.28542  0.77451  1.0000
  S   S75       1.0  0.22043  0.30284  0.75477  1.0000
  S   S76       1.0  0.17429  0.25324  0.77697  1.0000
  Fe  Fe37      1.0  0.18065  0.31995  0.80004  1.0000
  S   S77       1.0  0.21150  0.34083  0.78256  1.0000
  S   S78       1.0  0.15644  0.32668  0.83350  1.0000
  Fe  Fe38      1.0  0.20697  0.32240  0.72516  1.0000
  S   S79       1.0  0.21857  0.33524  0.66191  1.0000
  Fe  Fe39      1.0  0.22317  0.31985  0.81339  1.0000
  S   S80       1.0  0.25212  0.32326  0.84842  1.0000
  S   S81       1.0  0.17544  0.30343  0.74043  1.0000
  S   S82       1.0  0.19287  0.30055  0.83520  1.0000
  C   C148      1.0  0.21096  0.23774  0.70453  1.0000
  C   C149      1.0  0.01409  0.29185  0.02384  1.0000
  C   C150      1.0  0.20905  0.32232  0.61559  1.0000
  C   C151      1.0  0.19524  0.30333  0.61649  1.0000
  C   C152      1.0  0.18841  0.29325  0.57917  1.0000
  H   H253      1.0  0.19589  0.26046  0.54627  1.0000
  H   H254      1.0  0.11223  0.25284  0.88326  1.0000
  C   C153      1.0  0.21583  0.33113  0.57702  1.0000
  H   H255      1.0  0.18978  0.29644  0.64593  1.0000
  H   H256      1.0  0.17757  0.27863  0.58022  1.0000
  H   H257      1.0  0.30064  0.33018  0.59978  1.0000
  H   H258      1.0  0.22618  0.34594  0.57602  1.0000
  C   C154      1.0  0.20216  0.24891  0.72514  1.0000
  H   H259      1.0  0.98976  0.34916  0.77805  1.0000
  C   C155      1.0  0.43398  0.45815  0.01470  1.0000
  H   H260      1.0  0.31004  0.39946  0.89246  1.0000
  H   H261      1.0  0.24994  0.27072  0.54468  1.0000
  C   C156      1.0  0.28780  0.36591  0.94969  1.0000
  C   C157      1.0  0.29541  0.35333  0.93129  1.0000
  C   C158      1.0  0.28431  0.34046  0.90024  1.0000
  C   C159      1.0  0.26561  0.34015  0.88691  1.0000
  C   C160      1.0  0.25811  0.35286  0.90514  1.0000
  C   C161      1.0  0.26912  0.36559  0.93645  1.0000
  H   H262      1.0  0.30978  0.35341  0.94107  1.0000
  H   H263      1.0  0.29029  0.33073  0.88627  1.0000
  H   H264      1.0  0.24374  0.35276  0.89535  1.0000
  H   H265      1.0  0.26305  0.37522  0.95058  1.0000
  C   C162      1.0  0.08877  0.29888  0.80936  1.0000
  C   C163      1.0  0.10215  0.29972  0.77757  1.0000
  C   C164      1.0  0.12288  0.30797  0.78454  1.0000
  C   C165      1.0  0.13048  0.31577  0.82331  1.0000
  C   C166      1.0  0.11709  0.31519  0.85489  1.0000
  C   C167      1.0  0.09637  0.30662  0.84813  1.0000
  H   H266      1.0  0.09644  0.29381  0.74740  1.0000
  H   H267      1.0  0.13297  0.30854  0.75973  1.0000
  H   H268      1.0  0.12280  0.32116  0.88500  1.0000
  H   H269      1.0  0.08627  0.30574  0.87313  1.0000
  H   H270      1.0  0.12586  0.24463  0.75810  1.0000
  H   H271      1.0  0.97526  0.37128  0.80902  1.0000
  C   C168      1.0  0.28983  0.31438  0.01054  1.0000
  H   H272      1.0  0.22985  0.24086  0.78125  1.0000
  H   H273      1.0  0.98275  0.36560  0.85907  1.0000
  H   H274      1.0  0.13954  0.27676  0.78898  1.0000
  H   H275      1.0  0.30009  0.37940  0.61189  1.0000
  H   H276      1.0  0.97043  0.33137  0.88322  1.0000
  C   C169      1.0  0.98408  0.33930  0.80502  1.0000
  H   H277      1.0  0.27138  0.34889  0.62671  1.0000
  H   H278      1.0  0.30468  0.32625  0.01351  1.0000
  C   C170      1.0  0.31924  0.42853  0.94647  1.0000
  C   C171      1.0  0.25397  0.27867  0.78199  1.0000
  H   H279      1.0  0.22184  0.25793  0.86019  1.0000
  S   S83       1.0  0.29641  0.24332  0.79625  1.0000
  C   C172      1.0  0.30463  0.28923  0.57591  1.0000
  C   C173      1.0  0.32221  0.29636  0.59943  1.0000
  H   H280      1.0  0.33653  0.43686  0.84784  1.0000
  C   C174      1.0  0.29332  0.24338  0.88111  1.0000
  H   H281      1.0  0.22439  0.24471  0.68720  1.0000
  C   C175      1.0  0.27181  0.34472  0.59377  1.0000
  H   H282      1.0  0.32385  0.28866  0.62699  1.0000
  C   C176      1.0  0.32758  0.43764  0.87503  1.0000
  H   H283      1.0  0.96952  0.35890  0.02746  1.0000
  H   H284      1.0  0.02149  0.31833  0.98915  1.0000
  C   C177      1.0  0.02764  0.36910  0.89149  1.0000
  C   C178      1.0  0.01058  0.35870  0.91401  1.0000
  C   C179      1.0  0.29179  0.34743  0.53307  1.0000
  H   H285      1.0  0.00443  0.34320  0.91286  1.0000
  H   H286      1.0  0.26796  0.27778  0.77026  1.0000
  H   H287      1.0  0.27569  0.26994  0.84059  1.0000
  C   C180      1.0  0.11483  0.24291  0.86062  1.0000
  H   H288      1.0  0.31163  0.43150  0.86544  1.0000
  H   H289      1.0  0.35595  0.42797  0.95016  1.0000
  H   H290      1.0  0.25724  0.29400  0.79031  1.0000
  H   H291      1.0  0.99625  0.34301  0.82869  1.0000
  H   H292      1.0  0.26584  0.32869  0.59253  1.0000
  H   H293      1.0  0.32930  0.39840  0.92650  1.0000
  N   N16       1.0  0.33140  0.42712  0.91116  1.0000
  H   H294      1.0  0.30746  0.25541  0.88023  1.0000
  N   N17       1.0  0.24634  0.26571  0.81800  1.0000
  H   H295      1.0  0.12775  0.23961  0.87223  1.0000
  H   H296      1.0  0.26519  0.28608  0.86188  1.0000
  C   C181      1.0  0.33776  0.31355  0.58730  1.0000
  C   C182      1.0  0.42681  0.47996  0.96732  1.0000
  C   C183      1.0  0.03584  0.38921  0.89411  1.0000
  H   H297      1.0  0.03346  0.41448  0.92112  1.0000
  Fe  Fe40      1.0  0.33191  0.38845  0.01688  1.0000
  H   H298      1.0  0.24979  0.30110  0.00682  1.0000
  H   H299      1.0  0.24054  0.27581  0.61641  1.0000
  H   H300      1.0  0.13457  0.28026  0.84199  1.0000
  H   H301      1.0  0.33146  0.45316  0.88218  1.0000
  H   H302      1.0  0.35726  0.45107  0.93214  1.0000
  Fe  Fe41      1.0  0.28186  0.24538  0.64069  1.0000
  C   C184      1.0  0.18485  0.23990  0.74801  1.0000
  S   S84       1.0  0.35585  0.34559  0.53818  1.0000
  Fe  Fe42      1.0  0.96541  0.38966  0.96448  1.0000
  C   C185      1.0  0.32615  0.40664  0.90023  1.0000
  C   C186      1.0  0.35266  0.43568  0.92305  1.0000
  C   C187      1.0  0.02700  0.39891  0.91906  1.0000
  N   N18       1.0  0.22133  0.25599  0.57205  1.0000
  N   N19       1.0  0.09071  0.35782  0.80720  1.0000
  C   C188      1.0  0.09027  0.37708  0.79813  1.0000
  C   C189      1.0  0.10897  0.35654  0.79012  1.0000
  C   C190      1.0  0.07313  0.34290  0.78793  1.0000
  C   C191      1.0  0.09039  0.35474  0.85263  1.0000
  H   H303      1.0  0.09023  0.37981  0.76410  1.0000
  H   H304      1.0  0.10336  0.38873  0.81202  1.0000
  H   H305      1.0  0.07666  0.37844  0.81096  1.0000
  H   H306      1.0  0.10953  0.34206  0.79589  1.0000
  H   H307      1.0  0.10981  0.35898  0.75594  1.0000
  H   H308      1.0  0.12260  0.36733  0.80445  1.0000
  H   H309      1.0  0.07314  0.34434  0.75353  1.0000
  H   H310      1.0  0.05912  0.34387  0.79914  1.0000
  H   H311      1.0  0.07249  0.32814  0.79538  1.0000
  H   H312      1.0  0.07685  0.35569  0.86657  1.0000
  H   H313      1.0  0.10354  0.36563  0.86820  1.0000
  H   H314      1.0  0.09036  0.34026  0.86065  1.0000
  H   H315      1.0  0.23662  0.23543  0.83213  1.0000
  C   C192      1.0  0.28446  0.23431  0.84394  1.0000
  C   C193      1.0  0.42025  0.46233  0.98936  1.0000
  C   C194      1.0  0.00131  0.36844  0.93785  1.0000
  C   C195      1.0  0.97053  0.36097  0.83556  1.0000
  H   H316      1.0  0.33476  0.40503  0.87322  1.0000
  H   H317      1.0  0.30305  0.42121  0.93971  1.0000
  H   H318      1.0  0.20878  0.26443  0.72344  1.0000
  H   H319      1.0  0.26133  0.34967  0.57589  1.0000
  C   C196      1.0  0.19538  0.30196  0.54060  1.0000
  H   H320      1.0  0.24302  0.27490  0.75586  1.0000
  H   H321      1.0  0.98798  0.36037  0.95461  1.0000
  C   C197      1.0  0.00957  0.38858  0.94041  1.0000
  H   H322      1.0  0.36245  0.43493  0.89745  1.0000
  H   H323      1.0  0.32248  0.42154  0.97482  1.0000
  C   C198      1.0  0.24177  0.24555  0.80539  1.0000
  N   N20       1.0  0.11854  0.25163  0.81867  1.0000
  H   H324      1.0  0.10345  0.26257  0.77309  1.0000
  H   H325      1.0  0.32224  0.44379  0.95454  1.0000
  H   H326      1.0  0.08738  0.24271  0.80328  1.0000
  C   C199      1.0  0.45393  0.47131  0.01757  1.0000
  S   S85       1.0  0.39502  0.44592  0.98282  1.0000
  C   C200      1.0  0.12181  0.23802  0.78948  1.0000
  C   C201      1.0  0.29937  0.37443  0.57929  1.0000
  H   H327      1.0  0.21629  0.26394  0.80869  1.0000
  C   C202      1.0  0.30282  0.29949  0.54018  1.0000
  N   N21       1.0  0.96598  0.34093  0.82207  1.0000
  C   C203      1.0  0.13636  0.26966  0.82001  1.0000
  H   H328      1.0  0.98120  0.32435  0.79449  1.0000
  C   C204      1.0  0.30558  0.34618  0.60109  1.0000
  C   C205      1.0  0.28393  0.23716  0.91951  1.0000
  H   H329      1.0  0.35129  0.31894  0.60574  1.0000
  C   C206      1.0  0.22643  0.23980  0.58807  1.0000
  H   H330      1.0  0.04906  0.39734  0.87686  1.0000
  H   H331      1.0  0.28386  0.31564  0.97906  1.0000
  H   H332      1.0  0.28948  0.38018  0.56147  1.0000
  C   C207      1.0  0.23386  0.26493  0.53596  1.0000
  H   H333      1.0  0.19022  0.24217  0.58582  1.0000
  N   N22       1.0  0.29213  0.35318  0.57687  1.0000
  H   H334      1.0  0.29218  0.30049  0.01195  1.0000
  C   C208      1.0  0.26161  0.27098  0.85137  1.0000
  Fe  Fe43      1.0  0.37595  0.41812  0.01761  1.0000
  C   C209      1.0  0.20908  0.32100  0.53965  1.0000
  H   H335      1.0  0.14982  0.26691  0.82996  1.0000
  H   H336      1.0  0.25661  0.26126  0.87883  1.0000
  H   H337      1.0  0.97318  0.25497  0.74760  1.0000
  H   H338      1.0  0.32103  0.35226  0.58886  1.0000
  C   C210      1.0  0.20017  0.24869  0.55919  1.0000
  H   H339      1.0  0.09824  0.26615  0.82602  1.0000
  C   C211      1.0  0.33597  0.32379  0.55154  1.0000
  H   H340      1.0  0.31450  0.38131  0.56586  1.0000
  H   H341      1.0  0.25506  0.24376  0.79230  1.0000
  H   H342      1.0  0.29089  0.24434  0.94786  1.0000
  C   C212      1.0  0.10116  0.25594  0.80465  1.0000
  H   H343      1.0  0.19694  0.23753  0.53469  1.0000
  H   H344      1.0  0.21500  0.26463  0.63193  1.0000
  H   H345      1.0  0.22191  0.28334  0.59331  1.0000
  C   C213      1.0  0.22486  0.27058  0.60492  1.0000
  C   C214      1.0  0.01996  0.31186  0.01976  1.0000
  H   H346      1.0  0.41637  0.48347  0.94781  1.0000
  H   H347      1.0  0.24214  0.24484  0.59921  1.0000
  H   H348      1.0  0.45280  0.46393  0.88496  1.0000
  H   H349      1.0  0.26787  0.33645  0.01042  1.0000
  S   S86       1.0  0.30285  0.23514  0.67728  1.0000
  H   H350      1.0  0.99143  0.35313  0.02825  1.0000
  S   S87       1.0  0.04193  0.72630  0.41113  1.0000
  Fe  Fe44      1.0  0.99797  0.72443  0.33792  1.0000
  H   H351      1.0  0.43375  0.54960  0.38143  1.0000
  H   H352      1.0  0.07181  0.68503  0.38271  1.0000
  H   H353      1.0  0.01700  0.51978  0.14480  1.0000
  C   C215      1.0  0.46226  0.56771  0.43762  1.0000
  C   C216      1.0  0.00026  0.53413  0.08496  1.0000
  Fe  Fe45      1.0  0.02246  0.70229  0.37083  1.0000
  S   S88       1.0  0.99392  0.70403  0.39179  1.0000
  S   S89       1.0  0.02719  0.67445  0.36425  1.0000
  H   H354      1.0  0.43248  0.55970  0.49339  1.0000
  H   H355      1.0  0.06531  0.70237  0.40998  1.0000
  C   C217      1.0  0.43804  0.54809  0.48646  1.0000
  H   H356      1.0  0.45017  0.54951  0.50922  1.0000
  C   C218      1.0  0.01320  0.65723  0.40056  1.0000
  C   C219      1.0  0.00535  0.66288  0.43512  1.0000
  C   C220      1.0  0.99357  0.64899  0.46318  1.0000
  C   C221      1.0  0.98941  0.62937  0.45658  1.0000
  C   C222      1.0  0.99717  0.62369  0.42190  1.0000
  C   C223      1.0  0.00921  0.63763  0.39411  1.0000
  H   H357      1.0  0.00850  0.67799  0.44049  1.0000
  H   H358      1.0  0.99418  0.60858  0.41687  1.0000
  H   H359      1.0  0.01529  0.63319  0.36744  1.0000
  H   H360      1.0  0.01672  0.53946  0.08265  1.0000
  C   C224      1.0  0.44331  0.49311  0.51028  1.0000
  H   H361      1.0  0.98247  0.66071  0.34738  1.0000
  H   H362      1.0  0.97225  0.64427  0.04293  1.0000
  H   H363      1.0  0.98742  0.65346  0.48963  1.0000
  H   H364      1.0  0.08793  0.69913  0.42331  1.0000
  C   C225      1.0  0.42891  0.54867  0.41427  1.0000
  N   N23       1.0  0.08883  0.71456  0.36602  1.0000
  H   H365      1.0  0.06862  0.70031  0.31631  1.0000
  S   S90       1.0  0.02528  0.72077  0.31434  1.0000
  C   C226      1.0  0.07511  0.71462  0.33168  1.0000
  H   H366      1.0  0.97684  0.69006  0.25914  1.0000
  H   H367      1.0  0.06248  0.71804  0.34311  1.0000
  C   C227      1.0  0.00052  0.51501  0.14558  1.0000
  H   H368      1.0  0.45836  0.58045  0.44392  1.0000
  N   N24       1.0  0.44512  0.54938  0.44332  1.0000
  C   C228      1.0  0.07809  0.69964  0.39689  1.0000
  H   H369      1.0  0.08262  0.72576  0.30781  1.0000
  H   H370      1.0  0.42394  0.56083  0.41963  1.0000
  C   C229      1.0  0.96620  0.55767  0.24207  1.0000
  H   H371      1.0  0.43899  0.51891  0.44062  1.0000
  S   S91       1.0  0.97459  0.61228  0.49216  1.0000
  S   S92       1.0  0.97044  0.72233  0.29937  1.0000
  C   C230      1.0  0.45129  0.53305  0.43498  1.0000
  H   H372      1.0  0.99655  0.54472  0.10371  1.0000
  H   H373      1.0  0.11622  0.71010  0.37444  1.0000
  H   H374      1.0  0.97249  0.64432  0.09883  1.0000
  H   H375      1.0  0.98827  0.64344  0.31766  1.0000
  C   C231      1.0  0.97758  0.65083  0.32031  1.0000
  N   N25       1.0  0.99201  0.51459  0.10346  1.0000
  H   H376      1.0  0.42592  0.53392  0.49287  1.0000
  H   H377      1.0  0.99092  0.50066  0.04497  1.0000
  H   H378      1.0  0.41576  0.53498  0.41801  1.0000
  H   H379      1.0  0.02545  0.70659  0.50312  1.0000
  C   C232      1.0  0.10555  0.71025  0.34937  1.0000
  H   H380      1.0  0.99694  0.52520  0.16600  1.0000
  S   S93       1.0  0.98088  0.56755  0.03679  1.0000
  H   H381      1.0  0.99069  0.48604  0.08960  1.0000
  H   H382      1.0  0.97909  0.66001  0.29218  1.0000
  H   H383      1.0  0.99426  0.53433  0.05305  1.0000
  H   H384      1.0  0.97226  0.49087  0.51579  1.0000
  H   H385      1.0  0.10019  0.69589  0.33405  1.0000
  C   C233      1.0  0.45196  0.48605  0.47914  1.0000
  Fe  Fe46      1.0  0.01369  0.72981  0.42796  1.0000
  H   H386      1.0  0.01336  0.50524  0.07451  1.0000
  H   H387      1.0  0.45633  0.53330  0.40249  1.0000
  H   H388      1.0  0.11392  0.72123  0.32593  1.0000
  H   H389      1.0  0.99458  0.50052  0.16060  1.0000
  C   C234      1.0  0.99700  0.50103  0.07710  1.0000
  S   S94       1.0  0.97375  0.55965  0.15847  1.0000
  H   H390      1.0  0.97665  0.55051  0.24464  1.0000
  C   C235      1.0  0.97018  0.50825  0.10617  1.0000
  H   H391      1.0  0.96588  0.51832  0.12544  1.0000
  C   C236      1.0  0.09659  0.73372  0.38599  1.0000
  H   H392      1.0  0.46385  0.53345  0.45564  1.0000
  H   H393      1.0  0.96554  0.61634  0.35971  1.0000
  Fe  Fe47      1.0  0.03225  0.70719  0.72015  1.0000
  S   S95       1.0  0.03369  0.69846  0.65295  1.0000
  Fe  Fe48      1.0  0.02914  0.68983  0.80943  1.0000
  H   H394      1.0  0.97427  0.64096  0.66952  1.0000
  S   S96       1.0  0.02972  0.66420  0.84825  1.0000
  Fe  Fe49      1.0  0.00851  0.71684  0.78522  1.0000
  S   S97       1.0  0.02913  0.71698  0.83809  1.0000
  S   S98       1.0  0.00684  0.68854  0.75956  1.0000
  S   S99       1.0  0.05478  0.70582  0.76750  1.0000
  H   H395      1.0  0.09124  0.71053  0.97016  1.0000
  C   C237      1.0  0.44668  0.49324  0.97065  1.0000
  H   H396      1.0  0.45123  0.50683  0.95407  1.0000
  H   H397      1.0  0.10723  0.71898  0.92617  1.0000
  H   H398      1.0  0.04423  0.69849  0.90910  1.0000
  N   N26       1.0  0.07615  0.71114  0.91261  1.0000
  C   C238      1.0  0.05687  0.69700  0.92686  1.0000
  S   S100      1.0  0.45593  0.51594  0.53460  1.0000
  C   C239      1.0  0.01159  0.64949  0.88376  1.0000
  C   C240      1.0  0.99594  0.65448  0.89748  1.0000
  C   C241      1.0  0.98245  0.64280  0.92705  1.0000
  C   C242      1.0  0.98425  0.62587  0.94294  1.0000
  C   C243      1.0  0.99976  0.62080  0.92887  1.0000
  C   C244      1.0  0.01339  0.63261  0.89971  1.0000
  H   H399      1.0  0.99446  0.66749  0.88581  1.0000
  C   C245      1.0  0.98219  0.66651  0.60698  1.0000
  H   H400      1.0  0.00141  0.60789  0.94078  1.0000
  H   H401      1.0  0.02542  0.62860  0.88941  1.0000
  C   C246      1.0  0.02757  0.70993  0.60925  1.0000
  H   H402      1.0  0.06654  0.71052  0.84959  1.0000
  C   C247      1.0  0.02988  0.70388  0.56913  1.0000
  C   C248      1.0  0.02381  0.71157  0.53373  1.0000
  H   H403      1.0  0.03644  0.69320  0.56534  1.0000
  H   H404      1.0  0.98236  0.67182  0.57451  1.0000
  H   H405      1.0  0.99157  0.63010  0.65509  1.0000
  N   N27       1.0  0.98671  0.64881  0.60874  1.0000
  C   C249      1.0  0.09251  0.70847  0.93634  1.0000
  H   H406      1.0  0.09279  0.71854  0.85591  1.0000
  C   C250      1.0  0.07842  0.70817  0.86806  1.0000
  H   H407      1.0  0.98443  0.70751  0.71339  1.0000
  C   C251      1.0  0.01941  0.72402  0.61357  1.0000
  H   H408      1.0  0.05580  0.68190  0.92217  1.0000
  H   H409      1.0  0.96869  0.63689  0.55476  1.0000
  H   H410      1.0  0.01835  0.66361  0.60408  1.0000
  S   S101      1.0  0.97886  0.71896  0.79611  1.0000
  H   H411      1.0  0.07740  0.69323  0.86159  1.0000
  H   H412      1.0  0.97061  0.73365  0.61975  1.0000
  C   C252      1.0  0.01361  0.73192  0.57813  1.0000
  H   H413      1.0  0.00549  0.65709  0.55517  1.0000
  C   C253      1.0  0.01554  0.72558  0.53805  1.0000
  H   H414      1.0  0.05449  0.69879  0.96031  1.0000
  C   C254      1.0  0.07680  0.73094  0.91886  1.0000
  H   H415      1.0  0.09249  0.69372  0.93184  1.0000
  C   C255      1.0  0.46050  0.48895  0.99556  1.0000
  H   H416      1.0  0.01764  0.72888  0.64422  1.0000
  H   H417      1.0  0.97808  0.48417  0.96383  1.0000
  C   C256      1.0  0.00576  0.65228  0.58789  1.0000
  H   H418      1.0  0.99330  0.67835  0.62508  1.0000
  H   H419      1.0  0.41675  0.48723  0.54598  1.0000
  H   H420      1.0  0.00921  0.63899  0.58722  1.0000
  H   H421      1.0  0.46047  0.49776  0.86825  1.0000
  C   C257      1.0  0.96868  0.70328  0.71855  1.0000
  Fe  Fe50      1.0  0.05384  0.73332  0.79410  1.0000
  H   H422      1.0  0.00048  0.65512  0.66920  1.0000
  H   H423      1.0  0.97386  0.70956  0.57343  1.0000
  S   S102      1.0  0.96717  0.61214  0.98132  1.0000
  C   C258      1.0  0.98828  0.64346  0.65259  1.0000
  C   C259      1.0  0.97062  0.63300  0.58755  1.0000
  H   H424      1.0  0.97061  0.64696  0.93785  1.0000
  H   H425      1.0  0.97387  0.61958  0.58660  1.0000
  H   H426      1.0  0.96734  0.66400  0.62021  1.0000
  S   S103      1.0  0.96792  0.51642  0.98634  1.0000
  H   H427      1.0  0.06473  0.73348  0.90097  1.0000
  H   H428      1.0  0.07515  0.73384  0.95207  1.0000
  Fe  Fe51      1.0  0.19308  0.88222  0.22768  1.0000
  S   S104      1.0  0.16886  0.89194  0.24797  1.0000
  S   S105      1.0  0.19257  0.87012  0.16266  1.0000
  Fe  Fe52      1.0  0.21032  0.88478  0.31658  1.0000
  S   S106      1.0  0.18605  0.89301  0.34182  1.0000
  S   S107      1.0  0.23358  0.88278  0.36320  1.0000
  Fe  Fe53      1.0  0.16451  0.87051  0.30046  1.0000
  S   S108      1.0  0.13210  0.85262  0.31828  1.0000
  Fe  Fe54      1.0  0.19270  0.91330  0.28730  1.0000
  S   S109      1.0  0.19923  0.94397  0.30743  1.0000
  S   S110      1.0  0.18826  0.86030  0.27942  1.0000
  S   S111      1.0  0.21748  0.90550  0.26276  1.0000
  H   H429      1.0  0.19140  0.92612  0.38989  1.0000
  S   S112      1.0  0.30089  0.95397  0.45327  1.0000
  S   S113      1.0  0.35674  0.97467  0.47934  1.0000
  H   H430      1.0  0.10798  0.80900  0.21095  1.0000
  S   S114      1.0  0.01608  0.75093  0.37541  1.0000
  S   S115      1.0  0.07532  0.76305  0.33357  1.0000
  C   C260      1.0  0.45800  0.93512  0.16531  1.0000
  C   C261      1.0  0.20727  0.97772  0.20428  1.0000
  C   C262      1.0  0.45228  0.96875  0.46792  1.0000
  H   H431      1.0  0.22653  0.89875  0.05742  1.0000
  H   H432      1.0  0.23523  0.92236  0.44613  1.0000
  S   S116      1.0  0.00633  0.73461  0.49458  1.0000
  Fe  Fe55      1.0  0.36830  0.95594  0.51807  1.0000
  H   H433      1.0  0.44022  0.89153  0.51284  1.0000
  C   C263      1.0  0.20766  0.96347  0.27226  1.0000
  H   H434      1.0  0.44403  0.95981  0.08967  1.0000
  C   C264      1.0  0.21951  0.98176  0.28735  1.0000
  C   C265      1.0  0.20185  0.96139  0.23042  1.0000
  H   H435      1.0  0.25267  0.95351  0.18415  1.0000
  H   H436      1.0  0.46193  0.96744  0.44390  1.0000
  H   H437      1.0  0.19250  0.94737  0.21870  1.0000
  C   C266      1.0  0.11692  0.82759  0.32427  1.0000
  C   C267      1.0  0.09686  0.82237  0.33534  1.0000
  C   C268      1.0  0.08398  0.80281  0.33888  1.0000
  C   C269      1.0  0.09093  0.78809  0.33100  1.0000
  C   C270      1.0  0.11099  0.79329  0.31981  1.0000
  C   C271      1.0  0.12393  0.81285  0.31673  1.0000
  H   H438      1.0  0.09120  0.83357  0.34127  1.0000
  H   H439      1.0  0.06864  0.79915  0.34748  1.0000
  H   H440      1.0  0.11663  0.78210  0.31377  1.0000
  H   H441      1.0  0.13934  0.81649  0.30880  1.0000
  C   C272      1.0  0.25308  0.90261  0.38639  1.0000
  C   C273      1.0  0.25794  0.92156  0.37214  1.0000
  C   C274      1.0  0.27298  0.93696  0.39232  1.0000
  C   C275      1.0  0.28340  0.93370  0.42695  1.0000
  C   C276      1.0  0.27882  0.91473  0.44072  1.0000
  C   C277      1.0  0.26376  0.89931  0.42052  1.0000
  H   H442      1.0  0.25013  0.92430  0.34547  1.0000
  H   H443      1.0  0.27663  0.95152  0.38090  1.0000
  H   H444      1.0  0.28667  0.91193  0.46726  1.0000
  H   H445      1.0  0.26024  0.88471  0.43169  1.0000
  H   H446      1.0  0.09845  0.82590  0.18790  1.0000
  C   C278      1.0  0.43151  0.95910  0.46404  1.0000
  S   S117      1.0  0.39268  0.94816  0.48831  1.0000
  H   H447      1.0  0.42534  0.95026  0.43708  1.0000
  H   H448      1.0  0.28752  0.97354  0.20329  1.0000
  H   H449      1.0  0.18520  0.92513  0.44373  1.0000
  H   H450      1.0  0.14840  0.86527  0.17653  1.0000
  C   C279      1.0  0.18663  0.86987  0.07836  1.0000
  C   C280      1.0  0.18975  0.88081  0.11485  1.0000
  C   C281      1.0  0.19124  0.89998  0.11208  1.0000
  C   C282      1.0  0.19012  0.90822  0.07301  1.0000
  H   H451      1.0  0.18538  0.85501  0.08022  1.0000
  H   H452      1.0  0.19358  0.90854  0.13994  1.0000
  H   H453      1.0  0.19160  0.92315  0.07111  1.0000
  H   H454      1.0  0.23726  0.95244  0.47960  1.0000
  C   C283      1.0  0.23794  0.89236  0.05309  1.0000
  H   H455      1.0  0.46142  0.92895  0.08358  1.0000
  H   H456      1.0  0.12978  0.81333  0.14853  1.0000
  H   H457      1.0  0.21190  0.94125  0.49582  1.0000
  C   C284      1.0  0.46046  0.98016  0.50267  1.0000
  C   C285      1.0  0.18531  0.87805  0.03935  1.0000
  H   H458      1.0  0.14666  0.83712  0.13449  1.0000
  H   H459      1.0  0.21967  0.96336  0.46635  1.0000
  C   C286      1.0  0.13182  0.82883  0.14816  1.0000
  C   C287      1.0  0.13336  0.85636  0.18842  1.0000
  N   N28       1.0  0.26821  0.98304  0.16538  1.0000
  H   H460      1.0  0.20975  0.91062  0.46137  1.0000
  H   H461      1.0  0.24542  0.95398  0.40604  1.0000
  H   H462      1.0  0.43429  0.95400  0.14113  1.0000
  N   N29       1.0  0.13038  0.83571  0.19036  1.0000
  C   C288      1.0  0.14590  0.83318  0.21728  1.0000
  C   C289      1.0  0.11058  0.82459  0.20771  1.0000
  H   H463      1.0  0.14370  0.81772  0.22104  1.0000
  N   N30       1.0  0.21652  0.93814  0.43101  1.0000
  H   H464      1.0  0.22643  0.96266  0.38969  1.0000
  H   H465      1.0  0.12036  0.83055  0.12687  1.0000
  H   H466      1.0  0.43186  0.93509  0.10487  1.0000
  C   C290      1.0  0.41866  0.96094  0.49446  1.0000
  H   H467      1.0  0.21639  0.91118  0.40790  1.0000
  C   C291      1.0  0.22945  0.94947  0.39742  1.0000
  C   C292      1.0  0.21958  0.91981  0.43696  1.0000
  H   H468      1.0  0.45069  0.93900  0.19196  1.0000
  C   C293      1.0  0.25011  0.96718  0.17979  1.0000
  H   H469      1.0  0.24510  0.97070  0.21010  1.0000
  H   H470      1.0  0.16100  0.84085  0.20448  1.0000
  H   H471      1.0  0.19265  0.94756  0.41520  1.0000
  H   H472      1.0  0.14585  0.83905  0.24876  1.0000
  H   H473      1.0  0.44849  0.92027  0.15538  1.0000
  C   C294      1.0  0.18736  0.89738  0.03643  1.0000
  H   H474      1.0  0.23753  0.96440  0.15736  1.0000
  Fe  Fe56      1.0  0.04342  0.74557  0.35575  1.0000
  H   H475      1.0  0.10903  0.82984  0.23922  1.0000
  H   H476      1.0  0.13192  0.86186  0.21975  1.0000
  Fe  Fe57      1.0  0.32597  0.95599  0.49976  1.0000
  C   C295      1.0  0.19552  0.93405  0.41969  1.0000
  H   H477      1.0  0.20219  0.97619  0.17230  1.0000
  C   C296      1.0  0.44200  0.94950  0.11608  1.0000
  C   C297      1.0  0.22155  0.94931  0.46994  1.0000
  H   H478      1.0  0.10452  0.74536  0.36341  1.0000
  H   H479      1.0  0.12219  0.85891  0.16768  1.0000
  H   H480      1.0  0.42752  0.90768  0.52117  1.0000
  H   H481      1.0  0.22700  0.94091  0.36835  1.0000
  H   H482      1.0  0.27829  0.96462  0.12901  1.0000
  N   N31       1.0  0.46125  0.94909  0.13076  1.0000
  C   C298      1.0  0.27470  0.97777  0.12564  1.0000
  H   H483      1.0  0.25016  0.89935  0.07585  1.0000
  H   H484      1.0  0.23100  0.87681  0.06161  1.0000
  H   H485      1.0  0.22389  0.98349  0.31975  1.0000
  H   H486      1.0  0.26303  0.97506  0.10110  1.0000
  H   H487      1.0  0.44787  0.92909  0.46701  1.0000
  H   H488      1.0  0.46157  0.91378  0.45931  1.0000
  H   H489      1.0  0.08439  0.73753  0.39876  1.0000
  C   C299      1.0  0.46085  0.92585  0.47829  1.0000
  N   N32       1.0  0.45941  0.92104  0.52303  1.0000
  H   H490      1.0  0.10702  0.73429  0.41205  1.0000
  H   H491      1.0  0.25842  0.91839  0.96705  1.0000
  S   S118      1.0  0.32608  0.96975  0.90916  1.0000
  S   S119      1.0  0.08399  0.75347  0.82155  1.0000
  Fe  Fe58      1.0  0.18709  0.89552  0.92430  1.0000
  S   S120      1.0  0.18517  0.86573  0.90773  1.0000
  S   S121      1.0  0.18766  0.90889  0.98785  1.0000
  Fe  Fe59      1.0  0.19077  0.90935  0.83271  1.0000
  S   S122      1.0  0.18883  0.88049  0.80933  1.0000
  S   S123      1.0  0.19111  0.93443  0.79078  1.0000
  Fe  Fe60      1.0  0.16432  0.86667  0.85549  1.0000
  S   S124      1.0  0.13315  0.84501  0.83714  1.0000
  Fe  Fe61      1.0  0.20955  0.88173  0.86289  1.0000
  S   S125      1.0  0.23623  0.87386  0.85356  1.0000
  S   S126      1.0  0.16480  0.89574  0.87531  1.0000
  S   S127      1.0  0.21306  0.91133  0.88320  1.0000
  C   C300      1.0  0.24643  0.97073  0.75377  1.0000
  H   H492      1.0  0.29317  0.90590  0.76118  1.0000
  H   H493      1.0  0.14798  0.92646  0.89400  1.0000
  H   H494      1.0  0.18290  0.86945  0.01154  1.0000
  H   H495      1.0  0.18099  0.93369  0.92657  1.0000
  C   C301      1.0  0.22888  0.88455  0.98108  1.0000
  Fe  Fe62      1.0  0.34097  0.95522  0.58991  1.0000
  S   S128      1.0  0.32972  0.94436  0.65476  1.0000
  C   C302      1.0  0.18095  0.97024  0.86300  1.0000
  Fe  Fe63      1.0  0.33642  0.94857  0.94177  1.0000
  S   S129      1.0  0.31829  0.91674  0.94589  1.0000
  C   C303      1.0  0.45945  0.93780  0.54698  1.0000
  H   H496      1.0  0.20029  0.95705  0.92053  1.0000
  H   H497      1.0  0.43915  0.90032  0.56414  1.0000
  S   S130      1.0  0.36636  0.95889  0.91142  1.0000
  H   H498      1.0  0.97848  0.74274  0.54569  1.0000
  H   H499      1.0  0.00765  0.74303  0.58190  1.0000
  C   C304      1.0  0.27371  0.92152  0.70959  1.0000
  N   N33       1.0  0.17215  0.95411  0.89257  1.0000
  H   H500      1.0  0.19282  0.94088  0.87742  1.0000
  H   H501      1.0  0.41088  0.95512  0.95517  1.0000
  C   C305      1.0  0.34045  0.95799  0.69967  1.0000
  C   C306      1.0  0.33427  0.94990  0.73907  1.0000
  C   C307      1.0  0.34196  0.96051  0.77549  1.0000
  H   H502      1.0  0.17801  0.97266  0.94567  1.0000
  Fe  Fe64      1.0  0.37681  0.97866  0.96611  1.0000
  N   N34       1.0  0.24530  0.89506  0.01003  1.0000
  H   H503      1.0  0.32370  0.93523  0.74141  1.0000
  H   H504      1.0  0.33711  0.95407  0.80563  1.0000
  C   C308      1.0  0.44762  0.98192  0.53326  1.0000
  C   C309      1.0  0.25915  0.88688  0.87790  1.0000
  C   C310      1.0  0.27189  0.87721  0.88685  1.0000
  C   C311      1.0  0.29023  0.88678  0.90653  1.0000
  C   C312      1.0  0.29636  0.90633  0.91629  1.0000
  C   C313      1.0  0.28402  0.91638  0.90586  1.0000
  C   C314      1.0  0.26524  0.90656  0.88718  1.0000
  H   H505      1.0  0.26739  0.86207  0.87937  1.0000
  H   H506      1.0  0.29964  0.87893  0.91461  1.0000
  H   H507      1.0  0.28864  0.93148  0.91364  1.0000
  H   H508      1.0  0.25557  0.91420  0.87984  1.0000
  C   C315      1.0  0.21118  0.95303  0.76623  1.0000
  C   C316      1.0  0.23106  0.95551  0.77345  1.0000
  H   H509      1.0  0.25615  0.87200  0.01527  1.0000
  C   C317      1.0  0.20695  0.96599  0.73927  1.0000
  H   H510      1.0  0.23456  0.94583  0.79446  1.0000
  H   H511      1.0  0.41715  0.97384  0.55302  1.0000
  H   H512      1.0  0.15952  0.93319  0.84441  1.0000
  C   C318      1.0  0.09749  0.77902  0.82449  1.0000
  C   C319      1.0  0.08932  0.79248  0.81192  1.0000
  C   C320      1.0  0.10048  0.81249  0.81597  1.0000
  C   C321      1.0  0.12002  0.81946  0.83233  1.0000
  C   C322      1.0  0.12823  0.80599  0.84473  1.0000
  C   C323      1.0  0.11702  0.78597  0.84097  1.0000
  H   H513      1.0  0.07437  0.78751  0.79924  1.0000
  H   H514      1.0  0.09390  0.82268  0.80624  1.0000
  H   H515      1.0  0.14319  0.81100  0.85731  1.0000
  H   H516      1.0  0.12361  0.77580  0.85072  1.0000
  H   H517      1.0  0.17002  0.97667  0.85309  1.0000
  H   H518      1.0  0.15390  0.96710  0.92203  1.0000
  C   C324      1.0  0.16544  0.96112  0.92993  1.0000
  H   H519      1.0  0.27561  0.92912  0.81364  1.0000
  C   C325      1.0  0.15498  0.93891  0.87263  1.0000
  C   C326      1.0  0.27856  0.93291  0.78027  1.0000
  C   C327      1.0  0.24731  0.90839  0.75930  1.0000
  H   H520      1.0  0.26988  0.88766  0.74558  1.0000
  C   C328      1.0  0.42660  0.97891  0.99539  1.0000
  H   H521      1.0  0.19165  0.96421  0.73340  1.0000
  H   H522      1.0  0.29498  0.93904  0.77656  1.0000
  H   H523      1.0  0.29004  0.92715  0.70401  1.0000
  H   H524      1.0  0.27440  0.89560  0.02650  1.0000
  H   H525      1.0  0.24335  0.90438  0.79229  1.0000
  H   H526      1.0  0.26675  0.90903  0.68850  1.0000
  C   C329      1.0  0.42469  0.96280  0.97146  1.0000
  H   H527      1.0  0.27291  0.94450  0.77276  1.0000
  H   H528      1.0  0.26173  0.97260  0.75975  1.0000
  C   C330      1.0  0.44074  0.95660  0.96853  1.0000
  C   C331      1.0  0.35460  0.97680  0.69699  1.0000
  H   H529      1.0  0.21689  0.89041  0.98160  1.0000
  H   H530      1.0  0.23966  0.89520  0.74053  1.0000
  S   S131      1.0  0.34748  0.96627  0.99947  1.0000
  H   H531      1.0  0.43914  0.94420  0.94971  1.0000
  N   N35       1.0  0.26909  0.91590  0.75352  1.0000
  C   C332      1.0  0.45881  0.96625  0.98972  1.0000
  C   C333      1.0  0.26134  0.88753  0.00647  1.0000
  H   H532      1.0  0.27352  0.89613  0.79791  1.0000
  C   C334      1.0  0.18723  0.94611  0.90483  1.0000
  H   H533      1.0  0.26822  0.93299  0.69987  1.0000
  C   C335      1.0  0.27678  0.90076  0.76501  1.0000
  H   H534      1.0  0.15894  0.94925  0.95296  1.0000
  H   H535      1.0  0.18604  0.96532  0.83437  1.0000
  H   H536      1.0  0.24086  0.91924  0.75011  1.0000
  H   H537      1.0  0.22211  0.86893  0.98894  1.0000
  S   S132      1.0  0.37275  0.97372  0.57568  1.0000
  H   H538      1.0  0.14334  0.94443  0.86274  1.0000
  H   H539      1.0  0.23408  0.88572  0.94847  1.0000
  H   H540      1.0  0.26679  0.88879  0.97414  1.0000
  S   S133      1.0  0.32784  0.97417  0.55613  1.0000
  H   H541      1.0  0.24124  0.92195  0.00215  1.0000
  H   H542      1.0  0.19411  0.98187  0.87676  1.0000
  C   C336      1.0  0.25301  0.91583  0.99945  1.0000
  H   H543      1.0  0.44645  0.94161  0.53853  1.0000
  C   C337      1.0  0.35610  0.97930  0.77279  1.0000
  H   H544      1.0  0.26568  0.92422  0.02009  1.0000
  H   H545      1.0  0.42082  0.97585  0.86375  1.0000
  C   C338      1.0  0.44075  0.90439  0.53068  1.0000
  C   C339      1.0  0.22232  0.98118  0.71956  1.0000
  H   H546      1.0  0.35954  0.98318  0.66686  1.0000
  S   S134      1.0  0.03284  0.73571  0.74333  1.0000
  C   C340      1.0  0.46064  0.98218  0.01415  1.0000
  Fe  Fe65      1.0  0.35685  0.98165  0.88298  1.0000
  H   H547      1.0  0.40929  0.98114  0.90824  1.0000
  S   S135      1.0  0.33713  0.93555  0.53461  1.0000
  H   H548      1.0  0.45883  0.93488  0.58096  1.0000
  H   H549      1.0  0.09104  0.74197  0.90772  1.0000
  H   H550      1.0  0.39973  0.98277  0.85719  1.0000
  C   C341      1.0  0.42683  0.97248  0.52909  1.0000
  C   C342      1.0  0.24218  0.98366  0.72671  1.0000
  Fe  Fe66      1.0  0.68867  0.04338  0.06658  1.0000
  S   S136      1.0  0.69274  0.07399  0.08117  1.0000
  Fe  Fe67      1.0  0.69093  0.03268  0.15888  1.0000
  S   S137      1.0  0.69483  0.06244  0.17998  1.0000
  S   S138      1.0  0.69413  0.01144  0.20709  1.0000
  Fe  Fe68      1.0  0.67108  0.06004  0.13240  1.0000
  S   S139      1.0  0.64564  0.06882  0.14877  1.0000
  Fe  Fe69      1.0  0.71643  0.07385  0.12763  1.0000
  S   S140      1.0  0.74914  0.09456  0.13600  1.0000
  S   S141      1.0  0.66555  0.02954  0.11521  1.0000
  S   S142      1.0  0.71379  0.04390  0.10887  1.0000
  Fe  Fe70      1.0  0.82835  0.20347  0.20387  1.0000
  H   H551      1.0  0.61775  0.08407  0.11706  1.0000
  S   S143      1.0  0.79598  0.18224  0.19439  1.0000
  Fe  Fe71      1.0  0.85622  0.23305  0.26601  1.0000
  C   C343      1.0  0.61561  0.03793  0.11260  1.0000
  S   S144      1.0  0.85220  0.20269  0.24912  1.0000
  H   H552      1.0  0.88786  0.20104  0.36629  1.0000
  H   H553      1.0  0.74765  0.07432  0.22437  1.0000
  Fe  Fe72      1.0  0.55312  0.98672  0.47922  1.0000
  H   H554      1.0  0.62401  0.02922  0.12161  1.0000
  C   C344      1.0  0.74079  0.05864  0.21727  1.0000
  C   C345      1.0  0.67398  0.99072  0.22458  1.0000
  H   H555      1.0  0.76508  0.20764  0.08543  1.0000
  S   S145      1.0  0.56236  0.03060  0.05744  1.0000
  C   C346      1.0  0.58570  0.04048  0.08241  1.0000
  N   N36       1.0  0.79672  0.21574  0.09005  1.0000
  H   H556      1.0  0.73091  0.05722  0.18995  1.0000
  S   S146      1.0  0.53946  0.00656  0.45030  1.0000
  H   H557      1.0  0.78440  0.21324  0.15125  1.0000
  S   S147      1.0  0.84970  0.21543  0.15139  1.0000
  C   C347      1.0  0.61339  0.02612  0.22656  1.0000
  C   C348      1.0  0.76921  0.05308  0.24501  1.0000
  C   C349      1.0  0.79552  0.19556  0.08973  1.0000
  C   C350      1.0  0.53769  0.99391  0.24469  1.0000
  H   H558      1.0  0.78079  0.04698  0.23956  1.0000
  H   H559      1.0  0.54444  0.00943  0.24232  1.0000
  H   H560      1.0  0.59921  0.02549  0.30369  1.0000
  C   C351      1.0  0.53346  0.98517  0.28407  1.0000
  C   C352      1.0  0.76764  0.06045  0.17215  1.0000
  Fe  Fe73      1.0  0.50995  0.98540  0.47378  1.0000
  C   C353      1.0  0.85432  0.20968  0.45044  1.0000
  C   C354      1.0  0.85054  0.20067  0.41148  1.0000
  C   C355      1.0  0.85258  0.21156  0.37470  1.0000
  H   H561      1.0  0.61809  0.06342  0.22200  1.0000
  H   H562      1.0  0.84587  0.18516  0.40972  1.0000
  H   H563      1.0  0.84950  0.20442  0.34496  1.0000
  C   C356      1.0  0.62326  0.05776  0.12094  1.0000
  H   H564      1.0  0.60570  0.01074  0.21765  1.0000
  H   H565      1.0  0.65192  0.99469  0.18423  1.0000
  H   H566      1.0  0.57314  0.03877  0.21609  1.0000
  H   H567      1.0  0.57650  0.01770  0.19703  1.0000
  C   C357      1.0  0.81475  0.22824  0.06801  1.0000
  H   H568      1.0  0.59978  0.06227  0.25997  1.0000
  H   H569      1.0  0.58513  0.06904  0.08168  1.0000
  H   H570      1.0  0.77693  0.06865  0.25248  1.0000
  H   H571      1.0  0.59048  0.01390  0.08886  1.0000
  C   C358      1.0  0.76177  0.11904  0.15216  1.0000
  C   C359      1.0  0.75169  0.13077  0.16442  1.0000
  C   C360      1.0  0.76243  0.14996  0.17725  1.0000
  C   C361      1.0  0.78339  0.15776  0.17819  1.0000
  C   C362      1.0  0.79348  0.14606  0.16577  1.0000
  C   C363      1.0  0.78274  0.12687  0.15292  1.0000
  H   H572      1.0  0.73561  0.12507  0.16410  1.0000
  H   H573      1.0  0.75439  0.15879  0.18678  1.0000
  H   H574      1.0  0.80955  0.15177  0.16611  1.0000
  H   H575      1.0  0.79077  0.11804  0.14339  1.0000
  S   S148      1.0  0.48648  0.99261  0.50887  1.0000
  H   H576      1.0  0.73559  0.02717  0.17236  1.0000
  H   H577      1.0  0.77935  0.05482  0.16462  1.0000
  C   C364      1.0  0.92288  0.22162  0.20194  1.0000
  H   H578      1.0  0.62132  0.05717  0.27478  1.0000
  C   C365      1.0  0.90344  0.20397  0.35685  1.0000
  H   H579      1.0  0.93174  0.19738  0.19554  1.0000
  S   S149      1.0  0.58458  0.99407  0.50599  1.0000
  H   H580      1.0  0.81023  0.16279  0.50645  1.0000
  S   S150      1.0  0.85179  0.19531  0.49567  1.0000
  N   N37       1.0  0.59913  0.03469  0.24008  1.0000
  H   H581      1.0  0.73685  0.02166  0.22610  1.0000
  Fe  Fe74      1.0  0.54626  0.99852  0.05276  1.0000
  C   C366      1.0  0.93618  0.21218  0.20561  1.0000
  S   S151      1.0  0.54047  0.99988  0.32874  1.0000
  H   H582      1.0  0.73114  0.05108  0.24361  1.0000
  H   H583      1.0  0.57766  0.03037  0.28849  1.0000
  N   N38       1.0  0.75592  0.05045  0.20847  1.0000
  H   H584      1.0  0.78218  0.18577  0.10658  1.0000
  C   C367      1.0  0.59663  0.02923  0.09411  1.0000
  C   C368      1.0  0.61203  0.06879  0.11030  1.0000
  H   H585      1.0  0.75799  0.05871  0.14404  1.0000
  C   C369      1.0  0.95503  0.22155  0.22332  1.0000
  H   H586      1.0  0.77498  0.07627  0.17752  1.0000
  C   C370      1.0  0.74597  0.02965  0.19944  1.0000
  H   H587      1.0  0.80866  0.19412  0.10559  1.0000
  H   H588      1.0  0.76071  0.04579  0.27293  1.0000
  H   H589      1.0  0.59173  0.04122  0.17840  1.0000
  H   H590      1.0  0.79477  0.19003  0.05761  1.0000
  H   H591      1.0  0.75684  0.02292  0.19234  1.0000
  C   C371      1.0  0.59352  0.06027  0.09046  1.0000
  C   C372      1.0  0.61003  0.05529  0.24971  1.0000
  C   C373      1.0  0.58447  0.03298  0.20647  1.0000
  H   H592      1.0  0.62202  0.03398  0.19928  1.0000
  H   H593      1.0  0.58033  0.00881  0.27134  1.0000
  H   H594      1.0  0.77933  0.23195  0.06932  1.0000
  C   C374      1.0  0.77890  0.21691  0.06935  1.0000
  H   H595      1.0  0.83661  0.15088  0.49367  1.0000
  Fe  Fe75      1.0  0.87364  0.21736  0.19812  1.0000
  C   C375      1.0  0.58868  0.02441  0.27748  1.0000
  H   H596      1.0  0.62439  0.02677  0.25154  1.0000
  S   S152      1.0  0.89907  0.20873  0.18118  1.0000
  H   H597      1.0  0.81459  0.22386  0.03512  1.0000
  H   H598      1.0  0.53652  0.98964  0.17825  1.0000
  Fe  Fe76      1.0  0.53329  0.98733  0.39398  1.0000
  H   H599      1.0  0.80128  0.12837  0.48576  1.0000
  C   C376      1.0  0.90184  0.22649  0.30418  1.0000
  S   S153      1.0  0.83104  0.23321  0.22466  1.0000
  H   H600      1.0  0.63585  0.00112  0.03662  1.0000
  H   H601      1.0  0.77765  0.21207  0.03654  1.0000
  H   H602      1.0  0.96502  0.21391  0.22699  1.0000
  H   H603      1.0  0.88619  0.22385  0.31217  1.0000
  C   C377      1.0  0.79772  0.22229  0.13339  1.0000
  N   N39       1.0  0.91312  0.22384  0.34072  1.0000
  C   C378      1.0  0.86024  0.22974  0.45235  1.0000
  H   H604      1.0  0.82847  0.22774  0.08302  1.0000
  H   H605      1.0  0.93405  0.21729  0.30323  1.0000
  S   S154      1.0  0.51552  0.98451  0.07862  1.0000
  H   H606      1.0  0.90140  0.21636  0.27877  1.0000
  C   C379      1.0  0.85857  0.23161  0.37654  1.0000
  H   H607      1.0  0.90289  0.19314  0.33291  1.0000
  H   H608      1.0  0.80577  0.11171  0.52141  1.0000
  C   C380      1.0  0.65476  0.98577  0.20818  1.0000
  H   H609      1.0  0.61453  0.00400  0.05815  1.0000
  H   H610      1.0  0.47449  0.98987  0.03035  1.0000
  C   C381      1.0  0.80157  0.12455  0.51921  1.0000
  H   H611      1.0  0.81080  0.22122  0.14977  1.0000
  H   H612      1.0  0.91150  0.20141  0.38453  1.0000
  H   H613      1.0  0.94260  0.22486  0.35510  1.0000
  C   C382      1.0  0.83582  0.14624  0.52680  1.0000
  C   C383      1.0  0.93372  0.22716  0.32859  1.0000
  C   C384      1.0  0.62017  0.99948  0.02994  1.0000
  H   H614      1.0  0.74097  0.02166  0.79148  1.0000
  Fe  Fe77      1.0  0.88198  0.21598  0.63989  1.0000
  S   S155      1.0  0.85747  0.21740  0.67934  1.0000
  S   S156      1.0  0.68289  0.02893  0.00314  1.0000
  Fe  Fe78      1.0  0.85534  0.20720  0.56122  1.0000
  S   S157      1.0  0.82916  0.20904  0.59514  1.0000
  H   H615      1.0  0.81921  0.16997  0.55795  1.0000
  Fe  Fe79      1.0  0.83653  0.19139  0.64481  1.0000
  S   S158      1.0  0.81430  0.16564  0.68010  1.0000
  H   H616      1.0  0.73526  0.00818  0.86358  1.0000
  S   S159      1.0  0.86175  0.18834  0.60978  1.0000
  Fe  Fe80      1.0  0.68727  0.06431  0.76984  1.0000
  S   S160      1.0  0.71585  0.06636  0.74059  1.0000
  S   S161      1.0  0.68845  0.07598  0.83501  1.0000
  Fe  Fe81      1.0  0.66253  0.04748  0.69095  1.0000
  S   S162      1.0  0.68953  0.04856  0.65571  1.0000
  S   S163      1.0  0.62947  0.03519  0.67210  1.0000
  Fe  Fe82      1.0  0.69769  0.03707  0.71507  1.0000
  S   S164      1.0  0.71151  0.01474  0.71921  1.0000
  Fe  Fe83      1.0  0.70570  0.07808  0.68418  1.0000
  S   S165      1.0  0.72591  0.10420  0.64608  1.0000
  S   S166      1.0  0.67002  0.03411  0.74883  1.0000
  S   S167      1.0  0.67782  0.07788  0.71494  1.0000
  H   H617      1.0  0.84669  0.15858  0.54417  1.0000
  H   H618      1.0  0.61835  0.98922  0.94987  1.0000
  H   H619      1.0  0.63452  0.99325  0.77088  1.0000
  C   C385      1.0  0.61724  0.01004  0.55734  1.0000
  H   H620      1.0  0.59636  0.01663  0.95731  1.0000
  C   C386      1.0  0.61751  0.02444  0.62490  1.0000
  C   C387      1.0  0.62756  0.01918  0.59351  1.0000
  H   H621      1.0  0.78611  0.12016  0.53094  1.0000
  H   H622      1.0  0.81835  0.20023  0.72266  1.0000
  C   C388      1.0  0.58673  0.01130  0.58337  1.0000
  C   C389      1.0  0.59702  0.02033  0.61966  1.0000
  H   H623      1.0  0.64330  0.02222  0.59703  1.0000
  H   H624      1.0  0.72548  0.01934  0.90203  1.0000
  H   H625      1.0  0.57102  0.00838  0.57974  1.0000
  H   H626      1.0  0.58908  0.02435  0.64368  1.0000
  C   C390      1.0  0.78957  0.14896  0.67022  1.0000
  C   C391      1.0  0.78105  0.13339  0.69782  1.0000
  C   C392      1.0  0.76161  0.11968  0.69119  1.0000
  C   C393      1.0  0.75037  0.12132  0.65671  1.0000
  C   C394      1.0  0.75887  0.13698  0.62922  1.0000
  C   C395      1.0  0.77826  0.15077  0.63600  1.0000
  H   H627      1.0  0.78957  0.13182  0.72450  1.0000
  H   H628      1.0  0.75535  0.10777  0.71266  1.0000
  H   H629      1.0  0.75027  0.13847  0.60259  1.0000
  H   H630      1.0  0.78437  0.16279  0.61486  1.0000
  S   S168      1.0  0.91346  0.22120  0.66269  1.0000
  H   H631      1.0  0.62767  0.99463  0.67869  1.0000
  H   H632      1.0  0.73643  0.04300  0.77944  1.0000
  H   H633      1.0  0.63059  0.04074  0.97339  1.0000
  H   H634      1.0  0.95325  0.23137  0.69472  1.0000
  N   N40       1.0  0.61887  0.01103  0.99326  1.0000
  H   H635      1.0  0.77525  0.18189  0.69046  1.0000
  H   H636      1.0  0.64625  0.03428  0.00916  1.0000
  C   C396      1.0  0.62110  0.99579  0.75979  1.0000
  C   C397      1.0  0.68384  0.04213  0.95678  1.0000
  C   C398      1.0  0.69002  0.06220  0.95685  1.0000
  C   C399      1.0  0.69105  0.07231  0.91932  1.0000
  C   C400      1.0  0.68585  0.06248  0.88143  1.0000
  C   C401      1.0  0.67915  0.04234  0.88140  1.0000
  C   C402      1.0  0.67833  0.03222  0.91893  1.0000
  H   H637      1.0  0.69427  0.07000  0.98572  1.0000
  H   H638      1.0  0.69611  0.08789  0.91960  1.0000
  H   H639      1.0  0.67476  0.03466  0.85244  1.0000
  H   H640      1.0  0.67349  0.01668  0.91863  1.0000
  H   H641      1.0  0.62626  0.01037  0.74502  1.0000
  H   H642      1.0  0.82516  0.14747  0.60668  1.0000
  H   H643      1.0  0.62524  0.00619  0.53320  1.0000
  H   H644      1.0  0.78494  0.22325  0.76214  1.0000
  H   H645      1.0  0.77611  0.20159  0.65690  1.0000
  C   C403      1.0  0.63050  0.03169  0.00109  1.0000
  C   C404      1.0  0.70763  0.01946  0.82865  1.0000
  C   C405      1.0  0.62703  0.00469  0.95701  1.0000
  H   H646      1.0  0.79386  0.15392  0.54970  1.0000
  C   C406      1.0  0.59786  0.00817  0.98488  1.0000
  H   H647      1.0  0.64273  0.00628  0.96288  1.0000
  C   C407      1.0  0.69809  0.99054  0.73348  1.0000
  H   H648      1.0  0.75689  0.04446  0.81299  1.0000
  H   H649      1.0  0.75055  0.03129  0.88456  1.0000
  H   H650      1.0  0.70168  0.02640  0.80389  1.0000
  H   H651      1.0  0.70708  0.00546  0.81608  1.0000
  C   C408      1.0  0.80598  0.20210  0.73964  1.0000
  H   H652      1.0  0.58863  0.99272  0.97895  1.0000
  H   H653      1.0  0.72164  0.05770  0.83322  1.0000
  H   H654      1.0  0.69734  0.01618  0.85533  1.0000
  H   H655      1.0  0.74353  0.06079  0.86371  1.0000
  H   H656      1.0  0.58229  0.98562  0.74124  1.0000
  C   C409      1.0  0.72819  0.05055  0.85647  1.0000
  N   N41       1.0  0.72806  0.03195  0.84106  1.0000
  H   H657      1.0  0.80009  0.13065  0.60041  1.0000
  H   H658      1.0  0.66893  0.99175  0.73146  1.0000
  H   H659      1.0  0.62683  0.01336  0.92884  1.0000
  N   N42       1.0  0.81552  0.14091  0.54315  1.0000
  N   N43       1.0  0.79430  0.20997  0.71216  1.0000
  H   H660      1.0  0.79666  0.18763  0.75218  1.0000
  C   C410      1.0  0.81529  0.13528  0.58735  1.0000
  H   H661      1.0  0.76831  0.19910  0.75017  1.0000
  C   C411      1.0  0.80938  0.15759  0.53919  1.0000
  C   C412      1.0  0.77854  0.21291  0.73633  1.0000
  H   H662      1.0  0.81271  0.21180  0.76628  1.0000
  H   H663      1.0  0.59119  0.01280  0.01155  1.0000
  C   C413      1.0  0.59680  0.00613  0.55188  1.0000
  H   H664      1.0  0.79663  0.19377  0.65930  1.0000
  C   C414      1.0  0.78513  0.19623  0.67822  1.0000
  H   H665      1.0  0.71942  0.04861  0.88536  1.0000
  C   C415      1.0  0.74123  0.03544  0.80481  1.0000
  C   C416      1.0  0.73519  0.02226  0.87428  1.0000
  H   H666      1.0  0.61231  0.99629  0.78743  1.0000
  H   H667      1.0  0.82039  0.12308  0.59172  1.0000
  C   C417      1.0  0.80756  0.22858  0.69439  1.0000
  H   H668      1.0  0.81952  0.22681  0.67572  1.0000
  H   H669      1.0  0.76940  0.21877  0.71645  1.0000
  H   H670      1.0  0.59700  0.99952  0.69938  1.0000
  C   C418      1.0  0.59204  0.98520  0.71524  1.0000
  H   H671      1.0  0.62435  0.03718  0.02726  1.0000
  H   H672      1.0  0.72496  0.98480  0.73861  1.0000
  H   H673      1.0  0.84102  0.13404  0.52906  1.0000
  C   C419      1.0  0.90364  0.29812  0.40022  1.0000
  S   S169      1.0  0.87914  0.24755  0.21739  1.0000
  H   H674      1.0  0.88385  0.31604  0.43991  1.0000
  H   H675      1.0  0.85393  0.29635  0.06628  1.0000
  S   S170      1.0  0.85151  0.26671  0.12613  1.0000
  H   H676      1.0  0.92034  0.25287  0.36178  1.0000
  S   S171      1.0  0.92549  0.33586  0.04905  1.0000
  H   H677      1.0  0.87386  0.29077  0.50913  1.0000
  C   C420      1.0  0.86239  0.24064  0.41551  1.0000
  H   H678      1.0  0.96079  0.35993  0.34422  1.0000
  C   C421      1.0  0.90459  0.31666  0.06954  1.0000
  Fe  Fe84      1.0  0.93125  0.40359  0.52408  1.0000
  C   C422      1.0  0.95014  0.46234  0.50575  1.0000
  H   H679      1.0  0.93058  0.26700  0.14087  1.0000
  N   N44       1.0  0.95191  0.26503  0.09730  1.0000
  H   H680      1.0  0.91656  0.29399  0.39410  1.0000
  S   S172      1.0  0.86279  0.24598  0.33097  1.0000
  C   C423      1.0  0.96100  0.24064  0.23656  1.0000
  H   H681      1.0  0.91874  0.24833  0.21159  1.0000
  C   C424      1.0  0.91985  0.32904  0.36689  1.0000
  H   H682      1.0  0.92291  0.30614  0.10819  1.0000
  H   H683      1.0  0.94616  0.23857  0.06446  1.0000
  C   C425      1.0  0.92882  0.24084  0.21482  1.0000
  C   C426      1.0  0.92399  0.32566  0.44066  1.0000
  C   C427      1.0  0.87227  0.28578  0.10477  1.0000
  C   C428      1.0  0.89185  0.28863  0.11625  1.0000
  C   C429      1.0  0.90788  0.30398  0.09875  1.0000
  C   C430      1.0  0.89234  0.32409  0.41268  1.0000
  C   C431      1.0  0.88503  0.31373  0.05784  1.0000
  C   C432      1.0  0.86899  0.29838  0.07537  1.0000
  H   H684      1.0  0.89461  0.27912  0.13890  1.0000
  H   H685      1.0  0.92888  0.34149  0.44553  1.0000
  C   C433      1.0  0.96024  0.28600  0.08866  1.0000
  H   H686      1.0  0.79916  0.23761  0.13516  1.0000
  H   H687      1.0  0.93769  0.32260  0.43579  1.0000
  C   C434      1.0  0.92221  0.46101  0.46247  1.0000
  S   S173      1.0  0.92949  0.37768  0.48648  1.0000
  H   H688      1.0  0.91705  0.31858  0.47012  1.0000
  H   H689      1.0  0.92492  0.34500  0.36977  1.0000
  H   H690      1.0  0.89665  0.33973  0.41940  1.0000
  H   H691      1.0  0.88194  0.32047  0.38557  1.0000
  H   H692      1.0  0.86695  0.25614  0.41724  1.0000
  C   C435      1.0  0.93124  0.25933  0.11186  1.0000
  H   H693      1.0  0.95988  0.37223  0.41531  1.0000
  H   H694      1.0  0.89287  0.29274  0.37389  1.0000
  H   H695      1.0  0.93317  0.32560  0.36009  1.0000
  H   H696      1.0  0.86314  0.23684  0.48216  1.0000
  H   H697      1.0  0.89622  0.29031  0.42869  1.0000
  H   H698      1.0  0.90828  0.45268  0.44724  1.0000
  H   H699      1.0  0.81633  0.24365  0.06839  1.0000
  H   H700      1.0  0.96068  0.29446  0.11715  1.0000
  H   H701      1.0  0.95242  0.26512  0.24257  1.0000
  N   N45       1.0  0.90996  0.31922  0.40512  1.0000
  C   C436      1.0  0.94795  0.25042  0.23194  1.0000
  H   H702      1.0  0.90972  0.32464  0.33940  1.0000
  H   H703      1.0  0.90845  0.24143  0.29152  1.0000
  Fe  Fe85      1.0  0.85374  0.24494  0.17426  1.0000
  C   C437      1.0  0.93036  0.48124  0.45733  1.0000
  C   C438      1.0  0.95212  0.25444  0.05894  1.0000
  S   S174      1.0  0.92069  0.42588  0.49253  1.0000
  H   H704      1.0  0.95791  0.45520  0.52435  1.0000
  H   H705      1.0  0.94297  0.25747  0.03384  1.0000
  C   C439      1.0  0.93202  0.45140  0.48667  1.0000
  H   H706      1.0  0.95801  0.34635  0.11776  1.0000
  H   H707      1.0  0.92159  0.26267  0.08828  1.0000
  H   H708      1.0  0.95749  0.36772  0.09343  1.0000
  H   H709      1.0  0.95122  0.29006  0.06477  1.0000
  Fe  Fe86      1.0  0.95725  0.37892  0.51945  1.0000
  C   C440      1.0  0.96405  0.26036  0.12975  1.0000
  H   H710      1.0  0.88224  0.32334  0.03547  1.0000
  C   C441      1.0  0.95825  0.48259  0.50077  1.0000
  S   S175      1.0  0.89048  0.33149  0.52023  1.0000
  H   H711      1.0  0.94164  0.24218  0.31721  1.0000
  H   H712      1.0  0.95764  0.24480  0.13855  1.0000
  H   H713      1.0  0.92444  0.24355  0.11870  1.0000
  H   H714      1.0  0.89813  0.23551  0.38334  1.0000
  C   C442      1.0  0.91343  0.23774  0.37324  1.0000
  H   H715      1.0  0.92196  0.23626  0.40120  1.0000
  H   H716      1.0  0.50776  0.47720  0.88391  1.0000
  C   C443      1.0  0.48135  0.48006  0.82723  1.0000
  H   H717      1.0  0.88141  0.41671  0.82445  1.0000
  Fe  Fe87      1.0  0.92894  0.37290  0.90946  1.0000
  S   S176      1.0  0.94939  0.40334  0.92258  1.0000
  S   S177      1.0  0.91567  0.36202  0.84581  1.0000
  C   C444      1.0  0.93485  0.48334  0.00433  1.0000
  H   H718      1.0  0.48582  0.46762  0.82146  1.0000
  Fe  Fe88      1.0  0.93023  0.40111  0.97787  1.0000
  S   S178      1.0  0.91920  0.42517  0.99315  1.0000
  S   S179      1.0  0.94692  0.35939  0.94635  1.0000
  S   S180      1.0  0.90848  0.37096  0.96293  1.0000
  S   S181      1.0  0.84982  0.26252  0.64519  1.0000
  Fe  Fe89      1.0  0.94229  0.38683  0.60376  1.0000
  S   S182      1.0  0.91294  0.38533  0.57633  1.0000
  C   C445      1.0  0.96312  0.47837  0.97577  1.0000
  S   S183      1.0  0.94798  0.38975  0.02095  1.0000
  H   H719      1.0  0.91463  0.28491  0.69347  1.0000
  C   C446      1.0  0.92447  0.46317  0.00571  1.0000
  S   S184      1.0  0.94142  0.35982  0.57239  1.0000
  C   C447      1.0  0.86143  0.28174  0.61074  1.0000
  C   C448      1.0  0.86843  0.30080  0.62508  1.0000
  C   C449      1.0  0.95797  0.25333  0.74113  1.0000
  H   H720      1.0  0.86656  0.30363  0.65728  1.0000
  H   H721      1.0  0.90565  0.47250  0.54039  1.0000
  C   C450      1.0  0.86377  0.27816  0.56906  1.0000
  H   H722      1.0  0.95240  0.39370  0.82237  1.0000
  H   H723      1.0  0.93415  0.43414  0.89963  1.0000
  H   H724      1.0  0.90318  0.24710  0.71724  1.0000
  H   H725      1.0  0.95468  0.34568  0.76253  1.0000
  H   H726      1.0  0.88649  0.43603  0.86098  1.0000
  H   H727      1.0  0.94747  0.30978  0.67465  1.0000
  H   H728      1.0  0.90586  0.27962  0.58006  1.0000
  H   H729      1.0  0.90709  0.40289  0.91235  1.0000
  C   C451      1.0  0.91800  0.29332  0.58946  1.0000
  H   H730      1.0  0.90117  0.43953  0.81495  1.0000
  H   H731      1.0  0.94521  0.32833  0.87107  1.0000
  H   H732      1.0  0.92482  0.42286  0.80782  1.0000
  C   C452      1.0  0.91843  0.24883  0.72358  1.0000
  H   H733      1.0  0.93190  0.44968  0.85865  1.0000
  C   C453      1.0  0.92626  0.37148  0.79722  1.0000
  C   C454      1.0  0.91623  0.36300  0.76048  1.0000
  C   C455      1.0  0.92430  0.36996  0.72126  1.0000
  C   C456      1.0  0.94253  0.38548  0.71850  1.0000
  Fe  Fe90      1.0  0.92821  0.35972  0.00129  1.0000
  C   C457      1.0  0.94446  0.38702  0.79444  1.0000
  H   H734      1.0  0.90211  0.35098  0.76230  1.0000
  H   H735      1.0  0.91642  0.36337  0.69318  1.0000
  H   H736      1.0  0.88995  0.41463  0.91755  1.0000
  Fe  Fe91      1.0  0.91375  0.35983  0.54089  1.0000
  H   H737      1.0  0.81504  0.23931  0.71895  1.0000
  H   H738      1.0  0.95734  0.36256  0.84968  1.0000
  H   H739      1.0  0.94112  0.27562  0.66243  1.0000
  H   H740      1.0  0.91187  0.30490  0.58811  1.0000
  C   C458      1.0  0.87791  0.31625  0.59785  1.0000
  C   C459      1.0  0.95255  0.39391  0.75530  1.0000
  H   H741      1.0  0.92720  0.40747  0.84887  1.0000
  N   N46       1.0  0.90758  0.42214  0.86222  1.0000
  H   H742      1.0  0.93516  0.32213  0.64332  1.0000
  C   C460      1.0  0.92337  0.43874  0.88197  1.0000
  C   C461      1.0  0.87972  0.31266  0.55591  1.0000
  C   C462      1.0  0.92681  0.23762  0.70211  1.0000
  C   C463      1.0  0.95019  0.33574  0.78977  1.0000
  C   C464      1.0  0.91656  0.41278  0.83282  1.0000
  H   H743      1.0  0.85821  0.26352  0.55767  1.0000
  H   H744      1.0  0.90511  0.40001  0.81771  1.0000
  H   H745      1.0  0.91165  0.48247  0.59166  1.0000
  C   C465      1.0  0.93334  0.45045  0.99235  1.0000
  H   H746      1.0  0.95378  0.31497  0.62092  1.0000
  S   S185      1.0  0.95368  0.39478  0.67031  1.0000
  H   H747      1.0  0.88326  0.33095  0.60897  1.0000
  Fe  Fe92      1.0  0.85228  0.23468  0.62627  1.0000
  C   C466      1.0  0.90936  0.28641  0.66151  1.0000
  H   H748      1.0  0.88496  0.39520  0.88097  1.0000
  H   H749      1.0  0.92321  0.27091  0.76969  1.0000
  C   C467      1.0  0.89684  0.40809  0.89456  1.0000
  H   H750      1.0  0.95584  0.31245  0.84891  1.0000
  C   C468      1.0  0.94123  0.31046  0.64315  1.0000
  C   C469      1.0  0.89353  0.42891  0.83963  1.0000
  C   C470      1.0  0.95281  0.45818  0.97756  1.0000
  H   H751      1.0  0.93625  0.33661  0.80191  1.0000
  C   C471      1.0  0.93445  0.27671  0.63161  1.0000
  N   N47       1.0  0.92576  0.29171  0.63143  1.0000
  H   H752      1.0  0.89728  0.27243  0.65337  1.0000
  C   C472      1.0  0.92984  0.26233  0.75329  1.0000
  C   C473      1.0  0.94965  0.26465  0.76233  1.0000
  S   S186      1.0  0.96346  0.28243  0.79901  1.0000
  S   S187      1.0  0.96068  0.40638  0.55315  1.0000
  H   H753      1.0  0.47232  0.45468  0.89054  1.0000
  C   C474      1.0  0.87260  0.29361  0.54160  1.0000
  H   H754      1.0  0.91710  0.44603  0.90464  1.0000
  H   H755      1.0  0.92987  0.29692  0.56577  1.0000
  H   H756      1.0  0.92301  0.26219  0.62456  1.0000
  C   C475      1.0  0.94661  0.23996  0.71112  1.0000
  H   H757      1.0  0.90254  0.29747  0.66238  1.0000
  H   H758      1.0  0.94642  0.27983  0.60829  1.0000
  C   C476      1.0  0.46854  0.46763  0.89497  1.0000
  H   H759      1.0  0.95987  0.44864  0.96715  1.0000
  H   H760      1.0  0.94657  0.32074  0.77863  1.0000
  H   H761      1.0  0.87311  0.47706  0.54475  1.0000
  C   C477      1.0  0.95906  0.32769  0.85791  1.0000
  S   S188      1.0  0.87777  0.23449  0.58805  1.0000
  H   H762      1.0  0.90940  0.45737  0.01706  1.0000
  H   H763      1.0  0.46610  0.47647  0.81419  1.0000
  H   H764      1.0  0.79937  0.23505  0.67346  1.0000
  H   H765      1.0  0.46931  0.47048  0.92894  1.0000
  C   C478      1.0  0.88125  0.52209  0.20948  1.0000
  H   H766      1.0  0.53228  0.63446  0.12379  1.0000
  S   S189      1.0  0.94033  0.53318  0.07052  1.0000
  Fe  Fe93      1.0  0.58963  0.69430  0.32747  1.0000
  H   H767      1.0  0.64582  0.66218  0.41622  1.0000
  S   S190      1.0  0.58445  0.67420  0.38382  1.0000
  Fe  Fe94      1.0  0.59169  0.70614  0.23475  1.0000
  S   S191      1.0  0.58114  0.69339  0.17057  1.0000
  Fe  Fe95      1.0  0.62739  0.72384  0.29031  1.0000
  Fe  Fe96      1.0  0.87018  0.65787  0.04537  1.0000
  S   S192      1.0  0.60921  0.69315  0.27489  1.0000
  S   S193      1.0  0.57033  0.70475  0.28626  1.0000
  S   S194      1.0  0.50918  0.60320  0.45011  1.0000
  S   S195      1.0  0.50705  0.55118  0.47659  1.0000
  Fe  Fe97      1.0  0.85673  0.62090  0.09581  1.0000
  S   S196      1.0  0.88623  0.63953  0.07032  1.0000
  S   S197      1.0  0.84240  0.58859  0.09608  1.0000
  Fe  Fe98      1.0  0.84694  0.65452  0.12539  1.0000
  S   S198      1.0  0.87632  0.67635  0.10303  1.0000
  S   S199      1.0  0.82310  0.66033  0.16229  1.0000
  H   H768      1.0  0.92967  0.65791  0.07068  1.0000
  Fe  Fe99      1.0  0.89046  0.65643  0.12988  1.0000
  S   S200      1.0  0.92047  0.66120  0.16210  1.0000
  S   S201      1.0  0.84004  0.63770  0.06622  1.0000
  S   S202      1.0  0.86166  0.63616  0.15664  1.0000
  Fe  Fe100     1.0  0.69513  0.66101  0.19964  1.0000
  S   S203      1.0  0.66667  0.64052  0.22618  1.0000
  S   S204      1.0  0.70736  0.69335  0.20158  1.0000
  Fe  Fe101     1.0  0.70618  0.62939  0.16262  1.0000
  S   S205      1.0  0.67789  0.60599  0.18535  1.0000
  S   S206      1.0  0.72997  0.62553  0.12205  1.0000
  Fe  Fe102     1.0  0.66207  0.62553  0.16419  1.0000
  S   S207      1.0  0.63119  0.62090  0.13682  1.0000
  Fe  Fe103     1.0  0.68452  0.62296  0.24516  1.0000
  S   S208      1.0  0.68248  0.60897  0.30886  1.0000
  S   S209      1.0  0.68976  0.64744  0.13689  1.0000
  S   S210      1.0  0.71362  0.64483  0.22339  1.0000
  S   S211      1.0  0.67710  0.65323  0.47281  1.0000
  Fe  Fe104     1.0  0.91330  0.55532  0.46903  1.0000
  S   S212      1.0  0.94100  0.55778  0.50378  1.0000
  H   H769      1.0  0.94045  0.61417  0.36727  1.0000
  Fe  Fe105     1.0  0.93481  0.56402  0.38506  1.0000
  H   H770      1.0  0.94781  0.65715  0.35739  1.0000
  S   S213      1.0  0.92992  0.57237  0.31856  1.0000
  Fe  Fe106     1.0  0.94639  0.54044  0.45198  1.0000
  S   S214      1.0  0.89096  0.53718  0.04997  1.0000
  H   H771      1.0  0.62371  0.66743  0.40847  1.0000
  S   S215      1.0  0.91749  0.53628  0.41896  1.0000
  S   S216      1.0  0.92777  0.58240  0.43239  1.0000
  S   S217      1.0  0.94384  0.57819  0.07028  1.0000
  H   H772      1.0  0.92042  0.53537  0.22043  1.0000
  C   C479      1.0  0.68312  0.62237  0.35413  1.0000
  C   C480      1.0  0.68042  0.63991  0.35198  1.0000
  C   C481      1.0  0.67929  0.64947  0.38862  1.0000
  C   C482      1.0  0.68087  0.64168  0.42780  1.0000
  C   C483      1.0  0.68425  0.62447  0.42998  1.0000
  C   C484      1.0  0.68527  0.61481  0.39327  1.0000
  H   H773      1.0  0.67891  0.64595  0.32206  1.0000
  H   H774      1.0  0.67710  0.66292  0.38641  1.0000
  H   H775      1.0  0.68582  0.61846  0.45991  1.0000
  H   H776      1.0  0.68755  0.60134  0.39517  1.0000
  C   C485      1.0  0.61787  0.60692  0.09393  1.0000
  H   H777      1.0  0.91126  0.54986  0.13452  1.0000
  H   H778      1.0  0.55323  0.71773  0.35537  1.0000
  H   H779      1.0  0.75904  0.58227  0.13973  1.0000
  H   H780      1.0  0.65153  0.66382  0.17531  1.0000
  C   C486      1.0  0.62665  0.59838  0.06607  1.0000
  H   H781      1.0  0.75958  0.67413  0.20828  1.0000
  H   H782      1.0  0.58245  0.71139  0.41847  1.0000
  H   H783      1.0  0.64195  0.59988  0.07081  1.0000
  H   H784      1.0  0.53154  0.69893  0.37519  1.0000
  C   C487      1.0  0.93384  0.67806  0.20101  1.0000
  H   H785      1.0  0.78333  0.70111  0.11295  1.0000
  N   N48       1.0  0.55375  0.71342  0.42127  1.0000
  C   C488      1.0  0.64003  0.70475  0.42983  1.0000
  H   H786      1.0  0.96343  0.49359  0.12010  1.0000
  C   C489      1.0  0.79728  0.65026  0.15066  1.0000
  C   C490      1.0  0.78358  0.64819  0.18252  1.0000
  C   C491      1.0  0.76295  0.64060  0.17427  1.0000
  C   C492      1.0  0.75579  0.63511  0.13396  1.0000
  C   C493      1.0  0.76948  0.63711  0.10214  1.0000
  C   C494      1.0  0.79012  0.64472  0.11038  1.0000
  H   H787      1.0  0.78898  0.65242  0.21381  1.0000
  H   H788      1.0  0.75258  0.63878  0.19921  1.0000
  H   H789      1.0  0.76410  0.63293  0.07084  1.0000
  H   H790      1.0  0.80050  0.64655  0.08544  1.0000
  C   C495      1.0  0.85798  0.54377  0.06990  1.0000
  H   H791      1.0  0.76266  0.72034  0.12601  1.0000
  C   C496      1.0  0.70245  0.72437  0.23538  1.0000
  C   C497      1.0  0.69406  0.70442  0.22965  1.0000
  C   C498      1.0  0.67520  0.69385  0.24546  1.0000
  C   C499      1.0  0.66459  0.70333  0.26609  1.0000
  H   H792      1.0  0.66725  0.69531  0.47412  1.0000
  H   H793      1.0  0.64876  0.72021  0.42261  1.0000
  H   H794      1.0  0.66873  0.67844  0.24171  1.0000
  H   H795      1.0  0.65005  0.69513  0.27817  1.0000
  C   C500      1.0  0.59280  0.70509  0.12444  1.0000
  H   H796      1.0  0.85046  0.52828  0.06791  1.0000
  H   H797      1.0  0.88632  0.54718  0.14624  1.0000
  H   H798      1.0  0.91263  0.51076  0.20462  1.0000
  H   H799      1.0  0.95694  0.66652  0.20591  1.0000
  C   C501      1.0  0.56332  0.65414  0.40027  1.0000
  C   C502      1.0  0.56553  0.64290  0.43386  1.0000
  C   C503      1.0  0.54920  0.62715  0.44897  1.0000
  C   C504      1.0  0.53032  0.62257  0.43105  1.0000
  C   C505      1.0  0.52806  0.63389  0.39758  1.0000
  C   C506      1.0  0.54448  0.64951  0.38204  1.0000
  H   H800      1.0  0.57999  0.64638  0.44837  1.0000
  H   H801      1.0  0.55119  0.61867  0.47481  1.0000
  H   H802      1.0  0.54251  0.65794  0.35608  1.0000
  C   C507      1.0  0.67304  0.72332  0.27170  1.0000
  H   H803      1.0  0.77144  0.69862  0.22516  1.0000
  C   C508      1.0  0.87714  0.58387  0.07472  1.0000
  C   C509      1.0  0.85675  0.57518  0.08277  1.0000
  C   C510      1.0  0.84728  0.55514  0.08052  1.0000
  C   C511      1.0  0.59441  0.70484  0.04861  1.0000
  H   H804      1.0  0.91375  0.69307  0.20357  1.0000
  H   H805      1.0  0.88450  0.59934  0.07652  1.0000
  S   S218      1.0  0.88398  0.54602  0.50294  1.0000
  H   H806      1.0  0.47469  0.56861  0.45917  1.0000
  C   C512      1.0  0.66967  0.69772  0.44012  1.0000
  C   C513      1.0  0.93930  0.57618  0.23607  1.0000
  C   C514      1.0  0.94304  0.56946  0.27499  1.0000
  C   C515      1.0  0.96214  0.56403  0.20303  1.0000
  H   H807      1.0  0.64062  0.69163  0.35353  1.0000
  H   H808      1.0  0.92891  0.58341  0.23364  1.0000
  H   H809      1.0  0.65369  0.70437  0.10420  1.0000
  H   H810      1.0  0.88656  0.53263  0.23539  1.0000
  H   H811      1.0  0.51354  0.63047  0.38343  1.0000
  C   C516      1.0  0.78085  0.69578  0.14556  1.0000
  H   H812      1.0  0.62732  0.69552  0.09565  1.0000
  H   H813      1.0  0.73058  0.68177  0.14621  1.0000
  H   H814      1.0  0.55591  0.65090  0.10597  1.0000
  C   C517      1.0  0.61809  0.66258  0.13764  1.0000
  Fe  Fe107     1.0  0.96180  0.56145  0.09375  1.0000
  H   H815      1.0  0.55027  0.70246  0.48388  1.0000
  C   C518      1.0  0.96300  0.69057  0.24752  1.0000
  C   C519      1.0  0.51181  0.63333  0.05331  1.0000
  H   H816      1.0  0.59098  0.61130  0.10854  1.0000
  C   C520      1.0  0.95663  0.56030  0.27792  1.0000
  C   C521      1.0  0.95169  0.67729  0.21722  1.0000
  H   H817      1.0  0.92283  0.48830  0.43789  1.0000
  C   C522      1.0  0.91481  0.52554  0.19350  1.0000
  H   H818      1.0  0.64152  0.68271  0.07486  1.0000
  H   H819      1.0  0.66227  0.68564  0.36053  1.0000
  H   H820      1.0  0.74675  0.68620  0.10251  1.0000
  H   H821      1.0  0.78928  0.60802  0.50548  1.0000
  C   C523      1.0  0.90006  0.54604  0.15969  1.0000
  N   N49       1.0  0.62372  0.59083  0.43450  1.0000
  C   C524      1.0  0.60960  0.60057  0.44046  1.0000
  C   C525      1.0  0.61279  0.56972  0.43418  1.0000
  C   C526      1.0  0.63851  0.59600  0.46884  1.0000
  C   C527      1.0  0.63395  0.59706  0.39450  1.0000
  H   H822      1.0  0.63140  0.59089  0.49934  1.0000
  H   H823      1.0  0.59814  0.59693  0.41527  1.0000
  H   H824      1.0  0.61740  0.61653  0.44093  1.0000
  Fe  Fe108     1.0  0.51126  0.58109  0.49779  1.0000
  H   H825      1.0  0.95145  0.63294  0.25955  1.0000
  H   H826      1.0  0.60141  0.56527  0.40883  1.0000
  C   C528      1.0  0.96388  0.63693  0.07096  1.0000
  H   H827      1.0  0.58061  0.72816  0.45615  1.0000
  H   H828      1.0  0.91755  0.62675  0.10875  1.0000
  H   H829      1.0  0.64467  0.58994  0.38873  1.0000
  H   H830      1.0  0.93365  0.71653  0.25665  1.0000
  S   S219      1.0  0.55773  0.54616  0.50281  1.0000
  H   H831      1.0  0.67830  0.68894  0.43045  1.0000
  H   H832      1.0  0.61562  0.65330  0.16593  1.0000
  H   H833      1.0  0.64988  0.58952  0.46460  1.0000
  C   C529      1.0  0.69208  0.73376  0.25684  1.0000
  C   C530      1.0  0.93289  0.62679  0.10784  1.0000
  H   H834      1.0  0.92678  0.52980  0.16991  1.0000
  H   H835      1.0  0.66433  0.71019  0.36445  1.0000
  H   H836      1.0  0.94053  0.63390  0.13689  1.0000
  H   H837      1.0  0.60515  0.66708  0.13406  1.0000
  H   H838      1.0  0.61644  0.72822  0.15451  1.0000
  H   H839      1.0  0.64249  0.61291  0.39376  1.0000
  C   C531      1.0  0.53992  0.62364  0.04839  1.0000
  H   H840      1.0  0.62369  0.69656  0.17304  1.0000
  H   H841      1.0  0.66813  0.68520  0.15018  1.0000
  H   H842      1.0  0.64651  0.61190  0.47112  1.0000
  H   H843      1.0  0.87491  0.51306  0.12778  1.0000
  C   C532      1.0  0.64004  0.69103  0.10215  1.0000
  N   N50       1.0  0.76167  0.69543  0.16128  1.0000
  C   C533      1.0  0.75934  0.68885  0.20503  1.0000
  H   H844      1.0  0.55623  0.62778  0.05269  1.0000
  C   C534      1.0  0.74523  0.68206  0.13591  1.0000
  N   N51       1.0  0.53364  0.63980  0.05791  1.0000
  H   H845      1.0  0.92786  0.63742  0.33388  1.0000
  C   C535      1.0  0.93279  0.62723  0.03291  1.0000
  C   C536      1.0  0.54795  0.70591  0.37889  1.0000
  Fe  Fe109     1.0  0.92394  0.55036  0.04213  1.0000
  H   H846      1.0  0.78141  0.68113  0.14594  1.0000
  C   C537      1.0  0.61205  0.72114  0.04940  1.0000
  H   H847      1.0  0.91738  0.62703  0.03154  1.0000
  C   C538      1.0  0.94471  0.65720  0.07083  1.0000
  H   H848      1.0  0.88495  0.49726  0.15394  1.0000
  H   H849      1.0  0.63503  0.66943  0.45922  1.0000
  H   H850      1.0  0.95969  0.55513  0.30775  1.0000
  H   H851      1.0  0.86700  0.52265  0.19751  1.0000
  N   N52       1.0  0.79081  0.59024  0.14128  1.0000
  C   C539      1.0  0.78987  0.57024  0.14628  1.0000
  C   C540      1.0  0.79285  0.59559  0.09679  1.0000
  C   C541      1.0  0.80814  0.60345  0.16474  1.0000
  H   H852      1.0  0.77696  0.55987  0.12901  1.0000
  H   H853      1.0  0.78852  0.56576  0.17949  1.0000
  H   H854      1.0  0.90359  0.57908  0.05751  1.0000
  H   H855      1.0  0.96328  0.50763  0.07486  1.0000
  H   H856      1.0  0.80648  0.59453  0.08360  1.0000
  H   H857      1.0  0.79398  0.61068  0.09187  1.0000
  H   H858      1.0  0.80691  0.60021  0.19858  1.0000
  H   H859      1.0  0.80973  0.61873  0.16065  1.0000
  Fe  Fe110     1.0  0.53228  0.55447  0.52110  1.0000
  H   H860      1.0  0.65475  0.66383  0.12055  1.0000
  C   C542      1.0  0.77244  0.59167  0.15728  1.0000
  H   H861      1.0  0.77292  0.60667  0.15467  1.0000
  C   C543      1.0  0.61021  0.72166  0.12518  1.0000
  H   H862      1.0  0.50653  0.64515  0.06018  1.0000
  C   C544      1.0  0.94873  0.57341  0.20019  1.0000
  H   H863      1.0  0.94566  0.57856  0.17039  1.0000
  C   C545      1.0  0.54611  0.69738  0.45148  1.0000
  H   H864      1.0  0.67926  0.71314  0.43506  1.0000
  C   C546      1.0  0.58489  0.69689  0.08600  1.0000
  C   C547      1.0  0.88858  0.51227  0.14253  1.0000
  N   N53       1.0  0.89618  0.52648  0.17630  1.0000
  C   C548      1.0  0.76123  0.71500  0.15863  1.0000
  H   H865      1.0  0.90566  0.55713  0.18429  1.0000
  H   H866      1.0  0.57130  0.68437  0.08525  1.0000
  H   H867      1.0  0.82221  0.60243  0.15417  1.0000
  H   H868      1.0  0.77994  0.58608  0.07817  1.0000
  H   H869      1.0  0.55219  0.68598  0.44550  1.0000
  C   C549      1.0  0.53956  0.64623  0.10105  1.0000
  N   N54       1.0  0.63698  0.67948  0.14074  1.0000
  C   C550      1.0  0.61558  0.58779  0.03201  1.0000
  C   C551      1.0  0.92738  0.69221  0.21572  1.0000
  S   S220      1.0  0.95891  0.51787  0.47337  1.0000
  S   S221      1.0  0.60948  0.72434  0.34552  1.0000
  H   H870      1.0  0.46703  0.49433  0.46977  1.0000
  C   C552      1.0  0.65463  0.69502  0.37191  1.0000
  C   C553      1.0  0.59794  0.60482  0.08710  1.0000
  C   C554      1.0  0.93872  0.70552  0.24588  1.0000
  H   H871      1.0  0.87800  0.50746  0.22291  1.0000
  N   N55       1.0  0.65065  0.69234  0.41686  1.0000
  H   H872      1.0  0.55437  0.69497  0.37121  1.0000
  H   H873      1.0  0.92650  0.70865  0.52566  1.0000
  C   C555      1.0  0.94838  0.49220  0.47680  1.0000
  C   C556      1.0  0.88794  0.57241  0.06413  1.0000
  H   H874      1.0  0.74700  0.71522  0.17068  1.0000
  H   H875      1.0  0.93169  0.61153  0.10867  1.0000
  H   H876      1.0  0.53235  0.61088  0.06861  1.0000
  H   H877      1.0  0.74496  0.68834  0.21777  1.0000
  H   H878      1.0  0.80354  0.56874  0.13424  1.0000
  H   H879      1.0  0.83155  0.54836  0.08663  1.0000
  H   H880      1.0  0.95273  0.66541  0.04333  1.0000
  H   H881      1.0  0.62301  0.56192  0.42988  1.0000
  H   H882      1.0  0.77351  0.72549  0.17723  1.0000
  Fe  Fe111     1.0  0.95598  0.58369  0.46363  1.0000
  H   H883      1.0  0.63384  0.68304  0.20593  1.0000
  H   H884      1.0  0.61811  0.65333  0.11084  1.0000
  C   C557      1.0  0.63615  0.69140  0.17640  1.0000
  H   H885      1.0  0.77025  0.58749  0.19064  1.0000
  C   C558      1.0  0.65363  0.67286  0.14688  1.0000
  H   H886      1.0  0.60162  0.59619  0.47032  1.0000
  H   H887      1.0  0.62327  0.59351  0.36787  1.0000
  H   H888      1.0  0.79361  0.70521  0.16475  1.0000
  H   H889      1.0  0.82591  0.61926  0.51517  1.0000
  H   H890      1.0  0.65013  0.70434  0.17984  1.0000
  H   H891      1.0  0.50400  0.62099  0.07437  1.0000
  H   H892      1.0  0.74467  0.66704  0.13828  1.0000
  N   N56       1.0  0.94355  0.63703  0.07063  1.0000
  H   H893      1.0  0.60484  0.56451  0.46384  1.0000
  C   C559      1.0  0.58680  0.59405  0.05329  1.0000
  H   H894      1.0  0.62542  0.70076  0.41341  1.0000
  C   C560      1.0  0.94355  0.64748  0.32991  1.0000
  C   C561      1.0  0.95660  0.70485  0.26197  1.0000
  C   C562      1.0  0.63822  0.67194  0.42550  1.0000
  H   H895      1.0  0.63713  0.70343  0.46377  1.0000
  H   H896      1.0  0.96362  0.62196  0.07085  1.0000
  H   H897      1.0  0.89968  0.51497  0.11740  1.0000
  C   C563      1.0  0.87827  0.55233  0.06157  1.0000
  N   N57       1.0  0.95698  0.63688  0.32526  1.0000
  C   C564      1.0  0.61982  0.72959  0.08780  1.0000
  H   H898      1.0  0.53543  0.65868  0.10917  1.0000
  C   C565      1.0  0.95093  0.62438  0.28830  1.0000
  H   H899      1.0  0.46824  0.56927  0.40561  1.0000
  H   H900      1.0  0.95250  0.66494  0.09922  1.0000
  H   H901      1.0  0.89483  0.51324  0.49516  1.0000
  H   H902      1.0  0.94400  0.65671  0.30224  1.0000
  C   C566      1.0  0.54538  0.72823  0.42969  1.0000
  H   H903      1.0  0.55969  0.66070  0.02987  1.0000
  H   H904      1.0  0.52961  0.69036  0.44967  1.0000
  H   H905      1.0  0.96058  0.63367  0.39109  1.0000
  H   H906      1.0  0.96075  0.61613  0.28399  1.0000
  H   H907      1.0  0.57144  0.59233  0.04879  1.0000
  C   C567      1.0  0.95583  0.62480  0.36251  1.0000
  H   H908      1.0  0.93550  0.61354  0.29135  1.0000
  S   S222      1.0  0.96416  0.56703  0.41443  1.0000
  C   C568      1.0  0.57565  0.72218  0.42467  1.0000
  H   H909      1.0  0.71706  0.73263  0.22340  1.0000
  H   H910      1.0  0.93174  0.61200  0.03169  1.0000
  H   H911      1.0  0.89593  0.49008  0.48538  1.0000
  C   C569      1.0  0.90281  0.50356  0.50359  1.0000
  H   H912      1.0  0.96102  0.73097  0.50561  1.0000
  H   H913      1.0  0.53942  0.66871  0.03604  1.0000
  H   H914      1.0  0.91841  0.51076  0.49314  1.0000
  H   H915      1.0  0.52887  0.72221  0.42700  1.0000
  H   H916      1.0  0.92774  0.49288  0.01449  1.0000
  C   C570      1.0  0.62698  0.64332  0.91735  1.0000
  H   H917      1.0  0.59211  0.64398  0.89108  1.0000
  H   H918      1.0  0.90812  0.63790  0.87581  1.0000
  Fe  Fe112     1.0  0.51579  0.57102  0.58968  1.0000
  S   S223      1.0  0.52261  0.58512  0.65345  1.0000
  H   H919      1.0  0.94847  0.63977  0.80386  1.0000
  H   H920      1.0  0.57949  0.61831  0.88517  1.0000
  S   S224      1.0  0.87600  0.67149  0.98081  1.0000
  Fe  Fe113     1.0  0.52350  0.55020  0.88426  1.0000
  S   S225      1.0  0.49578  0.54830  0.91731  1.0000
  S   S226      1.0  0.52172  0.53801  0.81933  1.0000
  Fe  Fe114     1.0  0.54973  0.56304  0.96328  1.0000
  S   S227      1.0  0.48625  0.50439  0.99865  1.0000
  S   S228      1.0  0.58263  0.57245  0.98126  1.0000
  Fe  Fe115     1.0  0.50574  0.53338  0.96869  1.0000
  C   C571      1.0  0.61048  0.60888  0.90883  1.0000
  Fe  Fe116     1.0  0.51572  0.57585  0.94770  1.0000
  S   S229      1.0  0.50509  0.59995  0.95900  1.0000
  S   S230      1.0  0.53285  0.53410  0.93428  1.0000
  S   S231      1.0  0.54254  0.57919  0.91001  1.0000
  Fe  Fe117     1.0  0.61507  0.69958  0.85849  1.0000
  S   S232      1.0  0.59329  0.70974  0.82544  1.0000
  N   N58       1.0  0.90206  0.49958  0.54864  1.0000
  Fe  Fe118     1.0  0.57615  0.70117  0.88444  1.0000
  S   S233      1.0  0.54349  0.68358  0.88095  1.0000
  S   S234      1.0  0.59707  0.68994  0.91671  1.0000
  Fe  Fe119     1.0  0.65798  0.61220  0.60295  1.0000
  S   S235      1.0  0.65260  0.63798  0.57889  1.0000
  S   S236      1.0  0.63437  0.58289  0.61473  1.0000
  Fe  Fe120     1.0  0.70292  0.63328  0.61087  1.0000
  S   S237      1.0  0.70112  0.66121  0.58731  1.0000
  S   S238      1.0  0.72819  0.62336  0.63046  1.0000
  Fe  Fe121     1.0  0.67429  0.65421  0.62867  1.0000
  S   S239      1.0  0.66789  0.67798  0.66236  1.0000
  H   H921      1.0  0.92829  0.49268  0.54960  1.0000
  S   S240      1.0  0.67775  0.62782  0.65578  1.0000
  C   C572      1.0  0.93976  0.63807  0.83279  1.0000
  Fe  Fe122     1.0  0.88746  0.65727  0.67637  1.0000
  S   S241      1.0  0.88366  0.62785  0.70070  1.0000
  S   S242      1.0  0.91782  0.67642  0.65370  1.0000
  Fe  Fe123     1.0  0.84324  0.64999  0.68307  1.0000
  S   S243      1.0  0.83626  0.62015  0.70800  1.0000
  S   S244      1.0  0.82098  0.66437  0.67130  1.0000
  Fe  Fe124     1.0  0.86379  0.63336  0.74771  1.0000
  S   S245      1.0  0.86400  0.62309  0.81435  1.0000
  Fe  Fe125     1.0  0.85685  0.61747  0.65874  1.0000
  S   S246      1.0  0.84509  0.59069  0.61882  1.0000
  S   S247      1.0  0.86950  0.66363  0.72636  1.0000
  S   S248      1.0  0.86189  0.64653  0.63109  1.0000
  H   H922      1.0  0.93634  0.70667  0.79039  1.0000
  C   C573      1.0  0.78767  0.60103  0.53660  1.0000
  C   C574      1.0  0.87775  0.58820  0.57642  1.0000
  C   C575      1.0  0.85759  0.57961  0.58721  1.0000
  H   H923      1.0  0.61804  0.60967  0.87870  1.0000
  C   C576      1.0  0.87473  0.55994  0.53483  1.0000
  C   C577      1.0  0.92159  0.65147  0.87677  1.0000
  H   H924      1.0  0.88666  0.60234  0.58817  1.0000
  H   H925      1.0  0.95611  0.62945  0.60318  1.0000
  H   H926      1.0  0.62253  0.58120  0.01077  1.0000
  C   C578      1.0  0.75382  0.63537  0.64286  1.0000
  C   C579      1.0  0.76457  0.62436  0.65802  1.0000
  C   C580      1.0  0.78505  0.63305  0.66741  1.0000
  C   C581      1.0  0.79509  0.65285  0.66120  1.0000
  C   C582      1.0  0.78434  0.66391  0.64652  1.0000
  C   C583      1.0  0.76382  0.65523  0.63736  1.0000
  H   H927      1.0  0.75691  0.60900  0.66266  1.0000
  H   H928      1.0  0.79303  0.62443  0.67938  1.0000
  H   H929      1.0  0.79194  0.67927  0.64184  1.0000
  H   H930      1.0  0.75576  0.66388  0.62577  1.0000
  C   C584      1.0  0.63521  0.67594  0.78512  1.0000
  C   C585      1.0  0.63804  0.65939  0.77118  1.0000
  C   C586      1.0  0.64783  0.65965  0.73351  1.0000
  C   C587      1.0  0.65496  0.67652  0.70948  1.0000
  C   C588      1.0  0.65188  0.69296  0.72328  1.0000
  H   H931      1.0  0.63288  0.64636  0.78975  1.0000
  H   H932      1.0  0.65018  0.64694  0.72333  1.0000
  C   C589      1.0  0.51644  0.62244  0.93429  1.0000
  C   C590      1.0  0.50524  0.63397  0.92924  1.0000
  C   C591      1.0  0.51379  0.65254  0.91248  1.0000
  C   C592      1.0  0.53383  0.66006  0.90169  1.0000
  C   C593      1.0  0.54531  0.64867  0.90703  1.0000
  C   C594      1.0  0.53653  0.62971  0.92295  1.0000
  H   H933      1.0  0.48977  0.62849  0.93809  1.0000
  H   H934      1.0  0.50484  0.66121  0.90826  1.0000
  H   H935      1.0  0.56078  0.65439  0.89861  1.0000
  H   H936      1.0  0.54532  0.62094  0.92737  1.0000
  H   H937      1.0  0.64001  0.70554  0.77109  1.0000
  C   C595      1.0  0.87259  0.65786  0.93476  1.0000
  C   C596      1.0  0.87631  0.66744  0.89612  1.0000
  C   C597      1.0  0.87367  0.65703  0.85885  1.0000
  C   C598      1.0  0.86733  0.63692  0.86001  1.0000
  C   C599      1.0  0.86377  0.62738  0.89860  1.0000
  C   C600      1.0  0.86633  0.63777  0.93581  1.0000
  H   H938      1.0  0.88129  0.68301  0.89513  1.0000
  H   H939      1.0  0.87671  0.66456  0.82937  1.0000
  H   H940      1.0  0.85894  0.61182  0.89978  1.0000
  H   H941      1.0  0.86345  0.63023  0.96532  1.0000
  H   H942      1.0  0.96036  0.69011  0.65865  1.0000
  C   C601      1.0  0.92031  0.65501  0.80237  1.0000
  H   H943      1.0  0.61961  0.60548  0.93354  1.0000
  C   C602      1.0  0.96197  0.70784  0.75593  1.0000
  H   H944      1.0  0.87307  0.50068  0.55454  1.0000
  C   C603      1.0  0.59436  0.63026  0.88560  1.0000
  C   C604      1.0  0.61474  0.57412  0.57874  1.0000
  N   N59       1.0  0.80452  0.61168  0.56439  1.0000
  C   C605      1.0  0.88108  0.49082  0.56144  1.0000
  C   C606      1.0  0.60398  0.58532  0.56566  1.0000
  C   C607      1.0  0.52066  0.57156  0.69965  1.0000
  C   C608      1.0  0.52494  0.58116  0.73796  1.0000
  C   C609      1.0  0.52472  0.57098  0.77514  1.0000
  C   C610      1.0  0.52037  0.55112  0.77415  1.0000
  C   C611      1.0  0.51587  0.54149  0.73592  1.0000
  C   C612      1.0  0.51593  0.55164  0.69884  1.0000
  H   H945      1.0  0.52814  0.57851  0.80444  1.0000
  H   H946      1.0  0.51243  0.52613  0.73489  1.0000
  H   H947      1.0  0.51248  0.54407  0.66961  1.0000
  H   H948      1.0  0.94053  0.63445  0.00422  1.0000
  C   C613      1.0  0.59094  0.54644  0.54329  1.0000
  C   C614      1.0  0.95502  0.69352  0.68743  1.0000
  C   C615      1.0  0.93459  0.68820  0.69359  1.0000
  C   C616      1.0  0.92786  0.69291  0.73078  1.0000
  C   C617      1.0  0.94155  0.70287  0.76179  1.0000
  C   C618      1.0  0.60826  0.55475  0.56723  1.0000
  H   H949      1.0  0.58821  0.69833  0.01922  1.0000
  H   H950      1.0  0.92085  0.70295  0.57950  1.0000
  C   C619      1.0  0.95058  0.67257  0.84033  1.0000
  H   H951      1.0  0.81395  0.60979  0.62722  1.0000
  H   H952      1.0  0.80834  0.63971  0.53968  1.0000
  H   H953      1.0  0.52849  0.59654  0.73884  1.0000
  H   H954      1.0  0.84565  0.53741  0.53463  1.0000
  S   S249      1.0  0.48949  0.56969  0.55004  1.0000
  H   H955      1.0  0.59604  0.59635  0.90748  1.0000
  H   H956      1.0  0.81742  0.63986  0.59191  1.0000
  H   H957      1.0  0.94929  0.69314  0.58650  1.0000
  Fe  Fe126     1.0  0.61208  0.72024  0.93967  1.0000
  C   C620      1.0  0.59557  0.58540  0.02559  1.0000
  C   C621      1.0  0.88632  0.57838  0.55001  1.0000
  C   C622      1.0  0.80169  0.60190  0.60524  1.0000
  H   H958      1.0  0.92692  0.62403  0.83098  1.0000
  H   H959      1.0  0.91465  0.66683  0.80580  1.0000
  H   H960      1.0  0.49155  0.49264  0.80928  1.0000
  H   H961      1.0  0.77328  0.60042  0.54955  1.0000
  H   H962      1.0  0.96061  0.67257  0.86680  1.0000
  N   N60       1.0  0.60756  0.62699  0.91767  1.0000
  H   H963      1.0  0.58396  0.61299  0.96044  1.0000
  N   N61       1.0  0.56927  0.65708  0.75845  1.0000
  C   C623      1.0  0.58384  0.67539  0.74208  1.0000
  C   C624      1.0  0.56369  0.66009  0.80100  1.0000
  C   C625      1.0  0.57826  0.64231  0.75929  1.0000
  C   C626      1.0  0.55134  0.65052  0.73146  1.0000
  H   H964      1.0  0.58856  0.67367  0.71014  1.0000
  H   H965      1.0  0.59754  0.68075  0.76183  1.0000
  H   H966      1.0  0.57763  0.68693  0.74103  1.0000
  H   H967      1.0  0.57685  0.66497  0.82229  1.0000
  H   H968      1.0  0.55700  0.67130  0.80165  1.0000
  H   H969      1.0  0.55253  0.64666  0.81429  1.0000
  H   H970      1.0  0.56768  0.62827  0.77137  1.0000
  H   H971      1.0  0.59187  0.64689  0.77931  1.0000
  H   H972      1.0  0.58277  0.63980  0.72767  1.0000
  H   H973      1.0  0.54003  0.63672  0.74290  1.0000
  H   H974      1.0  0.55497  0.64808  0.69906  1.0000
  H   H975      1.0  0.54417  0.66134  0.73024  1.0000
  N   N62       1.0  0.57721  0.56303  0.68325  1.0000
  C   C627      1.0  0.59109  0.58335  0.68033  1.0000
  C   C628      1.0  0.56726  0.55970  0.72387  1.0000
  C   C629      1.0  0.58835  0.55016  0.67934  1.0000
  H   H976      1.0  0.60289  0.58690  0.70481  1.0000
  H   H977      1.0  0.58318  0.59345  0.68314  1.0000
  H   H978      1.0  0.59881  0.58639  0.65005  1.0000
  H   H979      1.0  0.55890  0.56933  0.72794  1.0000
  H   H980      1.0  0.57813  0.56243  0.75004  1.0000
  H   H981      1.0  0.55644  0.54458  0.72704  1.0000
  H   H982      1.0  0.57832  0.53471  0.68122  1.0000
  H   H983      1.0  0.59998  0.55296  0.70400  1.0000
  H   H984      1.0  0.59611  0.55236  0.64914  1.0000
  H   H985      1.0  0.94946  0.63709  0.85917  1.0000
  Fe  Fe127     1.0  0.95795  0.53967  0.01230  1.0000
  C   C630      1.0  0.95784  0.70507  0.56511  1.0000
  Fe  Fe128     1.0  0.48732  0.53977  0.53192  1.0000
  H   H986      1.0  0.83627  0.62005  0.56642  1.0000
  C   C631      1.0  0.80543  0.63162  0.56959  1.0000
  S   S250      1.0  0.51252  0.54069  0.57503  1.0000
  H   H987      1.0  0.93065  0.65065  0.90437  1.0000
  N   N63       1.0  0.48217  0.48450  0.87196  1.0000
  H   H988      1.0  0.60813  0.62322  0.98387  1.0000
  H   H989      1.0  0.92855  0.65752  0.77264  1.0000
  C   C632      1.0  0.58622  0.57680  0.54271  1.0000
  H   H990      1.0  0.78745  0.60081  0.61950  1.0000
  H   H991      1.0  0.90711  0.64130  0.79931  1.0000
  H   H992      1.0  0.63420  0.64500  0.88648  1.0000
  H   H993      1.0  0.91641  0.66353  0.88190  1.0000
  C   C633      1.0  0.85474  0.55159  0.54600  1.0000
  H   H994      1.0  0.83072  0.55457  0.57957  1.0000
  H   H995      1.0  0.94567  0.71853  0.63326  1.0000
  N   N64       1.0  0.95115  0.72141  0.56769  1.0000
  S   S251      1.0  0.68294  0.61568  0.55952  1.0000
  H   H996      1.0  0.90181  0.58497  0.54170  1.0000
  C   C634      1.0  0.82327  0.61213  0.54617  1.0000
  H   H997      1.0  0.92806  0.52458  0.56278  1.0000
  H   H998      1.0  0.91215  0.68924  0.73536  1.0000
  H   H999      1.0  0.79120  0.63180  0.58165  1.0000
  H   H1000     1.0  0.62533  0.65725  0.92379  1.0000
  H   H1001     1.0  0.59568  0.63876  0.96642  1.0000
  S   S252      1.0  0.52364  0.56109  0.00244  1.0000
  S   S253      1.0  0.62281  0.67492  0.83276  1.0000
  H   H1002     1.0  0.55399  0.56890  0.65046  1.0000
  N   N65       1.0  0.81593  0.65297  0.81646  1.0000
  C   C635      1.0  0.83027  0.66681  0.84505  1.0000
  C   C636      1.0  0.82329  0.63770  0.80569  1.0000
  C   C637      1.0  0.81375  0.66316  0.77822  1.0000
  C   C638      1.0  0.79644  0.64418  0.83680  1.0000
  H   H1003     1.0  0.83268  0.65952  0.87385  1.0000
  H   H1004     1.0  0.82507  0.67838  0.85450  1.0000
  H   H1005     1.0  0.84503  0.67394  0.83030  1.0000
  H   H1006     1.0  0.82516  0.62965  0.83371  1.0000
  H   H1007     1.0  0.81297  0.62704  0.78388  1.0000
  H   H1008     1.0  0.47771  0.50551  0.91095  1.0000
  H   H1009     1.0  0.80308  0.65315  0.75580  1.0000
  H   H1010     1.0  0.82816  0.66989  0.76186  1.0000
  H   H1011     1.0  0.80823  0.67483  0.78491  1.0000
  H   H1012     1.0  0.78532  0.63362  0.81601  1.0000
  H   H1013     1.0  0.79039  0.65529  0.84522  1.0000
  H   H1014     1.0  0.79760  0.63638  0.86579  1.0000
  C   C639      1.0  0.59842  0.62549  0.95890  1.0000
  H   H1015     1.0  0.48563  0.51388  0.85956  1.0000
  C   C640      1.0  0.92968  0.71458  0.55766  1.0000
  H   H1016     1.0  0.60086  0.63141  0.85413  1.0000
  H   H1017     1.0  0.63741  0.64133  0.94097  1.0000
  S   S254      1.0  0.93965  0.55479  0.98123  1.0000
  H   H1018     1.0  0.90513  0.52853  0.56363  1.0000
  H   H1019     1.0  0.56909  0.56061  0.61848  1.0000
  H   H1020     1.0  0.55094  0.54396  0.65159  1.0000
  H   H1021     1.0  0.65737  0.70608  0.70498  1.0000
  C   C641      1.0  0.56216  0.55894  0.64954  1.0000
  C   C642      1.0  0.64203  0.69268  0.76080  1.0000
  H   H1022     1.0  0.94618  0.68520  0.84424  1.0000
  H   H1023     1.0  0.83802  0.64386  0.79056  1.0000
  N   N66       1.0  0.93307  0.65429  0.83807  1.0000
  Fe  Fe129     1.0  0.67937  0.64302  0.53920  1.0000
  C   C643      1.0  0.50267  0.48936  0.88788  1.0000
  H   H1024     1.0  0.60887  0.60028  0.57476  1.0000
  H   H1025     1.0  0.80164  0.58703  0.60271  1.0000
  C   C644      1.0  0.91207  0.51785  0.57119  1.0000
  H   H1026     1.0  0.95956  0.67522  0.81155  1.0000
  C   C645      1.0  0.84625  0.56135  0.57157  1.0000
  H   H1027     1.0  0.61649  0.54603  0.57749  1.0000
  H   H1028     1.0  0.91138  0.51554  0.60537  1.0000
  H   H1029     1.0  0.82324  0.59731  0.54251  1.0000
  C   C646      1.0  0.47619  0.50112  0.87787  1.0000
  Fe  Fe130     1.0  0.96105  0.58222  0.01043  1.0000
  H   H1030     1.0  0.53831  0.65186  0.99625  1.0000
  C   C647      1.0  0.91229  0.48620  0.55808  1.0000
  H   H1031     1.0  0.78654  0.58591  0.53211  1.0000
  H   H1032     1.0  0.51333  0.50216  0.87145  1.0000
  C   C648      1.0  0.95471  0.72932  0.61021  1.0000
  S   S255      1.0  0.63240  0.72909  0.88465  1.0000
  C   C649      1.0  0.95422  0.49108  0.98905  1.0000
  S   S256      1.0  0.62530  0.73070  0.00341  1.0000
  S   S257      1.0  0.58933  0.73078  0.91232  1.0000
  H   H1033     1.0  0.50377  0.49281  0.92165  1.0000
  H   H1034     1.0  0.87987  0.48762  0.59532  1.0000
  H   H1035     1.0  0.50682  0.62838  0.02111  1.0000
  H   H1036     1.0  0.92402  0.72646  0.55982  1.0000
  H   H1037     1.0  0.95596  0.69915  0.53308  1.0000
  S   S258      1.0  0.53760  0.58484  0.53884  1.0000
  H   H1038     1.0  0.53618  0.61880  0.01575  1.0000
  C   C650      1.0  0.54322  0.65598  0.02884  1.0000
  C   C651      1.0  0.57963  0.55728  0.53180  1.0000
  H   H1039     1.0  0.58600  0.53141  0.53464  1.0000
  H   H1040     1.0  0.57772  0.58533  0.53328  1.0000
  Fe  Fe131     1.0  0.58343  0.88500  0.36094  1.0000
  S   S259      1.0  0.60335  0.91520  0.37671  1.0000
  S   S260      1.0  0.55019  0.87449  0.35723  1.0000
  Fe  Fe132     1.0  0.61747  0.87200  0.34293  1.0000
  S   S261      1.0  0.64024  0.90196  0.35497  1.0000
  S   S262      1.0  0.62880  0.84798  0.32958  1.0000
  Fe  Fe133     1.0  0.62149  0.90100  0.41076  1.0000
  S   S263      1.0  0.63629  0.91032  0.47356  1.0000
  Fe  Fe134     1.0  0.62003  0.91355  0.31946  1.0000
  S   S264      1.0  0.62233  0.93627  0.26948  1.0000
  S   S265      1.0  0.59988  0.87081  0.40021  1.0000
  S   S266      1.0  0.59900  0.88361  0.30237  1.0000
  H   H1041     1.0  0.58722  0.82435  0.34913  1.0000
  H   H1042     1.0  0.56302  0.89574  0.26812  1.0000
  S   S267      1.0  0.57943  0.75679  0.32654  1.0000
  S   S268      1.0  0.50370  0.91907  0.44688  1.0000
  H   H1043     1.0  0.61315  0.95597  0.45235  1.0000
  H   H1044     1.0  0.59039  0.95980  0.46027  1.0000
  C   C652      1.0  0.60408  0.95957  0.47600  1.0000
  Fe  Fe135     1.0  0.52658  0.96203  0.10264  1.0000
  S   S269      1.0  0.51788  0.94812  0.16624  1.0000
  C   C653      1.0  0.47092  0.94328  0.09625  1.0000
  H   H1045     1.0  0.55214  0.93514  0.21351  1.0000
  H   H1046     1.0  0.48529  0.94240  0.10631  1.0000
  Fe  Fe136     1.0  0.51892  0.95121  0.44701  1.0000
  H   H1047     1.0  0.56514  0.93882  0.32644  1.0000
  S   S270      1.0  0.52422  0.96713  0.50710  1.0000
  H   H1048     1.0  0.58123  0.91524  0.24073  1.0000
  C   C654      1.0  0.51918  0.95391  0.25046  1.0000
  C   C655      1.0  0.52383  0.96266  0.21116  1.0000
  H   H1049     1.0  0.52066  0.95822  0.31702  1.0000
  H   H1050     1.0  0.51179  0.93842  0.25280  1.0000
  H   H1051     1.0  0.53189  0.92296  0.29755  1.0000
  C   C656      1.0  0.56512  0.90867  0.24831  1.0000
  C   C657      1.0  0.56137  0.93937  0.24239  1.0000
  H   H1052     1.0  0.55715  0.95041  0.25822  1.0000
  H   H1053     1.0  0.53460  0.90010  0.30018  1.0000
  C   C658      1.0  0.53802  0.88696  0.38444  1.0000
  C   C659      1.0  0.54843  0.90480  0.40314  1.0000
  C   C660      1.0  0.53799  0.91497  0.42193  1.0000
  C   C661      1.0  0.51721  0.90699  0.42310  1.0000
  C   C662      1.0  0.50690  0.88896  0.40540  1.0000
  C   C663      1.0  0.51726  0.87910  0.38564  1.0000
  H   H1054     1.0  0.56444  0.91083  0.40287  1.0000
  H   H1055     1.0  0.54598  0.92878  0.43612  1.0000
  H   H1056     1.0  0.49083  0.88271  0.40640  1.0000
  H   H1057     1.0  0.50916  0.86530  0.37133  1.0000
  C   C664      1.0  0.64260  0.95719  0.25331  1.0000
  H   H1058     1.0  0.66276  0.88241  0.44389  1.0000
  C   C665      1.0  0.47419  0.96849  0.14527  1.0000
  N   N67       1.0  0.55849  0.92255  0.26973  1.0000
  H   H1059     1.0  0.64277  0.87315  0.50727  1.0000
  H   H1060     1.0  0.56915  0.91653  0.32838  1.0000
  C   C666      1.0  0.53724  0.91308  0.28022  1.0000
  C   C667      1.0  0.61455  0.82273  0.32810  1.0000
  C   C668      1.0  0.62381  0.81014  0.31602  1.0000
  C   C669      1.0  0.61324  0.79000  0.31505  1.0000
  C   C670      1.0  0.59326  0.78215  0.32654  1.0000
  C   C671      1.0  0.58404  0.79472  0.33909  1.0000
  C   C672      1.0  0.59458  0.81489  0.33976  1.0000
  H   H1061     1.0  0.63924  0.81601  0.30698  1.0000
  H   H1062     1.0  0.62058  0.78057  0.30536  1.0000
  H   H1063     1.0  0.56859  0.78885  0.34796  1.0000
  H   H1064     1.0  0.59568  0.88418  0.49020  1.0000
  H   H1065     1.0  0.52779  0.90833  0.25183  1.0000
  H   H1066     1.0  0.57719  0.94643  0.23300  1.0000
  H   H1067     1.0  0.55672  0.90360  0.21880  1.0000
  C   C673      1.0  0.63920  0.96909  0.22242  1.0000
  S   S271      1.0  0.50291  0.96808  0.41527  1.0000
  H   H1068     1.0  0.62745  0.94254  0.50956  1.0000
  C   C674      1.0  0.52413  0.96509  0.28685  1.0000
  C   C675      1.0  0.60337  0.88890  0.51947  1.0000
  C   C676      1.0  0.65869  0.84826  0.47943  1.0000
  C   C677      1.0  0.66179  0.96220  0.26997  1.0000
  C   C678      1.0  0.57029  0.92904  0.30826  1.0000
  H   H1069     1.0  0.66464  0.95317  0.29367  1.0000
  H   H1070     1.0  0.58633  0.93689  0.30155  1.0000
  H   H1071     1.0  0.66971  0.86083  0.49596  1.0000
  C   C679      1.0  0.65215  0.86916  0.42875  1.0000
  S   S272      1.0  0.66049  0.73556  0.29838  1.0000
  H   H1072     1.0  0.65232  0.83649  0.50264  1.0000
  S   S273      1.0  0.54866  0.96886  0.42111  1.0000
  H   H1073     1.0  0.61679  0.84002  0.42139  1.0000
  H   H1074     1.0  0.63614  0.83128  0.41291  1.0000
  C   C680      1.0  0.62873  0.83651  0.43740  1.0000
  H   H1075     1.0  0.47238  0.93465  0.17697  1.0000
  H   H1076     1.0  0.55103  0.74050  0.40715  1.0000
  H   H1077     1.0  0.48897  0.96875  0.15596  1.0000
  H   H1078     1.0  0.57408  0.92516  0.47904  1.0000
  C   C681      1.0  0.63250  0.86013  0.49078  1.0000
  H   H1079     1.0  0.58381  0.91526  0.52100  1.0000
  S   S274      1.0  0.51763  0.94385  0.04500  1.0000
  H   H1080     1.0  0.62055  0.86417  0.47647  1.0000
  N   N68       1.0  0.59920  0.94569  0.51101  1.0000
  H   H1081     1.0  0.62446  0.96531  0.20917  1.0000
  H   H1082     1.0  0.69873  0.74919  0.26143  1.0000
  S   S275      1.0  0.61133  0.73705  0.24710  1.0000
  H   H1083     1.0  0.46750  0.97325  0.17172  1.0000
  N   N69       1.0  0.64301  0.85349  0.45912  1.0000
  H   H1084     1.0  0.62145  0.82435  0.45919  1.0000
  H   H1085     1.0  0.58189  0.73425  0.40195  1.0000
  H   H1086     1.0  0.63344  0.74223  0.08873  1.0000
  C   C682      1.0  0.58803  0.92605  0.49526  1.0000
  H   H1087     1.0  0.59703  0.92151  0.47302  1.0000
  H   H1088     1.0  0.47682  0.97946  0.12007  1.0000
  H   H1089     1.0  0.47406  0.95378  0.07013  1.0000
  H   H1090     1.0  0.64068  0.87324  0.41274  1.0000
  H   H1091     1.0  0.66692  0.84324  0.45631  1.0000
  C   C683      1.0  0.62328  0.90146  0.52005  1.0000
  H   H1092     1.0  0.47708  0.90361  0.51843  1.0000
  S   S276      1.0  0.55784  0.97738  0.08118  1.0000
  C   C684      1.0  0.67738  0.97886  0.25559  1.0000
  H   H1093     1.0  0.66013  0.86471  0.40410  1.0000
  H   H1094     1.0  0.62547  0.84879  0.51451  1.0000
  C   C685      1.0  0.53306  0.98273  0.20838  1.0000
  Fe  Fe137     1.0  0.59160  0.73497  0.30169  1.0000
  H   H1095     1.0  0.47452  0.93867  0.47157  1.0000
  H   H1096     1.0  0.57304  0.95109  0.52650  1.0000
  H   H1097     1.0  0.61262  0.97454  0.48678  1.0000
  H   H1098     1.0  0.69218  0.98253  0.26849  1.0000
  H   H1099     1.0  0.54947  0.73431  0.46140  1.0000
  H   H1100     1.0  0.58087  0.89192  0.86983  1.0000
  H   H1101     1.0  0.61498  0.77224  0.91172  1.0000
  H   H1102     1.0  0.54982  0.88298  0.93837  1.0000
  H   H1103     1.0  0.66196  0.81558  0.91659  1.0000
  S   S277      1.0  0.61943  0.76793  0.82288  1.0000
  H   H1104     1.0  0.52873  0.86933  0.90650  1.0000
  Fe  Fe138     1.0  0.60213  0.88840  0.70653  1.0000
  S   S278      1.0  0.62549  0.87937  0.73679  1.0000
  S   S279      1.0  0.58915  0.88095  0.64142  1.0000
  Fe  Fe139     1.0  0.59403  0.90576  0.78741  1.0000
  S   S280      1.0  0.61693  0.89829  0.82316  1.0000
  S   S281      1.0  0.57297  0.91936  0.81182  1.0000
  Fe  Fe140     1.0  0.63545  0.90886  0.76619  1.0000
  S   S282      1.0  0.66793  0.92729  0.77348  1.0000
  Fe  Fe141     1.0  0.60484  0.86937  0.79116  1.0000
  S   S283      1.0  0.59440  0.84159  0.83079  1.0000
  S   S284      1.0  0.61348  0.91843  0.73239  1.0000
  S   S285      1.0  0.58067  0.87640  0.75870  1.0000
  H   H1105     1.0  0.59309  0.94997  0.73021  1.0000
  S   S286      1.0  0.57144  0.95119  0.99409  1.0000
  C   C686      1.0  0.66757  0.96316  0.74917  1.0000
  C   C687      1.0  0.57325  0.92882  0.86219  1.0000
  C   C688      1.0  0.58842  0.93062  0.89108  1.0000
  C   C689      1.0  0.58763  0.93753  0.93127  1.0000
  C   C690      1.0  0.57177  0.94280  0.94294  1.0000
  C   C691      1.0  0.55673  0.94122  0.91390  1.0000
  C   C692      1.0  0.55750  0.93426  0.87373  1.0000
  H   H1106     1.0  0.60079  0.92675  0.88252  1.0000
  H   H1107     1.0  0.59938  0.93878  0.95349  1.0000
  H   H1108     1.0  0.54446  0.94525  0.92245  1.0000
  H   H1109     1.0  0.54570  0.93295  0.85161  1.0000
  C   C693      1.0  0.61141  0.78780  0.82414  1.0000
  C   C694      1.0  0.62143  0.80425  0.79980  1.0000
  C   C695      1.0  0.61630  0.82070  0.80099  1.0000
  C   C696      1.0  0.60112  0.82100  0.82691  1.0000
  C   C697      1.0  0.59112  0.80455  0.85138  1.0000
  C   C698      1.0  0.59611  0.78803  0.84984  1.0000
  H   H1110     1.0  0.63331  0.80433  0.77981  1.0000
  H   H1111     1.0  0.62417  0.83318  0.78200  1.0000
  H   H1112     1.0  0.57930  0.80454  0.87141  1.0000
  H   H1113     1.0  0.58805  0.77547  0.86843  1.0000
  H   H1114     1.0  0.64102  0.80371  0.99970  1.0000
  C   C699      1.0  0.55277  0.84943  0.91469  1.0000
  H   H1115     1.0  0.58304  0.88422  0.92194  1.0000
  C   C700      1.0  0.67868  0.95162  0.75736  1.0000
  H   H1116     1.0  0.56118  0.84087  0.90239  1.0000
  C   C701      1.0  0.69936  0.95969  0.75392  1.0000
  H   H1117     1.0  0.53675  0.83990  0.91476  1.0000
  H   H1118     1.0  0.70802  0.95090  0.76028  1.0000
  C   C702      1.0  0.54496  0.87804  0.90612  1.0000
  C   C703      1.0  0.96234  0.73663  0.53782  1.0000
  H   H1119     1.0  0.66512  0.80370  0.98755  1.0000
  C   C704      1.0  0.60285  0.88878  0.59535  1.0000
  C   C705      1.0  0.62285  0.90116  0.59594  1.0000
  H   H1120     1.0  0.57774  0.87305  0.55631  1.0000
  H   H1121     1.0  0.63044  0.90593  0.62533  1.0000
  N   N70       1.0  0.64203  0.78899  0.94339  1.0000
  C   C706      1.0  0.64589  0.80623  0.91679  1.0000
  C   C707      1.0  0.47657  0.91614  0.53608  1.0000
  C   C708      1.0  0.62049  0.77735  0.94347  1.0000
  C   C709      1.0  0.64889  0.79493  0.98630  1.0000
  C   C710      1.0  0.65274  0.77729  0.92693  1.0000
  H   H1122     1.0  0.64846  0.91712  0.55910  1.0000
  H   H1123     1.0  0.55212  0.87429  0.82607  1.0000
  C   C711      1.0  0.63303  0.90744  0.55838  1.0000
  H   H1124     1.0  0.61179  0.78580  0.95457  1.0000
  Fe  Fe142     1.0  0.60882  0.73860  0.85630  1.0000
  H   H1125     1.0  0.58671  0.87093  0.87881  1.0000
  Fe  Fe143     1.0  0.50834  0.96752  0.01950  1.0000
  H   H1126     1.0  0.64799  0.77273  0.89439  1.0000
  Fe  Fe144     1.0  0.54811  0.96137  0.02082  1.0000
  H   H1127     1.0  0.59506  0.96548  0.55427  1.0000
  H   H1128     1.0  0.47313  0.95079  0.54106  1.0000
  H   H1129     1.0  0.63456  0.97668  0.70479  1.0000
  C   C712      1.0  0.54977  0.86136  0.84603  1.0000
  H   H1130     1.0  0.64610  0.78213  0.00696  1.0000
  H   H1131     1.0  0.65160  0.95703  0.75221  1.0000
  H   H1132     1.0  0.64131  0.80212  0.88399  1.0000
  H   H1133     1.0  0.66907  0.78550  0.92671  1.0000
  H   H1134     1.0  0.53373  0.85206  0.84409  1.0000
  H   H1135     1.0  0.61463  0.93582  0.55790  1.0000
  C   C713      1.0  0.57766  0.87903  0.89011  1.0000
  H   H1136     1.0  0.63750  0.81510  0.92728  1.0000
  H   H1137     1.0  0.64987  0.76397  0.94586  1.0000
  H   H1138     1.0  0.58264  0.94043  0.56767  1.0000
  H   H1139     1.0  0.58280  0.97427  0.69259  1.0000
  H   H1140     1.0  0.55766  0.85315  0.94745  1.0000
  H   H1141     1.0  0.54715  0.89118  0.88701  1.0000
  H   H1142     1.0  0.61306  0.96946  0.67138  1.0000
  N   N71       1.0  0.55625  0.86695  0.88930  1.0000
  H   H1143     1.0  0.55827  0.85323  0.83218  1.0000
  C   C714      1.0  0.59321  0.88265  0.55697  1.0000
  H   H1144     1.0  0.59239  0.96144  0.77833  1.0000
  H   H1145     1.0  0.95708  0.74882  0.53742  1.0000
  H   H1146     1.0  0.61700  0.76439  0.96384  1.0000
  S   S287      1.0  0.47861  0.95793  0.98427  1.0000
  H   H1147     1.0  0.47610  0.91251  0.56970  1.0000
  N   N72       1.0  0.60919  0.98075  0.73032  1.0000
  C   C715      1.0  0.60202  0.96176  0.75151  1.0000
  C   C716      1.0  0.58693  0.95084  0.54127  1.0000
  H   H1148     1.0  0.62653  0.96087  0.54399  1.0000
  C   C717      1.0  0.70897  0.97892  0.74171  1.0000
  H   H1149     1.0  0.95070  0.74223  0.61283  1.0000
  C   C718      1.0  0.62166  0.98034  0.69473  1.0000
  H   H1150     1.0  0.61458  0.95805  0.76375  1.0000
  C   C719      1.0  0.61776  0.94627  0.53156  1.0000
  C   C720      1.0  0.67734  0.98275  0.73758  1.0000
  H   H1151     1.0  0.49087  0.92838  0.53021  1.0000
  S   S288      1.0  0.53835  0.98371  0.99101  1.0000
  H   H1152     1.0  0.61127  0.98384  0.02523  1.0000
