data_image0
_chemical_formula_structural       C2HCH2CSHCH3C3SH5C3HS2CNH2C2HNHFeCH2CHCHCH4CHSCH8FeHC2H4C2NCH5CH2CH3CH3NC2FeS2Fe2S3HCHC2HC2H3CH2CHSFeSC3HCH2CH2SHSHFeSFeSFeSFeS3HC2HC2H2CNH3CH2C4HCHCH2CH2FeSCSHSH4CHSH2NH2CHSCHCSFe2CHSH2C2FeC2H2C4H2CH4SH3C3HCH3C2H2CHNHNHCH2CH3S2H3C3Fe2CH5NFeS2C8SHC3H2CH3SH4CHFeHC2HCSH5C2SCHC3SFeH2SH2SFeHCH3CNHCHCH4SHSH2SCSCH3CSH2CH3CFeCH2CHSH2C2HCH2FeHCHFeNHCH2NH2CH4C3H3C2H3CHCH2CFeS3CH2CNFeCHCHSFeH3SFeHFeCHSC4H2CH3C2SH4CH4CHCSCSHFeSFeS2Fe2S3CHC3H2NCH5SH4C3HCHCHNH2SH2FeC2HC2H3C3H2NCSCHSCHCH5CH4CHFeSFeSFe2S2HC3HS3C2HCSHC2HNCH2CH8C2HCHC2SC2H6Fe2S3HSCH4CH3CH2C2SH2FeHSCH2FeSHCHCHFeCH2NCNH2SH2C2HCNH6FeC3SCNCH2C2HC3SH9SHCHSC2SH2CFeSCFeCH4CHFeH3CSH2C2H3FeHSH4C2SCHSHC2HCNCFeS2Fe2S2H2C2H2C2HC4H5C2HSNH5CHC2H2CHSFeCHFeCHNH2CHCH2SC2SH3CHFeSFeSC2H2CH2C2H3C2SNCH2SHCHSH3CHCSH5CNHFeC2H2FeCH2CHC2HSCH6CH2SC3H2CHCHCSCS2HCH2NHC2HSH2C3H3SH2C2HCH4CH2CFeSHNCH6SC2NC2HCHCH7CH4CH2CH4SFeSFeSFeS3C2HCSCFeHC3HC2H2NC3NH2CHC2H3CH4CH6CSC5H4CH5CSFeS2FeHSFeC2HC2HNHSCHS2H3CH4CH2CHNCH2SNHCHCH5CH2FeCS3C3H2NCH3SCH2CHFeH6C4HC2NH2CFeSFeHSCHCH5CH3SHC2HC4SHFeHCH4CH2C2H4C2H2CH2SC2HNHFeS3Fe2SC2HCNH3CHCHSHC2H5CHCS2C3H2SNFeC2H3CH2CH4CH3FeH3C2HFeSFeSFeSFeS3CH3S2C2H5C2H12CH3CH4CHNC2SH2NHFeSFeSCH3CHCHC2H2CHCHSC2HCHNHSCFeCH2S2H2C2H2FeH2C2H4C2H2CFeSFeSFe2S3HCHCNSCHCH2CHCSHCHCHCSH6C2H3CH3SHFeSC6H4C2H3NCSHSH2CSCFeHFeCHFeS2HSCSH3CHNH2CHC2H2C2H5FeS3HC2NHC2HCHCH3CFeH3CH4FeHC2FeSH3CSHC3H5NCHCH3CH3CSH2CH2C2SHSH3FeC2FeCFeS2HFeS2CSH2C2HCH2CNHFeCH2CHCH4CSCHCH4CHCHCHCSFeCH2SHCHCHCH2CH2CH3CH2SCH2SFeSFeSFe2S3HC2HCSC2HCH5C2H3CHCHCH3CSCH3NFeS2FeHCHNCH3NH3FeCFeS2CHC2S2H2CHCH4CH2SCHC5SH2FeSH3NH2C2H2SHC2HCSCHC2SH4CH2CH4CH2CNH2CH3SC3H2C3SCSC4HSH3CHNH2CH5CH2C2NCHCH2FeNCHFeSHCH2S2C2FeSFeS2C3H2CHC2H7CFeC2H3CHSHSHCHSH4CFeCHCHNH2CHCH2SNCFeCH2CHCH4CHCH9CHCSC3H2CSFe2CNH4SFeSHCH3C2H3C2SH4CHC2NCHCHFeSCHFeHCHSH3C2FeS3C3HC2HC2NH3C2H3CH6SCH2CHSCNHCHCH2C2H2C2HSCSHC2HCHSFeSFeS2Fe2HS2H4C3H8CHCSH2NCH4SHC3HCNH2CH5C2HCH5C2FeSC2HSH3CH4CSH2SHFeCH2
_chemical_formula_sum              "C640 H1024 S256 N64 Fe128"
_cell_length_a       51.4663
_cell_length_b       50.4157
_cell_length_c       30.7306
_cell_angle_alpha    89.5148
_cell_angle_beta     89.4594
_cell_angle_gamma    87.8082

_space_group_name_H-M_alt    "P 1"
_space_group_IT_number       1

loop_
  _space_group_symop_operation_xyz
  'x, y, z'

loop_
  _atom_site_type_symbol
  _atom_site_label
  _atom_site_symmetry_multiplicity
  _atom_site_fract_x
  _atom_site_fract_y
  _atom_site_fract_z
  _atom_site_occupancy
  C   C1        1.0  0.28751  0.23103  0.34058  1.0000
  C   C2        1.0  0.31854  0.15687  0.22913  1.0000
  H   H1        1.0  0.30277  0.21878  0.32610  1.0000
  C   C3        1.0  0.32490  0.15941  0.18500  1.0000
  H   H2        1.0  0.29835  0.15705  0.23940  1.0000
  H   H3        1.0  0.31639  0.23764  0.23338  1.0000
  C   C4        1.0  0.27128  0.22033  0.37239  1.0000
  S   S1        1.0  0.29999  0.16406  0.14703  1.0000
  H   H4        1.0  0.16767  0.24911  0.30391  1.0000
  C   C5        1.0  0.28374  0.25753  0.32713  1.0000
  H   H5        1.0  0.29673  0.26594  0.30338  1.0000
  H   H6        1.0  0.13653  0.26657  0.30451  1.0000
  H   H7        1.0  0.15665  0.26722  0.25649  1.0000
  C   C6        1.0  0.15702  0.26753  0.29271  1.0000
  C   C7        1.0  0.24641  0.26216  0.37518  1.0000
  C   C8        1.0  0.25005  0.23559  0.38830  1.0000
  S   S2        1.0  0.27818  0.18871  0.39464  1.0000
  H   H8        1.0  0.32662  0.37838  0.28419  1.0000
  H   H9        1.0  0.13400  0.31575  0.30528  1.0000
  H   H10       1.0  0.20627  0.31000  0.30409  1.0000
  H   H11       1.0  0.20822  0.27446  0.30364  1.0000
  H   H12       1.0  0.18017  0.27332  0.36994  1.0000
  C   C9        1.0  0.16931  0.29111  0.35688  1.0000
  C   C10       1.0  0.26376  0.27339  0.34565  1.0000
  C   C11       1.0  0.19641  0.29214  0.29242  1.0000
  H   H13       1.0  0.12608  0.38385  0.31400  1.0000
  S   S3        1.0  0.20969  0.35979  0.37130  1.0000
  S   S4        1.0  0.26175  0.30746  0.33361  1.0000
  C   C12       1.0  0.12036  0.36946  0.33827  1.0000
  N   N1        1.0  0.16932  0.29154  0.30878  1.0000
  H   H14       1.0  0.19724  0.29253  0.25622  1.0000
  H   H15       1.0  0.15384  0.31639  0.25704  1.0000
  C   C13       1.0  0.15450  0.31542  0.29320  1.0000
  C   C14       1.0  0.31801  0.39864  0.27808  1.0000
  H   H16       1.0  0.30936  0.39899  0.24504  1.0000
  N   N2        1.0  0.29851  0.40626  0.31178  1.0000
  H   H17       1.0  0.16328  0.33395  0.30458  1.0000
  Fe  Fe1       1.0  0.24258  0.33124  0.38721  1.0000
  C   C15       1.0  0.09646  0.35733  0.33468  1.0000
  H   H18       1.0  0.26658  0.39020  0.27721  1.0000
  H   H19       1.0  0.28247  0.36741  0.31471  1.0000
  C   C16       1.0  0.27628  0.38860  0.30936  1.0000
  H   H20       1.0  0.26128  0.39375  0.33450  1.0000
  C   C17       1.0  0.13692  0.36290  0.37302  1.0000
  H   H21       1.0  0.31713  0.38295  0.36241  1.0000
  C   C18       1.0  0.31041  0.40375  0.35528  1.0000
  H   H22       1.0  0.15517  0.37258  0.37585  1.0000
  H   H23       1.0  0.17851  0.30891  0.37009  1.0000
  H   H24       1.0  0.14916  0.29102  0.37049  1.0000
  H   H25       1.0  0.29637  0.40999  0.38138  1.0000
  C   C19       1.0  0.28942  0.43410  0.30440  1.0000
  H   H26       1.0  0.32758  0.41635  0.35787  1.0000
  S   S5        1.0  0.23609  0.42980  0.39207  1.0000
  C   C20       1.0  0.08889  0.33912  0.36648  1.0000
  H   H27       1.0  0.23023  0.27388  0.38802  1.0000
  H   H28       1.0  0.28062  0.43692  0.27169  1.0000
  H   H29       1.0  0.27440  0.44045  0.32881  1.0000
  H   H30       1.0  0.26003  0.48023  0.38505  1.0000
  H   H31       1.0  0.30567  0.44797  0.30709  1.0000
  H   H32       1.0  0.32038  0.58735  0.31827  1.0000
  H   H33       1.0  0.31852  0.12180  0.47371  1.0000
  H   H34       1.0  0.23701  0.22713  0.41204  1.0000
  Fe  Fe2       1.0  0.32106  0.17880  0.39816  1.0000
  H   H35       1.0  0.29368  0.22462  0.47524  1.0000
  C   C21       1.0  0.32183  0.10281  0.48979  1.0000
  C   C22       1.0  0.28682  0.24460  0.48681  1.0000
  H   H36       1.0  0.28050  0.24252  0.52136  1.0000
  H   H37       1.0  0.32318  0.24549  0.42444  1.0000
  H   H38       1.0  0.26928  0.25048  0.46764  1.0000
  H   H39       1.0  0.32382  0.25576  0.54464  1.0000
  C   C23       1.0  0.32956  0.25662  0.50968  1.0000
  C   C24       1.0  0.31587  0.26534  0.43585  1.0000
  N   N3        1.0  0.30722  0.26430  0.48182  1.0000
  C   C25       1.0  0.19173  0.32352  0.63966  1.0000
  H   H40       1.0  0.09365  0.39521  0.53821  1.0000
  H   H41       1.0  0.09365  0.33460  0.60766  1.0000
  H   H42       1.0  0.25654  0.33504  0.64196  1.0000
  H   H43       1.0  0.10385  0.39305  0.59402  1.0000
  H   H44       1.0  0.12466  0.32157  0.58924  1.0000
  C   C26       1.0  0.09943  0.34317  0.52103  1.0000
  H   H45       1.0  0.12293  0.35018  0.62332  1.0000
  H   H46       1.0  0.23131  0.38973  0.62272  1.0000
  C   C27       1.0  0.11319  0.34028  0.59593  1.0000
  H   H47       1.0  0.09992  0.31764  0.42469  1.0000
  H   H48       1.0  0.28972  0.29060  0.52946  1.0000
  H   H49       1.0  0.27971  0.29726  0.47466  1.0000
  C   C28       1.0  0.29660  0.29071  0.49497  1.0000
  H   H50       1.0  0.15023  0.34769  0.53450  1.0000
  H   H51       1.0  0.14779  0.37568  0.57002  1.0000
  H   H52       1.0  0.29970  0.27198  0.41417  1.0000
  N   N4        1.0  0.11144  0.35761  0.55689  1.0000
  C   C29       1.0  0.10560  0.33229  0.40087  1.0000
  C   C30       1.0  0.12975  0.34393  0.40380  1.0000
  Fe  Fe3       1.0  0.24277  0.34680  0.48248  1.0000
  S   S6        1.0  0.20990  0.37683  0.47501  1.0000
  S   S7        1.0  0.25983  0.33951  0.54847  1.0000
  Fe  Fe4       1.0  0.23063  0.38790  0.41350  1.0000
  Fe  Fe5       1.0  0.19214  0.34587  0.43419  1.0000
  S   S8        1.0  0.15117  0.33349  0.44498  1.0000
  S   S9        1.0  0.26530  0.36047  0.42425  1.0000
  S   S10       1.0  0.22341  0.31469  0.44662  1.0000
  H   H53       1.0  0.20671  0.32686  0.53207  1.0000
  C   C31       1.0  0.23406  0.33206  0.58366  1.0000
  H   H54       1.0  0.17016  0.31752  0.58138  1.0000
  C   C32       1.0  0.18869  0.32231  0.59466  1.0000
  C   C33       1.0  0.20961  0.32715  0.56672  1.0000
  H   H55       1.0  0.26231  0.41223  0.47037  1.0000
  C   C34       1.0  0.23754  0.33190  0.62875  1.0000
  C   C35       1.0  0.13779  0.36533  0.54349  1.0000
  H   H56       1.0  0.13720  0.37857  0.51427  1.0000
  H   H57       1.0  0.31140  0.30615  0.49185  1.0000
  H   H58       1.0  0.11105  0.32479  0.51269  1.0000
  C   C36       1.0  0.09534  0.38172  0.56703  1.0000
  H   H59       1.0  0.09824  0.35552  0.49080  1.0000
  H   H60       1.0  0.26721  0.42132  0.62639  1.0000
  C   C37       1.0  0.26936  0.43137  0.46095  1.0000
  H   H61       1.0  0.32109  0.59121  0.64152  1.0000
  S   S11       1.0  0.32234  0.48146  0.50488  1.0000
  Fe  Fe6       1.0  0.33098  0.57831  0.45484  1.0000
  S   S12       1.0  0.33063  0.54095  0.41578  1.0000
  C   C38       1.0  0.29788  0.46775  0.47375  1.0000
  C   C39       1.0  0.28747  0.48121  0.43756  1.0000
  C   C40       1.0  0.25909  0.44476  0.42456  1.0000
  H   H62       1.0  0.32940  0.50744  0.58672  1.0000
  C   C41       1.0  0.28874  0.44286  0.48549  1.0000
  H   H63       1.0  0.29667  0.43242  0.51356  1.0000
  H   H64       1.0  0.29412  0.50056  0.42870  1.0000
  C   C42       1.0  0.26808  0.46973  0.41299  1.0000
  H   H65       1.0  0.33196  0.27925  0.43113  1.0000
  H   H66       1.0  0.20949  0.41553  0.64306  1.0000
  S   S13       1.0  0.19031  0.25354  0.86170  1.0000
  H   H67       1.0  0.09882  0.29864  0.85692  1.0000
  S   S14       1.0  0.16446  0.32012  0.67360  1.0000
  H   H68       1.0  0.30092  0.38899  0.79352  1.0000
  Fe  Fe7       1.0  0.18645  0.29317  0.82854  1.0000
  S   S15       1.0  0.19567  0.33031  0.86351  1.0000
  Fe  Fe8       1.0  0.17531  0.32260  0.74387  1.0000
  S   S16       1.0  0.18318  0.36240  0.77179  1.0000
  Fe  Fe9       1.0  0.21725  0.34093  0.80271  1.0000
  S   S17       1.0  0.25806  0.35503  0.80060  1.0000
  Fe  Fe10      1.0  0.16056  0.34775  0.82943  1.0000
  S   S18       1.0  0.13185  0.37163  0.86976  1.0000
  S   S19       1.0  0.21116  0.30209  0.77048  1.0000
  S   S20       1.0  0.14962  0.30960  0.79888  1.0000
  H   H69       1.0  0.21882  0.32922  0.69147  1.0000
  C   C43       1.0  0.23973  0.40313  0.83182  1.0000
  C   C44       1.0  0.28456  0.40036  0.80709  1.0000
  H   H70       1.0  0.22131  0.39394  0.83742  1.0000
  C   C45       1.0  0.26085  0.38837  0.81434  1.0000
  C   C46       1.0  0.21625  0.32822  0.65677  1.0000
  H   H71       1.0  0.22235  0.40480  0.74054  1.0000
  H   H72       1.0  0.10677  0.35098  0.79377  1.0000
  C   C47       1.0  0.09942  0.36424  0.85934  1.0000
  N   N5        1.0  0.24411  0.40865  0.68087  1.0000
  H   H73       1.0  0.29187  0.34916  0.87631  1.0000
  H   H74       1.0  0.26014  0.31446  0.86740  1.0000
  H   H75       1.0  0.25185  0.36995  0.70893  1.0000
  C   C48       1.0  0.26219  0.38622  0.69219  1.0000
  H   H76       1.0  0.27768  0.39246  0.71453  1.0000
  H   H77       1.0  0.21169  0.38389  0.67025  1.0000
  C   C49       1.0  0.09241  0.35357  0.81943  1.0000
  C   C50       1.0  0.22323  0.39907  0.65298  1.0000
  C   C51       1.0  0.28712  0.42723  0.81660  1.0000
  C   C52       1.0  0.24247  0.42994  0.84218  1.0000
  H   H78       1.0  0.27191  0.37766  0.66271  1.0000
  C   C53       1.0  0.23258  0.42005  0.72114  1.0000
  H   H79       1.0  0.24773  0.42813  0.74244  1.0000
  C   C54       1.0  0.25849  0.42922  0.65723  1.0000
  H   H80       1.0  0.13570  0.26746  0.87683  1.0000
  H   H81       1.0  0.24507  0.35921  0.89287  1.0000
  C   C55       1.0  0.08977  0.29294  0.88853  1.0000
  H   H82       1.0  0.21825  0.43656  0.71398  1.0000
  H   H83       1.0  0.30535  0.43645  0.81008  1.0000
  Fe  Fe11      1.0  0.30810  0.48906  0.82273  1.0000
  S   S21       1.0  0.31665  0.49019  0.75123  1.0000
  C   C56       1.0  0.26616  0.44203  0.83447  1.0000
  S   S22       1.0  0.26948  0.47563  0.84652  1.0000
  H   H84       1.0  0.22619  0.44140  0.85585  1.0000
  S   S23       1.0  0.32139  0.53011  0.83354  1.0000
  H   H85       1.0  0.27457  0.43663  0.67730  1.0000
  H   H86       1.0  0.28058  0.56966  0.86713  1.0000
  H   H87       1.0  0.31439  0.59139  0.82156  1.0000
  H   H88       1.0  0.25820  0.59717  0.85720  1.0000
  C   C57       1.0  0.27415  0.58972  0.87883  1.0000
  H   H89       1.0  0.24550  0.44660  0.64859  1.0000
  S   S24       1.0  0.32659  0.56709  0.72577  1.0000
  H   H90       1.0  0.32946  0.51155  0.64479  1.0000
  H   H91       1.0  0.23259  0.22267  0.89951  1.0000
  N   N6        1.0  0.29863  0.10646  0.05179  1.0000
  H   H92       1.0  0.08314  0.26490  0.96145  1.0000
  H   H93       1.0  0.27165  0.13230  0.01716  1.0000
  C   C58       1.0  0.27402  0.12252  0.04954  1.0000
  H   H94       1.0  0.31924  0.13364  0.01104  1.0000
  S   S25       1.0  0.32229  0.24416  0.00274  1.0000
  C   C59       1.0  0.32074  0.12375  0.04349  1.0000
  H   H95       1.0  0.27328  0.13846  0.07448  1.0000
  C   C60       1.0  0.31581  0.15373  0.92531  1.0000
  S   S26       1.0  0.28604  0.19490  0.03452  1.0000
  Fe  Fe12      1.0  0.28618  0.23904  0.04266  1.0000
  Fe  Fe13      1.0  0.30988  0.19345  0.09503  1.0000
  C   C61       1.0  0.28935  0.15802  0.93438  1.0000
  H   H96       1.0  0.25737  0.22836  0.96748  1.0000
  S   S27       1.0  0.30659  0.23724  0.10671  1.0000
  H   H97       1.0  0.28227  0.17669  0.94777  1.0000
  H   H98       1.0  0.25147  0.14127  0.93416  1.0000
  C   C62       1.0  0.27188  0.13810  0.92612  1.0000
  C   C63       1.0  0.32461  0.12995  0.90590  1.0000
  Fe  Fe14      1.0  0.32431  0.19972  0.00032  1.0000
  C   C64       1.0  0.22709  0.23855  0.92165  1.0000
  C   C65       1.0  0.24108  0.24174  0.96010  1.0000
  H   H99       1.0  0.32149  0.13966  0.06826  1.0000
  H   H100      1.0  0.25685  0.11013  0.05502  1.0000
  C   C66       1.0  0.20646  0.25631  0.91124  1.0000
  C   C67       1.0  0.28078  0.11385  0.90862  1.0000
  C   C68       1.0  0.23396  0.26226  0.98868  1.0000
  C   C69       1.0  0.30708  0.10994  0.89760  1.0000
  H   H101      1.0  0.14195  0.25962  0.93279  1.0000
  H   H102      1.0  0.11468  0.24588  0.90610  1.0000
  C   C70       1.0  0.12616  0.26403  0.90897  1.0000
  H   H103      1.0  0.30111  0.10962  0.12135  1.0000
  H   H104      1.0  0.27773  0.29244  0.90395  1.0000
  H   H105      1.0  0.13653  0.31507  0.89642  1.0000
  H   H106      1.0  0.08586  0.37653  0.92285  1.0000
  S   S28       1.0  0.25202  0.26758  0.03560  1.0000
  H   H107      1.0  0.31060  0.32759  0.91195  1.0000
  H   H108      1.0  0.20731  0.29541  0.00096  1.0000
  H   H109      1.0  0.25563  0.31639  0.98909  1.0000
  C   C71       1.0  0.19933  0.27677  0.93990  1.0000
  C   C72       1.0  0.09656  0.28160  0.96406  1.0000
  C   C73       1.0  0.26276  0.30891  0.90227  1.0000
  H   H110      1.0  0.11389  0.32865  0.93561  1.0000
  C   C74       1.0  0.29426  0.34268  0.91085  1.0000
  H   H111      1.0  0.14047  0.30732  0.95320  1.0000
  H   H112      1.0  0.30014  0.36028  0.92948  1.0000
  H   H113      1.0  0.28861  0.30656  0.97685  1.0000
  C   C75       1.0  0.21288  0.27958  0.97882  1.0000
  C   C76       1.0  0.24893  0.35263  0.92689  1.0000
  H   H114      1.0  0.18338  0.29043  0.93202  1.0000
  H   H115      1.0  0.11082  0.27640  0.99006  1.0000
  C   C77       1.0  0.27398  0.32334  0.97422  1.0000
  H   H116      1.0  0.24415  0.30081  0.91377  1.0000
  N   N7        1.0  0.27000  0.33188  0.92855  1.0000
  H   H117      1.0  0.23039  0.34523  0.94046  1.0000
  N   N8        1.0  0.10961  0.28724  0.92214  1.0000
  H   H118      1.0  0.28061  0.33983  0.99467  1.0000
  C   C78       1.0  0.12587  0.31054  0.92708  1.0000
  H   H119      1.0  0.25389  0.37049  0.94567  1.0000
  H   H120      1.0  0.08473  0.29921  0.97541  1.0000
  C   C79       1.0  0.31660  0.59729  0.90795  1.0000
  H   H121      1.0  0.26574  0.58725  0.91207  1.0000
  H   H122      1.0  0.32447  0.57758  0.89686  1.0000
  H   H123      1.0  0.30938  0.59491  0.94197  1.0000
  S   S29       1.0  0.31008  0.74046  0.32018  1.0000
  S   S30       1.0  0.31393  0.69024  0.22292  1.0000
  H   H124      1.0  0.30947  0.61856  0.34141  1.0000
  H   H125      1.0  0.30832  0.70269  0.38873  1.0000
  H   H126      1.0  0.31982  0.63949  0.26973  1.0000
  C   C80       1.0  0.32687  0.60515  0.33568  1.0000
  C   C81       1.0  0.08319  0.88429  0.59690  1.0000
  C   C82       1.0  0.33043  0.05325  0.52979  1.0000
  Fe  Fe15      1.0  0.33122  0.72131  0.26393  1.0000
  Fe  Fe16      1.0  0.32546  0.77842  0.29328  1.0000
  C   C83       1.0  0.16426  0.89717  0.15236  1.0000
  H   H127      1.0  0.31011  0.90601  0.32310  1.0000
  H   H128      1.0  0.19894  0.82138  0.29014  1.0000
  H   H129      1.0  0.20706  0.86174  0.18930  1.0000
  H   H130      1.0  0.23256  0.85142  0.22607  1.0000
  H   H131      1.0  0.16578  0.80433  0.21347  1.0000
  N   N9        1.0  0.20196  0.82385  0.22027  1.0000
  Fe  Fe17      1.0  0.13532  0.88640  0.33287  1.0000
  S   S31       1.0  0.11382  0.87914  0.27106  1.0000
  S   S32       1.0  0.17854  0.88931  0.33468  1.0000
  C   C84       1.0  0.13233  0.88747  0.22498  1.0000
  C   C85       1.0  0.15317  0.90433  0.22847  1.0000
  C   C86       1.0  0.23892  0.84739  0.34613  1.0000
  C   C87       1.0  0.21493  0.80902  0.18432  1.0000
  C   C88       1.0  0.17352  0.82464  0.21375  1.0000
  C   C89       1.0  0.16908  0.90922  0.19219  1.0000
  C   C90       1.0  0.21121  0.85125  0.22071  1.0000
  C   C91       1.0  0.27208  0.80243  0.35364  1.0000
  S   S33       1.0  0.30415  0.81808  0.28701  1.0000
  H   H132      1.0  0.22659  0.86498  0.34353  1.0000
  C   C92       1.0  0.27732  0.82182  0.32235  1.0000
  C   C93       1.0  0.20816  0.81054  0.26218  1.0000
  C   C94       1.0  0.26084  0.84447  0.31894  1.0000
  H   H133      1.0  0.26484  0.85966  0.29500  1.0000
  H   H134      1.0  0.11054  0.86357  0.18164  1.0000
  C   C95       1.0  0.12681  0.87638  0.18466  1.0000
  H   H135      1.0  0.16305  0.83603  0.23993  1.0000
  H   H136      1.0  0.15692  0.91382  0.25901  1.0000
  H   H137      1.0  0.18541  0.92195  0.19526  1.0000
  S   S34       1.0  0.12692  0.92207  0.37452  1.0000
  H   H138      1.0  0.20123  0.78989  0.26310  1.0000
  H   H139      1.0  0.20818  0.78834  0.18231  1.0000
  H   H140      1.0  0.28495  0.78520  0.35722  1.0000
  H   H141      1.0  0.23643  0.80771  0.18825  1.0000
  C   C96       1.0  0.32041  0.88627  0.32621  1.0000
  H   H142      1.0  0.20149  0.86317  0.24698  1.0000
  Fe  Fe18      1.0  0.17022  0.92246  0.38157  1.0000
  H   H143      1.0  0.22171  0.90914  0.37330  1.0000
  C   C97       1.0  0.23322  0.82760  0.37651  1.0000
  C   C98       1.0  0.23535  0.92415  0.38001  1.0000
  H   H144      1.0  0.22952  0.80928  0.26788  1.0000
  C   C99       1.0  0.24999  0.80524  0.38049  1.0000
  S   S35       1.0  0.13386  0.85696  0.38788  1.0000
  H   H145      1.0  0.31065  0.87241  0.30435  1.0000
  H   H146      1.0  0.31745  0.87908  0.36015  1.0000
  H   H147      1.0  0.16826  0.83429  0.18217  1.0000
  H   H148      1.0  0.21093  0.81867  0.15221  1.0000
  H   H149      1.0  0.26817  0.89636  0.38179  1.0000
  C   C100      1.0  0.26169  0.91691  0.38509  1.0000
  C   C101      1.0  0.14280  0.88118  0.14839  1.0000
  S   S36       1.0  0.19336  0.95920  0.38297  1.0000
  C   C102      1.0  0.22668  0.95060  0.38483  1.0000
  H   H150      1.0  0.28685  0.65988  0.39713  1.0000
  C   C103      1.0  0.31723  0.68719  0.40854  1.0000
  C   C104      1.0  0.31641  0.64262  0.43889  1.0000
  C   C105      1.0  0.30497  0.66298  0.41358  1.0000
  S   S37       1.0  0.30207  0.61161  0.44106  1.0000
  Fe  Fe19      1.0  0.17656  0.86341  0.39405  1.0000
  H   H151      1.0  0.24582  0.78993  0.40419  1.0000
  H   H152      1.0  0.09257  0.89681  0.62142  1.0000
  S   S38       1.0  0.20572  0.83057  0.41060  1.0000
  H   H153      1.0  0.26461  0.83206  0.45786  1.0000
  H   H154      1.0  0.23655  0.86465  0.55688  1.0000
  S   S39       1.0  0.17114  0.89680  0.44124  1.0000
  Fe  Fe20      1.0  0.12854  0.89287  0.43005  1.0000
  H   H155      1.0  0.27599  0.82756  0.51262  1.0000
  C   C106      1.0  0.25502  0.87288  0.54460  1.0000
  H   H156      1.0  0.24166  0.82865  0.50132  1.0000
  H   H157      1.0  0.21903  0.87074  0.48228  1.0000
  H   H158      1.0  0.25386  0.89472  0.54995  1.0000
  C   C107      1.0  0.28447  0.87744  0.48365  1.0000
  N   N10       1.0  0.25956  0.86654  0.49819  1.0000
  H   H159      1.0  0.27106  0.86466  0.56540  1.0000
  C   C108      1.0  0.23814  0.87845  0.47196  1.0000
  H   H160      1.0  0.28849  0.87317  0.44868  1.0000
  C   C109      1.0  0.26056  0.83743  0.49241  1.0000
  H   H161      1.0  0.28433  0.89938  0.48740  1.0000
  H   H162      1.0  0.30112  0.86895  0.50276  1.0000
  H   H163      1.0  0.23702  0.90046  0.47455  1.0000
  H   H164      1.0  0.24065  0.87352  0.43691  1.0000
  S   S40       1.0  0.09904  0.89690  0.48442  1.0000
  H   H165      1.0  0.09092  0.84662  0.44372  1.0000
  S   S41       1.0  0.28248  0.92086  0.62154  1.0000
  H   H166      1.0  0.09868  0.87146  0.58135  1.0000
  H   H167      1.0  0.08939  0.83768  0.63977  1.0000
  S   S42       1.0  0.31056  0.92598  0.41326  1.0000
  C   C110      1.0  0.30126  0.05470  0.63481  1.0000
  S   S43       1.0  0.31778  0.98373  0.58415  1.0000
  C   C111      1.0  0.24453  0.96992  0.39438  1.0000
  H   H168      1.0  0.23803  0.99045  0.39784  1.0000
  H   H169      1.0  0.30008  0.03825  0.61114  1.0000
  H   H170      1.0  0.23694  0.00587  0.48545  1.0000
  C   C112      1.0  0.25758  0.96855  0.63777  1.0000
  S   S44       1.0  0.28066  0.03799  0.51785  1.0000
  H   H171      1.0  0.31061  0.07144  0.61766  1.0000
  H   H172      1.0  0.25961  0.97254  0.60336  1.0000
  C   C113      1.0  0.30567  0.06056  0.51433  1.0000
  H   H173      1.0  0.16792  0.99274  0.46421  1.0000
  H   H174      1.0  0.17796  0.01834  0.55426  1.0000
  H   H175      1.0  0.23508  0.00110  0.54331  1.0000
  C   C114      1.0  0.18325  0.99702  0.54852  1.0000
  Fe  Fe21      1.0  0.31614  0.94762  0.47504  1.0000
  C   C115      1.0  0.27070  0.96251  0.40137  1.0000
  H   H176      1.0  0.19344  0.98930  0.57816  1.0000
  H   H177      1.0  0.21931  0.96191  0.47421  1.0000
  C   C116      1.0  0.20640  0.96509  0.50304  1.0000
  H   H178      1.0  0.17939  0.02538  0.47487  1.0000
  S   S45       1.0  0.27959  0.95964  0.51118  1.0000
  H   H179      1.0  0.19792  0.00289  0.44084  1.0000
  H   H180      1.0  0.21669  0.95638  0.53181  1.0000
  C   C117      1.0  0.18557  0.00415  0.47074  1.0000
  C   C118      1.0  0.22386  0.00820  0.51441  1.0000
  H   H181      1.0  0.18870  0.95357  0.49745  1.0000
  C   C119      1.0  0.27919  0.93595  0.39713  1.0000
  H   H182      1.0  0.28213  0.09126  0.48301  1.0000
  H   H183      1.0  0.28424  0.97732  0.41066  1.0000
  Fe  Fe22      1.0  0.29967  0.99755  0.52211  1.0000
  H   H184      1.0  0.16484  0.98627  0.54557  1.0000
  C   C120      1.0  0.30124  0.08555  0.49507  1.0000
  H   H185      1.0  0.21976  0.02989  0.51854  1.0000
  Fe  Fe23      1.0  0.30136  0.94448  0.56923  1.0000
  N   N11       1.0  0.19975  0.99361  0.50919  1.0000
  H   H186      1.0  0.28092  0.06130  0.64304  1.0000
  C   C121      1.0  0.30649  0.61075  0.83425  1.0000
  H   H187      1.0  0.32261  0.62487  0.83319  1.0000
  H   H188      1.0  0.30233  0.64880  0.89452  1.0000
  N   N12       1.0  0.29593  0.60801  0.87892  1.0000
  H   H189      1.0  0.29131  0.61823  0.81121  1.0000
  H   H190      1.0  0.27054  0.64294  0.87426  1.0000
  C   C122      1.0  0.28652  0.63432  0.89473  1.0000
  H   H191      1.0  0.29017  0.76573  0.88211  1.0000
  H   H192      1.0  0.26983  0.91994  0.71319  1.0000
  H   H193      1.0  0.23490  0.90223  0.85153  1.0000
  H   H194      1.0  0.12584  0.84626  0.84624  1.0000
  C   C123      1.0  0.11289  0.83690  0.86912  1.0000
  C   C124      1.0  0.24504  0.90488  0.88180  1.0000
  C   C125      1.0  0.08843  0.82916  0.85553  1.0000
  H   H195      1.0  0.32743  0.89493  0.67550  1.0000
  H   H196      1.0  0.28499  0.79963  0.86439  1.0000
  H   H197      1.0  0.31458  0.78946  0.89152  1.0000
  C   C126      1.0  0.29318  0.78676  0.89091  1.0000
  C   C127      1.0  0.25912  0.92784  0.88819  1.0000
  H   H198      1.0  0.28476  0.08109  0.10283  1.0000
  H   H199      1.0  0.31595  0.94187  0.69421  1.0000
  H   H200      1.0  0.24141  0.94197  0.01560  1.0000
  C   C128      1.0  0.26331  0.93892  0.69970  1.0000
  H   H201      1.0  0.25960  0.94297  0.86306  1.0000
  C   C129      1.0  0.26602  0.94398  0.65507  1.0000
  H   H202      1.0  0.31325  0.01677  0.72494  1.0000
  H   H203      1.0  0.24032  0.00722  0.65179  1.0000
  C   C130      1.0  0.24668  0.98815  0.66514  1.0000
  Fe  Fe24      1.0  0.26009  0.01284  0.80177  1.0000
  S   S46       1.0  0.23403  0.00926  0.74417  1.0000
  S   S47       1.0  0.29342  0.98430  0.81597  1.0000
  S   S48       1.0  0.28402  0.04899  0.80162  1.0000
  C   C131      1.0  0.24513  0.98357  0.71004  1.0000
  H   H204      1.0  0.28253  0.02945  0.70519  1.0000
  H   H205      1.0  0.25196  0.95529  0.76203  1.0000
  C   C132      1.0  0.25339  0.95894  0.72734  1.0000
  N   N13       1.0  0.31583  0.04622  0.67411  1.0000
  Fe  Fe25      1.0  0.31661  0.02081  0.82119  1.0000
  C   C133      1.0  0.30283  0.02375  0.69516  1.0000
  H   H206      1.0  0.29642  0.07538  0.71492  1.0000
  C   C134      1.0  0.31641  0.06862  0.70478  1.0000
  H   H207      1.0  0.30178  0.00653  0.67298  1.0000
  S   S49       1.0  0.24755  0.01690  0.87152  1.0000
  Fe  Fe26      1.0  0.27439  0.05089  0.87268  1.0000
  H   H208      1.0  0.31404  0.09118  0.88416  1.0000
  H   H209      1.0  0.32726  0.06287  0.73489  1.0000
  H   H210      1.0  0.32608  0.08593  0.69001  1.0000
  S   S50       1.0  0.30955  0.02636  0.89276  1.0000
  Fe  Fe27      1.0  0.28346  0.99200  0.88612  1.0000
  H   H211      1.0  0.27896  0.63324  0.92878  1.0000
  Fe  Fe28      1.0  0.31654  0.69334  0.95735  1.0000
  C   C135      1.0  0.22607  0.74702  0.01295  1.0000
  H   H212      1.0  0.29007  0.70804  0.04186  1.0000
  S   S51       1.0  0.27325  0.69090  0.95750  1.0000
  C   C136      1.0  0.25935  0.71335  0.99510  1.0000
  C   C137      1.0  0.27245  0.71914  0.03335  1.0000
  C   C138      1.0  0.23586  0.72689  0.98543  1.0000
  C   C139      1.0  0.26250  0.73904  0.06115  1.0000
  H   H213      1.0  0.22548  0.72221  0.95617  1.0000
  H   H214      1.0  0.20792  0.75737  0.00534  1.0000
  C   C140      1.0  0.23959  0.75340  0.05048  1.0000
  H   H215      1.0  0.27273  0.74353  0.09064  1.0000
  H   H216      1.0  0.28944  0.75451  0.95993  1.0000
  H   H217      1.0  0.30369  0.68044  0.13279  1.0000
  C   C141      1.0  0.32455  0.67975  0.13734  1.0000
  C   C142      1.0  0.17567  0.94841  0.02415  1.0000
  S   S52       1.0  0.28465  0.96207  0.94054  1.0000
  H   H218      1.0  0.31670  0.07262  0.01963  1.0000
  H   H219      1.0  0.24829  0.76883  0.92293  1.0000
  H   H220      1.0  0.24290  0.79426  0.96282  1.0000
  H   H221      1.0  0.24327  0.80293  0.90613  1.0000
  C   C143      1.0  0.25262  0.78966  0.93111  1.0000
  H   H222      1.0  0.28304  0.77978  0.99980  1.0000
  H   H223      1.0  0.31354  0.77834  0.97051  1.0000
  H   H224      1.0  0.27727  0.83514  0.91875  1.0000
  H   H225      1.0  0.30681  0.82489  0.94587  1.0000
  C   C144      1.0  0.28563  0.82133  0.94393  1.0000
  H   H226      1.0  0.27646  0.82702  0.97562  1.0000
  C   C145      1.0  0.12030  0.83339  0.91270  1.0000
  S   S53       1.0  0.22263  0.85929  0.90964  1.0000
  C   C146      1.0  0.29226  0.77577  0.96746  1.0000
  S   S54       1.0  0.22882  0.77993  0.08341  1.0000
  H   H227      1.0  0.13899  0.83989  0.92322  1.0000
  Fe  Fe29      1.0  0.20254  0.84872  0.97233  1.0000
  S   S55       1.0  0.18664  0.80829  0.98149  1.0000
  Fe  Fe30      1.0  0.18457  0.86737  0.06174  1.0000
  S   S56       1.0  0.16754  0.82846  0.07907  1.0000
  S   S57       1.0  0.18589  0.90127  0.10852  1.0000
  Fe  Fe31      1.0  0.20351  0.81027  0.04844  1.0000
  Fe  Fe32      1.0  0.15215  0.83028  0.01089  1.0000
  S   S58       1.0  0.11080  0.82034  0.99812  1.0000
  S   S59       1.0  0.22207  0.84911  0.03699  1.0000
  S   S60       1.0  0.16647  0.87082  0.99583  1.0000
  C   C147      1.0  0.10325  0.82206  0.94264  1.0000
  H   H228      1.0  0.13847  0.87248  0.11741  1.0000
  C   C148      1.0  0.24291  0.88613  0.91543  1.0000
  C   C149      1.0  0.25623  0.88947  0.95426  1.0000
  C   C150      1.0  0.27074  0.91202  0.96027  1.0000
  H   H229      1.0  0.25540  0.87475  0.97975  1.0000
  H   H230      1.0  0.28067  0.91473  0.99071  1.0000
  N   N14       1.0  0.28093  0.79338  0.93334  1.0000
  C   C151      1.0  0.27138  0.93168  0.92798  1.0000
  H   H231      1.0  0.21936  0.91603  0.02805  1.0000
  H   H232      1.0  0.19862  0.91976  0.95828  1.0000
  H   H233      1.0  0.17102  0.92704  0.02542  1.0000
  H   H234      1.0  0.28175  0.07240  0.02292  1.0000
  H   H235      1.0  0.20708  0.98937  0.03466  1.0000
  S   S61       1.0  0.25925  0.08787  0.90604  1.0000
  H   H236      1.0  0.22116  0.94392  0.06337  1.0000
  H   H237      1.0  0.15976  0.95921  0.00634  1.0000
  H   H238      1.0  0.21949  0.94554  0.94102  1.0000
  H   H239      1.0  0.17534  0.95549  0.05841  1.0000
  C   C152      1.0  0.30114  0.09424  0.09551  1.0000
  C   C153      1.0  0.22171  0.93790  0.02859  1.0000
  C   C154      1.0  0.20101  0.94164  0.95844  1.0000
  H   H240      1.0  0.18504  0.95103  0.93887  1.0000
  C   C155      1.0  0.29860  0.08540  0.01861  1.0000
  H   H241      1.0  0.19173  0.99219  0.98229  1.0000
  C   C156      1.0  0.20667  0.98076  0.00146  1.0000
  H   H242      1.0  0.29723  0.09397  0.98528  1.0000
  N   N15       1.0  0.20124  0.95218  0.00317  1.0000
  H   H243      1.0  0.22593  0.98414  0.98570  1.0000
  H   H244      1.0  0.31961  0.08217  0.09850  1.0000
  S   S62       1.0  0.38895  0.15455  0.28629  1.0000
  H   H245      1.0  0.43039  0.23978  0.29981  1.0000
  H   H246      1.0  0.39093  0.15655  0.19284  1.0000
  Fe  Fe33      1.0  0.37140  0.16324  0.35181  1.0000
  C   C157      1.0  0.40947  0.24185  0.36084  1.0000
  C   C158      1.0  0.37073  0.15671  0.20298  1.0000
  H   H247      1.0  0.41072  0.22061  0.36635  1.0000
  C   C159      1.0  0.42048  0.25269  0.32309  1.0000
  C   C160      1.0  0.38171  0.22498  0.23852  1.0000
  H   H248      1.0  0.38353  0.20969  0.21267  1.0000
  H   H249      1.0  0.39948  0.23686  0.23693  1.0000
  H   H250      1.0  0.36015  0.24090  0.16328  1.0000
  C   C161      1.0  0.36434  0.15509  0.24728  1.0000
  C   C162      1.0  0.35876  0.25551  0.19029  1.0000
  C   C163      1.0  0.39738  0.25851  0.39178  1.0000
  H   H251      1.0  0.38172  0.21423  0.27037  1.0000
  H   H252      1.0  0.50897  0.25509  0.32631  1.0000
  N   N16       1.0  0.35790  0.24198  0.23310  1.0000
  C   C164      1.0  0.35635  0.26195  0.26804  1.0000
  S   S63       1.0  0.34969  0.20205  0.36012  1.0000
  C   C165      1.0  0.35101  0.15929  0.17186  1.0000
  H   H253      1.0  0.35612  0.25236  0.30083  1.0000
  S   S64       1.0  0.34097  0.13921  0.38473  1.0000
  C   C166      1.0  0.33823  0.15515  0.26029  1.0000
  H   H254      1.0  0.33310  0.15398  0.29436  1.0000
  C   C167      1.0  0.33482  0.22543  0.23532  1.0000
  H   H255      1.0  0.33430  0.21361  0.26602  1.0000
  H   H256      1.0  0.33478  0.21113  0.20798  1.0000
  H   H257      1.0  0.37589  0.26826  0.18719  1.0000
  H   H258      1.0  0.53611  0.27082  0.38698  1.0000
  H   H259      1.0  0.44966  0.31699  0.18099  1.0000
  C   C168      1.0  0.49715  0.27399  0.32832  1.0000
  H   H260      1.0  0.50535  0.28821  0.30437  1.0000
  H   H261      1.0  0.53359  0.30340  0.36311  1.0000
  H   H262      1.0  0.37331  0.27499  0.26672  1.0000
  H   H263      1.0  0.33849  0.27497  0.26526  1.0000
  C   C169      1.0  0.48163  0.31019  0.37355  1.0000
  H   H264      1.0  0.46120  0.30740  0.36350  1.0000
  Fe  Fe34      1.0  0.46209  0.38445  0.22912  1.0000
  S   S65       1.0  0.48088  0.35033  0.26564  1.0000
  Fe  Fe35      1.0  0.41920  0.39244  0.29493  1.0000
  S   S66       1.0  0.43468  0.35966  0.33797  1.0000
  Fe  Fe36      1.0  0.47369  0.37582  0.32411  1.0000
  Fe  Fe37      1.0  0.44035  0.33703  0.27603  1.0000
  S   S67       1.0  0.43310  0.29355  0.26885  1.0000
  S   S68       1.0  0.42193  0.36862  0.23349  1.0000
  H   H265      1.0  0.57061  0.34955  0.27923  1.0000
  C   C170      1.0  0.41885  0.28013  0.31576  1.0000
  C   C171      1.0  0.54012  0.36272  0.32346  1.0000
  C   C172      1.0  0.53208  0.36473  0.36693  1.0000
  H   H266      1.0  0.52788  0.37082  0.29787  1.0000
  S   S69       1.0  0.45784  0.41109  0.28701  1.0000
  S   S70       1.0  0.48339  0.39746  0.16952  1.0000
  S   S71       1.0  0.38243  0.41276  0.31904  1.0000
  C   C173      1.0  0.56443  0.35086  0.31294  1.0000
  C   C174      1.0  0.40589  0.29660  0.34593  1.0000
  H   H267      1.0  0.40315  0.31751  0.33935  1.0000
  C   C175      1.0  0.58085  0.34097  0.34582  1.0000
  S   S72       1.0  0.50114  0.37839  0.38022  1.0000
  H   H268      1.0  0.49008  0.32499  0.35105  1.0000
  C   C176      1.0  0.39563  0.28589  0.38432  1.0000
  C   C177      1.0  0.57283  0.34297  0.38936  1.0000
  H   H269      1.0  0.47713  0.26986  0.31752  1.0000
  N   N17       1.0  0.49700  0.28486  0.37287  1.0000
  C   C178      1.0  0.52398  0.28957  0.38612  1.0000
  H   H270      1.0  0.45174  0.40818  0.39478  1.0000
  H   H271      1.0  0.43417  0.28799  0.16228  1.0000
  C   C179      1.0  0.45158  0.30021  0.15767  1.0000
  H   H272      1.0  0.42788  0.40109  0.15344  1.0000
  H   H273      1.0  0.42470  0.42938  0.37903  1.0000
  H   H274      1.0  0.46465  0.26209  0.39426  1.0000
  H   H275      1.0  0.34099  0.26830  0.18463  1.0000
  H   H276      1.0  0.46895  0.28781  0.16733  1.0000
  H   H277      1.0  0.33391  0.59834  0.36816  1.0000
  H   H278      1.0  0.45410  0.46152  0.34663  1.0000
  H   H279      1.0  0.47964  0.47471  0.37821  1.0000
  C   C180      1.0  0.38523  0.44703  0.32542  1.0000
  C   C181      1.0  0.40308  0.46114  0.30060  1.0000
  H   H280      1.0  0.41986  0.49923  0.28898  1.0000
  C   C182      1.0  0.40601  0.48832  0.30806  1.0000
  H   H281      1.0  0.41445  0.45122  0.27538  1.0000
  C   C183      1.0  0.39127  0.50126  0.34064  1.0000
  C   C184      1.0  0.37030  0.46008  0.35748  1.0000
  S   S73       1.0  0.39646  0.53452  0.35303  1.0000
  C   C185      1.0  0.37341  0.48705  0.36521  1.0000
  C   C186      1.0  0.46811  0.45678  0.37327  1.0000
  H   H282      1.0  0.35683  0.44926  0.37743  1.0000
  H   H283      1.0  0.48172  0.44056  0.36163  1.0000
  H   H284      1.0  0.36586  0.58186  0.29041  1.0000
  H   H285      1.0  0.36224  0.49663  0.39083  1.0000
  H   H286      1.0  0.37859  0.59491  0.33943  1.0000
  H   H287      1.0  0.33808  0.23680  0.50068  1.0000
  Fe  Fe38      1.0  0.36343  0.14707  0.44519  1.0000
  Fe  Fe39      1.0  0.37091  0.20456  0.42269  1.0000
  S   S74       1.0  0.38365  0.24515  0.43899  1.0000
  S   S75       1.0  0.39576  0.16785  0.41109  1.0000
  S   S76       1.0  0.37323  0.11510  0.49406  1.0000
  H   H288      1.0  0.49607  0.24634  0.40342  1.0000
  S   S77       1.0  0.34063  0.18432  0.46208  1.0000
  C   C187      1.0  0.54856  0.35504  0.39992  1.0000
  H   H289      1.0  0.48113  0.31918  0.40654  1.0000
  H   H290      1.0  0.52461  0.29861  0.41903  1.0000
  H   H291      1.0  0.35146  0.59347  0.57867  1.0000
  H   H292      1.0  0.48477  0.27340  0.43723  1.0000
  C   C188      1.0  0.48514  0.26582  0.40329  1.0000
  H   H293      1.0  0.38578  0.29876  0.40774  1.0000
  H   H294      1.0  0.54242  0.35648  0.43363  1.0000
  H   H295      1.0  0.42809  0.41917  0.43470  1.0000
  C   C189      1.0  0.43908  0.42539  0.40525  1.0000
  H   H296      1.0  0.34546  0.27090  0.50621  1.0000
  H   H297      1.0  0.48730  0.42572  0.43761  1.0000
  C   C190      1.0  0.47380  0.44241  0.44779  1.0000
  C   C191      1.0  0.34214  0.51026  0.61526  1.0000
  S   S78       1.0  0.37385  0.58383  0.44713  1.0000
  H   H298      1.0  0.35104  0.52980  0.61089  1.0000
  H   H299      1.0  0.33759  0.45924  0.59308  1.0000
  Fe  Fe40      1.0  0.33775  0.51990  0.47949  1.0000
  H   H300      1.0  0.46421  0.43628  0.47869  1.0000
  S   S79       1.0  0.38116  0.52097  0.47477  1.0000
  C   C192      1.0  0.35805  0.58468  0.60902  1.0000
  H   H301      1.0  0.39523  0.47317  0.58275  1.0000
  H   H302      1.0  0.48583  0.45971  0.45495  1.0000
  Fe  Fe41      1.0  0.37655  0.55994  0.50895  1.0000
  S   S80       1.0  0.40239  0.56854  0.56537  1.0000
  H   H303      1.0  0.38878  0.50835  0.57638  1.0000
  C   C193      1.0  0.34952  0.46289  0.62237  1.0000
  H   H304      1.0  0.42226  0.47649  0.40308  1.0000
  C   C194      1.0  0.38330  0.57365  0.61221  1.0000
  H   H305      1.0  0.36409  0.44611  0.62570  1.0000
  Fe  Fe42      1.0  0.37386  0.54449  0.41380  1.0000
  C   C195      1.0  0.43696  0.47112  0.42824  1.0000
  H   H306      1.0  0.44782  0.48934  0.43468  1.0000
  H   H307      1.0  0.42613  0.46594  0.45845  1.0000
  N   N18       1.0  0.45448  0.44894  0.41367  1.0000
  C   C196      1.0  0.37949  0.48883  0.58038  1.0000
  N   N19       1.0  0.36223  0.48863  0.61905  1.0000
  H   H308      1.0  0.36851  0.48525  0.55021  1.0000
  H   H309      1.0  0.33431  0.41254  0.27739  1.0000
  S   S81       1.0  0.33356  0.55693  0.51890  1.0000
  H   H310      1.0  0.37949  0.19708  0.82083  1.0000
  H   H311      1.0  0.36725  0.24402  0.80014  1.0000
  C   C197      1.0  0.37256  0.20199  0.85429  1.0000
  C   C198      1.0  0.36101  0.24734  0.83452  1.0000
  H   H312      1.0  0.41183  0.23135  0.82712  1.0000
  C   C199      1.0  0.40418  0.23592  0.86030  1.0000
  N   N20       1.0  0.37634  0.23015  0.86475  1.0000
  H   H313      1.0  0.38319  0.18844  0.87744  1.0000
  H   H314      1.0  0.33990  0.24336  0.83690  1.0000
  H   H315      1.0  0.41626  0.22419  0.88402  1.0000
  H   H316      1.0  0.40752  0.25725  0.86641  1.0000
  H   H317      1.0  0.35165  0.19710  0.85655  1.0000
  H   H318      1.0  0.36332  0.26873  0.84176  1.0000
  Fe  Fe43      1.0  0.47043  0.36143  0.85912  1.0000
  C   C200      1.0  0.41736  0.41186  0.71660  1.0000
  C   C201      1.0  0.43998  0.39817  0.73055  1.0000
  C   C202      1.0  0.53962  0.39392  0.75656  1.0000
  S   S82       1.0  0.47337  0.37761  0.79123  1.0000
  C   C203      1.0  0.42809  0.40735  0.80553  1.0000
  N   N21       1.0  0.55648  0.37760  0.78581  1.0000
  C   C204      1.0  0.44523  0.39560  0.77496  1.0000
  H   H319      1.0  0.45316  0.38906  0.70692  1.0000
  H   H320      1.0  0.43218  0.40532  0.83984  1.0000
  C   C205      1.0  0.54016  0.36041  0.81290  1.0000
  C   C206      1.0  0.57494  0.36094  0.75971  1.0000
  H   H321      1.0  0.56458  0.34745  0.73787  1.0000
  C   C207      1.0  0.57110  0.39508  0.81431  1.0000
  C   C208      1.0  0.40574  0.42181  0.79144  1.0000
  C   C209      1.0  0.40027  0.42377  0.74690  1.0000
  S   S83       1.0  0.49644  0.32623  0.87601  1.0000
  H   H322      1.0  0.55121  0.40713  0.73539  1.0000
  H   H323      1.0  0.52803  0.38126  0.73511  1.0000
  H   H324      1.0  0.52535  0.40656  0.77538  1.0000
  H   H325      1.0  0.52826  0.34738  0.79261  1.0000
  H   H326      1.0  0.57652  0.28653  0.85814  1.0000
  H   H327      1.0  0.41315  0.41326  0.68223  1.0000
  H   H328      1.0  0.52642  0.37235  0.83382  1.0000
  H   H329      1.0  0.55776  0.40777  0.83474  1.0000
  H   H330      1.0  0.55218  0.34743  0.83473  1.0000
  S   S84       1.0  0.43496  0.34520  0.89108  1.0000
  H   H331      1.0  0.39244  0.43082  0.81489  1.0000
  C   C210      1.0  0.58088  0.30465  0.87473  1.0000
  H   H332      1.0  0.33653  0.46217  0.65151  1.0000
  S   S85       1.0  0.37198  0.44035  0.72786  1.0000
  C   C211      1.0  0.39228  0.56407  0.65240  1.0000
  C   C212      1.0  0.37786  0.49259  0.65832  1.0000
  S   S86       1.0  0.37399  0.51152  0.77635  1.0000
  H   H333      1.0  0.38186  0.55453  0.71860  1.0000
  H   H334      1.0  0.37005  0.55808  0.81789  1.0000
  C   C213      1.0  0.37510  0.56273  0.68802  1.0000
  Fe  Fe44      1.0  0.35536  0.47235  0.77113  1.0000
  S   S87       1.0  0.34598  0.46908  0.84242  1.0000
  C   C214      1.0  0.37536  0.57232  0.84156  1.0000
  Fe  Fe45      1.0  0.36036  0.51058  0.84572  1.0000
  C   C215      1.0  0.34916  0.57156  0.68361  1.0000
  H   H335      1.0  0.36535  0.49361  0.68794  1.0000
  H   H336      1.0  0.41204  0.55614  0.65526  1.0000
  H   H337      1.0  0.39251  0.47604  0.66323  1.0000
  H   H338      1.0  0.38859  0.51119  0.65616  1.0000
  C   C216      1.0  0.38321  0.56418  0.88314  1.0000
  H   H339      1.0  0.40318  0.47332  0.87270  1.0000
  Fe  Fe46      1.0  0.33420  0.52939  0.76396  1.0000
  H   H340      1.0  0.43370  0.45532  0.87964  1.0000
  H   H341      1.0  0.35603  0.16091  0.13778  1.0000
  H   H342      1.0  0.34643  0.23221  0.91399  1.0000
  C   C217      1.0  0.36759  0.23540  0.90993  1.0000
  S   S88       1.0  0.34833  0.19466  0.06050  1.0000
  H   H343      1.0  0.37780  0.22180  0.93348  1.0000
  H   H344      1.0  0.37136  0.25608  0.91988  1.0000
  C   C218      1.0  0.42057  0.24463  0.98027  1.0000
  C   C219      1.0  0.40363  0.24376  0.01625  1.0000
  H   H345      1.0  0.42867  0.22639  0.96657  1.0000
  H   H346      1.0  0.39860  0.22482  0.03015  1.0000
  H   H347      1.0  0.34509  0.12657  0.89876  1.0000
  Fe  Fe47      1.0  0.34281  0.23874  0.06624  1.0000
  H   H348      1.0  0.33965  0.11231  0.04428  1.0000
  S   S89       1.0  0.33819  0.17704  0.94134  1.0000
  H   H349      1.0  0.41247  0.31444  0.10384  1.0000
  H   H350      1.0  0.47616  0.34307  0.13120  1.0000
  H   H351      1.0  0.42768  0.34345  0.12337  1.0000
  H   H352      1.0  0.43141  0.33416  0.06732  1.0000
  C   C220      1.0  0.42746  0.26911  0.96274  1.0000
  C   C221      1.0  0.39402  0.26737  0.03508  1.0000
  S   S90       1.0  0.44941  0.27039  0.91898  1.0000
  C   C222      1.0  0.56328  0.31544  0.90551  1.0000
  H   H353      1.0  0.54556  0.30545  0.91305  1.0000
  S   S91       1.0  0.37428  0.26644  0.08157  1.0000
  H   H354      1.0  0.41073  0.41613  0.91133  1.0000
  C   C223      1.0  0.40043  0.29178  0.01696  1.0000
  C   C224      1.0  0.47701  0.32623  0.10798  1.0000
  H   H355      1.0  0.43937  0.27419  0.08540  1.0000
  C   C225      1.0  0.41701  0.29264  0.98068  1.0000
  N   N22       1.0  0.45385  0.30992  0.11232  1.0000
  C   C226      1.0  0.56852  0.33927  0.92611  1.0000
  Fe  Fe48      1.0  0.44858  0.36595  0.95033  1.0000
  S   S92       1.0  0.47341  0.33198  0.97550  1.0000
  S   S93       1.0  0.42032  0.38487  0.99746  1.0000
  Fe  Fe49      1.0  0.46213  0.31228  0.91389  1.0000
  Fe  Fe50      1.0  0.50507  0.34942  0.93565  1.0000
  S   S94       1.0  0.54532  0.35461  0.96048  1.0000
  S   S95       1.0  0.48137  0.38577  0.91617  1.0000
  H   H356      1.0  0.39237  0.31006  0.03059  1.0000
  H   H357      1.0  0.42164  0.31160  0.96669  1.0000
  C   C227      1.0  0.43741  0.39138  0.04483  1.0000
  C   C228      1.0  0.46455  0.39114  0.04361  1.0000
  H   H358      1.0  0.47497  0.38818  0.01324  1.0000
  H   H359      1.0  0.49953  0.39371  0.08092  1.0000
  C   C229      1.0  0.47847  0.39439  0.08192  1.0000
  C   C230      1.0  0.42411  0.39562  0.08424  1.0000
  H   H360      1.0  0.40308  0.39598  0.08515  1.0000
  C   C231      1.0  0.46531  0.39732  0.12167  1.0000
  C   C232      1.0  0.43810  0.39832  0.12285  1.0000
  C   C233      1.0  0.45639  0.28709  0.08250  1.0000
  C   C234      1.0  0.43031  0.32620  0.10123  1.0000
  H   H361      1.0  0.47416  0.27455  0.08937  1.0000
  H   H362      1.0  0.49527  0.31443  0.11458  1.0000
  H   H363      1.0  0.38716  0.42174  0.95383  1.0000
  H   H364      1.0  0.45764  0.29375  0.04792  1.0000
  H   H365      1.0  0.47874  0.33487  0.07465  1.0000
  C   C235      1.0  0.39633  0.43100  0.92481  1.0000
  C   C236      1.0  0.38931  0.47405  0.95736  1.0000
  H   H366      1.0  0.38085  0.43446  0.90019  1.0000
  S   S96       1.0  0.38341  0.53025  0.89694  1.0000
  N   N23       1.0  0.40876  0.45593  0.93626  1.0000
  H   H367      1.0  0.42821  0.48759  0.90367  1.0000
  H   H368      1.0  0.38136  0.46521  0.98775  1.0000
  H   H369      1.0  0.44488  0.43552  0.95289  1.0000
  H   H370      1.0  0.37264  0.47881  0.93546  1.0000
  H   H371      1.0  0.42320  0.44164  0.99791  1.0000
  C   C237      1.0  0.41897  0.46852  0.89631  1.0000
  H   H372      1.0  0.39562  0.57721  0.94600  1.0000
  C   C238      1.0  0.38965  0.58330  0.91364  1.0000
  C   C239      1.0  0.43037  0.45017  0.96670  1.0000
  H   H373      1.0  0.39792  0.49321  0.96612  1.0000
  H   H374      1.0  0.44074  0.46845  0.97472  1.0000
  C   C240      1.0  0.34098  0.58371  0.64476  1.0000
  H   H375      1.0  0.36970  0.68525  0.21656  1.0000
  S   S97       1.0  0.36854  0.71365  0.29933  1.0000
  Fe  Fe51      1.0  0.34873  0.73615  0.35339  1.0000
  C   C241      1.0  0.36171  0.68256  0.18462  1.0000
  H   H376      1.0  0.39928  0.67777  0.15346  1.0000
  Fe  Fe52      1.0  0.37874  0.75356  0.27403  1.0000
  C   C242      1.0  0.33476  0.68337  0.17882  1.0000
  H   H377      1.0  0.36041  0.63813  0.36876  1.0000
  N   N24       1.0  0.34739  0.61873  0.31119  1.0000
  H   H378      1.0  0.37060  0.65301  0.31829  1.0000
  H   H379      1.0  0.33761  0.65745  0.33662  1.0000
  C   C243      1.0  0.35437  0.64285  0.33476  1.0000
  H   H380      1.0  0.35232  0.63742  0.24852  1.0000
  C   C244      1.0  0.37056  0.60063  0.30696  1.0000
  H   H381      1.0  0.38632  0.60998  0.28792  1.0000
  H   H382      1.0  0.39284  0.76079  0.16676  1.0000
  S   S98       1.0  0.34313  0.75958  0.23356  1.0000
  C   C245      1.0  0.37844  0.67826  0.14894  1.0000
  C   C246      1.0  0.33769  0.62632  0.26751  1.0000
  S   S99       1.0  0.41896  0.76126  0.25038  1.0000
  H   H383      1.0  0.42163  0.75769  0.34363  1.0000
  H   H384      1.0  0.43558  0.74049  0.38957  1.0000
  H   H385      1.0  0.40398  0.75640  0.39432  1.0000
  C   C247      1.0  0.42370  0.75838  0.37962  1.0000
  H   H386      1.0  0.57204  0.84028  0.20960  1.0000
  Fe  Fe53      1.0  0.51234  0.90316  0.32304  1.0000
  S   S100      1.0  0.48831  0.86696  0.32437  1.0000
  Fe  Fe54      1.0  0.45556  0.89495  0.30459  1.0000
  S   S101      1.0  0.42479  0.88510  0.25653  1.0000
  C   C248      1.0  0.42425  0.85087  0.24731  1.0000
  C   C249      1.0  0.40053  0.83929  0.23928  1.0000
  H   H387      1.0  0.38318  0.85163  0.23448  1.0000
  H   H388      1.0  0.38026  0.80288  0.23607  1.0000
  C   C250      1.0  0.42137  0.79557  0.24546  1.0000
  H   H389      1.0  0.46544  0.84363  0.25445  1.0000
  H   H390      1.0  0.35329  0.84627  0.30033  1.0000
  C   C251      1.0  0.39892  0.81166  0.23974  1.0000
  C   C252      1.0  0.44686  0.83477  0.25103  1.0000
  H   H391      1.0  0.38260  0.86214  0.31578  1.0000
  H   H392      1.0  0.46295  0.79464  0.25306  1.0000
  H   H393      1.0  0.37179  0.89794  0.25977  1.0000
  C   C253      1.0  0.44547  0.80708  0.24962  1.0000
  C   C254      1.0  0.36131  0.86144  0.32211  1.0000
  S   S102      1.0  0.36235  0.77578  0.33132  1.0000
  N   N25       1.0  0.34832  0.88778  0.31524  1.0000
  C   C255      1.0  0.35104  0.89601  0.26920  1.0000
  H   H394      1.0  0.35863  0.85429  0.35613  1.0000
  H   H395      1.0  0.34260  0.88134  0.24699  1.0000
  S   S103      1.0  0.44265  0.90422  0.37274  1.0000
  H   H396      1.0  0.55909  0.87789  0.36867  1.0000
  C   C256      1.0  0.36048  0.90738  0.34335  1.0000
  H   H397      1.0  0.34101  0.91561  0.26301  1.0000
  S   S104      1.0  0.55034  0.90523  0.28633  1.0000
  H   H398      1.0  0.41781  0.80677  0.34253  1.0000
  H   H399      1.0  0.46118  0.78429  0.33763  1.0000
  H   H400      1.0  0.39964  0.80604  0.39281  1.0000
  C   C257      1.0  0.41960  0.80634  0.37866  1.0000
  H   H401      1.0  0.37300  0.78980  0.15400  1.0000
  C   C258      1.0  0.57766  0.88301  0.35484  1.0000
  S   S105      1.0  0.48017  0.93048  0.29842  1.0000
  H   H402      1.0  0.38147  0.90929  0.33506  1.0000
  H   H403      1.0  0.35912  0.90159  0.37832  1.0000
  H   H404      1.0  0.35076  0.92739  0.33996  1.0000
  H   H405      1.0  0.47151  0.80307  0.38340  1.0000
  H   H406      1.0  0.47484  0.76747  0.38440  1.0000
  C   C259      1.0  0.46198  0.78452  0.37385  1.0000
  N   N26       1.0  0.43570  0.78311  0.39338  1.0000
  H   H407      1.0  0.42831  0.82529  0.38849  1.0000
  Fe  Fe55      1.0  0.47740  0.87908  0.39233  1.0000
  C   C260      1.0  0.57867  0.89721  0.31564  1.0000
  C   C261      1.0  0.34664  0.09533  0.50486  1.0000
  H   H408      1.0  0.42703  0.07249  0.38822  1.0000
  H   H409      1.0  0.39591  0.02724  0.35195  1.0000
  Fe  Fe56      1.0  0.47075  0.93702  0.36887  1.0000
  C   C262      1.0  0.40540  0.07398  0.38950  1.0000
  H   H410      1.0  0.39831  0.07665  0.35556  1.0000
  H   H411      1.0  0.42434  0.02345  0.38513  1.0000
  C   C263      1.0  0.40275  0.02623  0.38618  1.0000
  H   H412      1.0  0.35779  0.05392  0.37777  1.0000
  C   C264      1.0  0.33966  0.64689  0.46060  1.0000
  C   C265      1.0  0.34074  0.69133  0.42945  1.0000
  H   H413      1.0  0.36979  0.67448  0.47264  1.0000
  S   S106      1.0  0.35698  0.72097  0.42077  1.0000
  C   C266      1.0  0.35172  0.67131  0.45613  1.0000
  H   H414      1.0  0.34820  0.63150  0.48121  1.0000
  H   H415      1.0  0.49508  0.91059  0.60598  1.0000
  H   H416      1.0  0.34943  0.90521  0.63349  1.0000
  H   H417      1.0  0.52489  0.90593  0.51994  1.0000
  H   H418      1.0  0.44978  0.76616  0.45357  1.0000
  H   H419      1.0  0.41802  0.78214  0.45707  1.0000
  C   C267      1.0  0.43754  0.78326  0.44137  1.0000
  H   H420      1.0  0.44636  0.80168  0.45306  1.0000
  H   H421      1.0  0.48695  0.88950  0.56170  1.0000
  S   S107      1.0  0.47496  0.84819  0.44540  1.0000
  C   C268      1.0  0.42332  0.88645  0.52591  1.0000
  C   C269      1.0  0.45558  0.85722  0.49074  1.0000
  C   C270      1.0  0.43708  0.87824  0.48845  1.0000
  H   H422      1.0  0.43370  0.88864  0.45818  1.0000
  H   H423      1.0  0.47342  0.82718  0.53219  1.0000
  C   C271      1.0  0.45935  0.84365  0.53024  1.0000
  H   H424      1.0  0.44907  0.84167  0.59822  1.0000
  C   C272      1.0  0.42809  0.87375  0.56588  1.0000
  H   H425      1.0  0.40962  0.90326  0.52422  1.0000
  C   C273      1.0  0.44572  0.85198  0.56779  1.0000
  S   S108      1.0  0.41339  0.88685  0.61324  1.0000
  C   C274      1.0  0.48409  0.90989  0.57500  1.0000
  S   S109      1.0  0.50496  0.91255  0.39347  1.0000
  S   S110      1.0  0.33640  0.92903  0.53254  1.0000
  H   H426      1.0  0.48132  0.90810  0.48762  1.0000
  C   C275      1.0  0.52064  0.92595  0.53406  1.0000
  H   H427      1.0  0.53241  0.92741  0.56409  1.0000
  H   H428      1.0  0.46308  0.91284  0.58339  1.0000
  N   N27       1.0  0.49257  0.93017  0.54345  1.0000
  H   H429      1.0  0.45659  0.93092  0.50839  1.0000
  C   C276      1.0  0.47790  0.92795  0.50264  1.0000
  C   C277      1.0  0.44343  0.97737  0.44345  1.0000
  H   H430      1.0  0.39970  0.09244  0.40759  1.0000
  S   S111      1.0  0.33433  0.98700  0.48037  1.0000
  H   H431      1.0  0.35691  0.03640  0.42904  1.0000
  H   H432      1.0  0.39931  0.06612  0.47462  1.0000
  C   C278      1.0  0.40421  0.04791  0.45566  1.0000
  C   C279      1.0  0.41139  0.97824  0.51767  1.0000
  C   C280      1.0  0.44908  0.99366  0.47847  1.0000
  H   H433      1.0  0.42572  0.04488  0.45627  1.0000
  H   H434      1.0  0.39561  0.03089  0.47327  1.0000
  H   H435      1.0  0.36985  0.06500  0.53780  1.0000
  S   S112      1.0  0.46340  0.97763  0.39714  1.0000
  H   H436      1.0  0.52763  0.94085  0.51013  1.0000
  H   H437      1.0  0.35909  0.07179  0.42764  1.0000
  C   C281      1.0  0.36583  0.05315  0.41126  1.0000
  C   C282      1.0  0.43327  0.99382  0.51582  1.0000
  H   H438      1.0  0.49848  0.95934  0.59265  1.0000
  C   C283      1.0  0.48756  0.95685  0.56196  1.0000
  H   H439      1.0  0.43761  0.00649  0.54287  1.0000
  H   H440      1.0  0.46577  0.00607  0.47676  1.0000
  H   H441      1.0  0.39498  0.00805  0.40155  1.0000
  H   H442      1.0  0.38863  0.95008  0.48382  1.0000
  C   C284      1.0  0.35075  0.07080  0.52580  1.0000
  H   H443      1.0  0.46649  0.96035  0.56971  1.0000
  H   H444      1.0  0.41715  0.94913  0.41831  1.0000
  C   C285      1.0  0.40555  0.96215  0.48245  1.0000
  Fe  Fe57      1.0  0.35107  0.96987  0.54200  1.0000
  S   S113      1.0  0.39081  0.97992  0.56316  1.0000
  H   H445      1.0  0.48377  0.94300  0.47808  1.0000
  N   N28       1.0  0.39454  0.05031  0.41062  1.0000
  C   C286      1.0  0.42178  0.96145  0.44554  1.0000
  H   H446      1.0  0.49327  0.97270  0.53871  1.0000
  H   H447      1.0  0.33405  0.03405  0.54479  1.0000
  H   H448      1.0  0.34330  0.02102  0.63897  1.0000
  H   H449      1.0  0.35708  0.73308  0.14509  1.0000
  H   H450      1.0  0.33272  0.60865  0.24829  1.0000
  H   H451      1.0  0.41421  0.74145  0.80270  1.0000
  S   S114      1.0  0.37493  0.65185  0.84666  1.0000
  C   C287      1.0  0.35354  0.64400  0.72671  1.0000
  C   C288      1.0  0.39947  0.63233  0.73034  1.0000
  N   N29       1.0  0.37973  0.65091  0.71114  1.0000
  C   C289      1.0  0.38092  0.64896  0.66318  1.0000
  C   C290      1.0  0.38497  0.67832  0.72439  1.0000
  H   H452      1.0  0.41934  0.63634  0.71799  1.0000
  C   C291      1.0  0.39238  0.75604  0.85830  1.0000
  H   H453      1.0  0.39990  0.63405  0.76641  1.0000
  C   C292      1.0  0.37975  0.61831  0.86072  1.0000
  H   H454      1.0  0.38779  0.73645  0.86969  1.0000
  H   H455      1.0  0.40461  0.68423  0.71341  1.0000
  H   H456      1.0  0.38416  0.68037  0.76052  1.0000
  H   H457      1.0  0.35172  0.64600  0.76263  1.0000
  H   H458      1.0  0.49714  0.74851  0.83733  1.0000
  H   H459      1.0  0.34919  0.62316  0.71859  1.0000
  H   H460      1.0  0.33812  0.65712  0.71186  1.0000
  C   C293      1.0  0.40725  0.75888  0.82023  1.0000
  H   H461      1.0  0.39548  0.61134  0.72263  1.0000
  H   H462      1.0  0.37045  0.69291  0.71055  1.0000
  H   H463      1.0  0.36729  0.60489  0.79815  1.0000
  H   H464      1.0  0.36602  0.66236  0.64744  1.0000
  C   C294      1.0  0.48228  0.76311  0.85009  1.0000
  H   H465      1.0  0.46573  0.76367  0.82695  1.0000
  H   H466      1.0  0.37742  0.62841  0.65234  1.0000
  C   C295      1.0  0.37393  0.59915  0.83021  1.0000
  H   H467      1.0  0.47480  0.75539  0.88166  1.0000
  H   H468      1.0  0.40030  0.65429  0.65013  1.0000
  H   H469      1.0  0.53116  0.77452  0.87284  1.0000
  H   H470      1.0  0.51749  0.78603  0.79781  1.0000
  S   S115      1.0  0.45057  0.90446  0.71855  1.0000
  Fe  Fe58      1.0  0.43896  0.83003  0.74264  1.0000
  S   S116      1.0  0.45781  0.85587  0.79053  1.0000
  Fe  Fe59      1.0  0.42724  0.88651  0.77244  1.0000
  S   S117      1.0  0.40667  0.90741  0.82765  1.0000
  Fe  Fe60      1.0  0.47976  0.87154  0.73333  1.0000
  S   S118      1.0  0.52280  0.87679  0.73781  1.0000
  S   S119      1.0  0.40606  0.85908  0.72940  1.0000
  S   S120      1.0  0.46357  0.84281  0.68630  1.0000
  C   C296      1.0  0.41320  0.78416  0.80496  1.0000
  C   C297      1.0  0.40404  0.80666  0.82765  1.0000
  H   H471      1.0  0.40846  0.82628  0.81600  1.0000
  C   C298      1.0  0.53298  0.87066  0.79134  1.0000
  S   S121      1.0  0.43334  0.78723  0.75899  1.0000
  C   C299      1.0  0.52307  0.86876  0.86861  1.0000
  Fe  Fe61      1.0  0.43203  0.87423  0.67650  1.0000
  H   H472      1.0  0.49759  0.88652  0.82055  1.0000
  C   C300      1.0  0.55758  0.85889  0.79929  1.0000
  C   C301      1.0  0.51606  0.87624  0.82622  1.0000
  C   C302      1.0  0.56482  0.85179  0.84188  1.0000
  H   H473      1.0  0.48575  0.80069  0.78819  1.0000
  C   C303      1.0  0.50198  0.79938  0.81194  1.0000
  C   C304      1.0  0.38945  0.80380  0.86611  1.0000
  H   H474      1.0  0.50997  0.81953  0.81421  1.0000
  H   H475      1.0  0.39551  0.91554  0.69302  1.0000
  N   N30       1.0  0.49306  0.78968  0.85490  1.0000
  C   C305      1.0  0.34773  0.90087  0.66899  1.0000
  C   C306      1.0  0.38370  0.77848  0.88155  1.0000
  C   C307      1.0  0.54740  0.85646  0.87643  1.0000
  N   N31       1.0  0.35436  0.92406  0.69525  1.0000
  H   H476      1.0  0.36107  0.88348  0.67594  1.0000
  H   H477      1.0  0.36716  0.90201  0.75205  1.0000
  C   C308      1.0  0.51522  0.78804  0.88518  1.0000
  H   H478      1.0  0.57076  0.85462  0.77236  1.0000
  C   C309      1.0  0.57214  0.91925  0.88056  1.0000
  C   C310      1.0  0.35226  0.91737  0.74204  1.0000
  H   H479      1.0  0.38268  0.82123  0.88386  1.0000
  H   H480      1.0  0.52357  0.80783  0.88981  1.0000
  H   H481      1.0  0.33281  0.90978  0.75050  1.0000
  C   C311      1.0  0.38111  0.93163  0.68435  1.0000
  H   H482      1.0  0.55352  0.91757  0.86277  1.0000
  H   H483      1.0  0.57999  0.89873  0.88652  1.0000
  H   H484      1.0  0.45566  0.80976  0.85043  1.0000
  H   H485      1.0  0.48004  0.82857  0.87607  1.0000
  C   C312      1.0  0.47270  0.80822  0.87240  1.0000
  H   H486      1.0  0.50970  0.87276  0.89535  1.0000
  H   H487      1.0  0.33320  0.61071  0.90896  1.0000
  H   H488      1.0  0.53823  0.95994  0.89622  1.0000
  H   H489      1.0  0.36710  0.93828  0.87118  1.0000
  H   H490      1.0  0.35489  0.93509  0.76253  1.0000
  H   H491      1.0  0.38644  0.94978  0.70178  1.0000
  C   C313      1.0  0.39513  0.94017  0.81883  1.0000
  S   S122      1.0  0.35522  0.02013  0.78635  1.0000
  C   C314      1.0  0.37458  0.95018  0.84473  1.0000
  C   C315      1.0  0.36285  0.97508  0.83544  1.0000
  C   C316      1.0  0.37186  0.99030  0.80061  1.0000
  C   C317      1.0  0.39323  0.98089  0.77587  1.0000
  C   C318      1.0  0.40480  0.95572  0.78484  1.0000
  H   H492      1.0  0.40043  0.99275  0.74918  1.0000
  H   H493      1.0  0.42094  0.94824  0.76520  1.0000
  H   H494      1.0  0.34665  0.98232  0.85520  1.0000
  H   H495      1.0  0.35427  0.03161  0.69102  1.0000
  C   C319      1.0  0.34278  0.03795  0.66189  1.0000
  H   H496      1.0  0.34113  0.96465  0.70378  1.0000
  H   H497      1.0  0.35309  0.05441  0.64571  1.0000
  H   H498      1.0  0.38350  0.93571  0.64882  1.0000
  H   H499      1.0  0.41356  0.75043  0.07535  1.0000
  H   H500      1.0  0.40078  0.72579  0.11134  1.0000
  C   C320      1.0  0.38770  0.61045  0.90253  1.0000
  S   S123      1.0  0.34394  0.65794  0.96293  1.0000
  Fe  Fe62      1.0  0.36835  0.68497  0.00144  1.0000
  S   S124      1.0  0.38938  0.67334  0.06241  1.0000
  S   S125      1.0  0.39112  0.69985  0.94433  1.0000
  Fe  Fe63      1.0  0.35951  0.73159  0.94071  1.0000
  H   H501      1.0  0.39228  0.62523  0.92633  1.0000
  S   S126      1.0  0.33903  0.71900  0.00128  1.0000
  Fe  Fe64      1.0  0.36404  0.67588  0.90539  1.0000
  C   C321      1.0  0.34130  0.67618  0.10143  1.0000
  C   C322      1.0  0.36825  0.67556  0.10725  1.0000
  H   H502      1.0  0.34403  0.73543  0.09155  1.0000
  C   C323      1.0  0.35251  0.74718  0.11797  1.0000
  C   C324      1.0  0.39539  0.74100  0.08617  1.0000
  H   H503      1.0  0.38778  0.73023  0.05782  1.0000
  N   N32       1.0  0.37598  0.76078  0.10304  1.0000
  H   H504      1.0  0.33711  0.76147  0.12994  1.0000
  S   S127      1.0  0.33443  0.70907  0.89634  1.0000
  C   C325      1.0  0.38716  0.77487  0.14005  1.0000
  H   H505      1.0  0.54597  0.93034  0.98110  1.0000
  S   S128      1.0  0.55566  0.84743  0.92975  1.0000
  S   S129      1.0  0.36596  0.77480  0.93012  1.0000
  H   H506      1.0  0.55852  0.89948  0.95978  1.0000
  H   H507      1.0  0.50923  0.78072  0.91790  1.0000
  H   H508      1.0  0.46545  0.80160  0.90478  1.0000
  C   C326      1.0  0.55023  0.91941  0.95040  1.0000
  H   H509      1.0  0.53143  0.91621  0.93394  1.0000
  H   H510      1.0  0.35423  0.79519  0.07961  1.0000
  H   H511      1.0  0.36057  0.76992  0.03957  1.0000
  H   H512      1.0  0.40493  0.78541  0.13028  1.0000
  C   C327      1.0  0.36891  0.77999  0.06809  1.0000
  H   H513      1.0  0.38619  0.79058  0.05603  1.0000
  H   H514      1.0  0.57054  0.97199  0.89093  1.0000
  C   C328      1.0  0.55741  0.96071  0.91262  1.0000
  H   H515      1.0  0.55441  0.97230  0.94307  1.0000
  N   N33       1.0  0.56835  0.93375  0.92187  1.0000
  C   C329      1.0  0.33621  0.94660  0.68538  1.0000
  H   H516      1.0  0.33673  0.95146  0.65020  1.0000
  H   H517      1.0  0.33333  0.67388  0.06930  1.0000
  S   S130      1.0  0.80484  0.15892  0.34291  1.0000
  N   N34       1.0  0.72708  0.17207  0.36315  1.0000
  H   H518      1.0  0.73377  0.21363  0.35411  1.0000
  C   C330      1.0  0.73750  0.19429  0.33748  1.0000
  H   H519      1.0  0.72855  0.19585  0.30473  1.0000
  C   C331      1.0  0.69868  0.17635  0.36894  1.0000
  H   H520      1.0  0.69393  0.19515  0.38657  1.0000
  H   H521      1.0  0.69016  0.15995  0.38813  1.0000
  H   H522      1.0  0.68861  0.17769  0.33708  1.0000
  H   H523      1.0  0.75892  0.19179  0.33270  1.0000
  H   H524      1.0  0.72340  0.14703  0.30730  1.0000
  C   C332      1.0  0.73248  0.14681  0.34001  1.0000
  H   H525      1.0  0.72505  0.12958  0.35856  1.0000
  H   H526      1.0  0.75372  0.14293  0.33500  1.0000
  Fe  Fe65      1.0  0.81524  0.11746  0.32090  1.0000
  C   C333      1.0  0.82856  0.17130  0.37692  1.0000
  S   S131      1.0  0.79821  0.09988  0.26129  1.0000
  S   S132      1.0  0.61158  0.32711  0.33173  1.0000
  S   S133      1.0  0.68037  0.31465  0.38170  1.0000
  C   C334      1.0  0.73723  0.38525  0.33733  1.0000
  C   C335      1.0  0.74787  0.41025  0.34116  1.0000
  C   C336      1.0  0.72406  0.37401  0.37271  1.0000
  H   H527      1.0  0.73951  0.37438  0.30724  1.0000
  H   H528      1.0  0.71637  0.35454  0.36980  1.0000
  N   N35       1.0  0.64317  0.40502  0.34669  1.0000
  C   C337      1.0  0.65623  0.38043  0.33030  1.0000
  H   H529      1.0  0.65566  0.36428  0.35503  1.0000
  H   H530      1.0  0.64653  0.37299  0.30078  1.0000
  H   H531      1.0  0.67701  0.38345  0.32201  1.0000
  S   S134      1.0  0.76505  0.42365  0.29720  1.0000
  C   C338      1.0  0.61566  0.39992  0.35689  1.0000
  H   H532      1.0  0.61399  0.38410  0.38214  1.0000
  H   H533      1.0  0.79860  0.41287  0.22355  1.0000
  C   C339      1.0  0.80663  0.41903  0.19139  1.0000
  H   H534      1.0  0.80952  0.40088  0.17133  1.0000
  Fe  Fe66      1.0  0.63688  0.31681  0.38906  1.0000
  H   H535      1.0  0.60524  0.39303  0.32770  1.0000
  H   H536      1.0  0.81775  0.37687  0.35171  1.0000
  H   H537      1.0  0.75447  0.42143  0.19416  1.0000
  H   H538      1.0  0.63474  0.42013  0.28256  1.0000
  H   H539      1.0  0.81432  0.33565  0.39610  1.0000
  H   H540      1.0  0.60504  0.41799  0.36926  1.0000
  C   C340      1.0  0.76353  0.42759  0.16272  1.0000
  C   C341      1.0  0.64448  0.42604  0.31302  1.0000
  C   C342      1.0  0.74493  0.42416  0.38014  1.0000
  C   C343      1.0  0.82718  0.34465  0.42033  1.0000
  H   H541      1.0  0.77895  0.53195  0.15107  1.0000
  C   C344      1.0  0.82606  0.59768  0.36072  1.0000
  C   C345      1.0  0.79882  0.52440  0.14761  1.0000
  N   N36       1.0  0.78918  0.43896  0.16982  1.0000
  H   H542      1.0  0.66502  0.43030  0.30457  1.0000
  H   H543      1.0  0.63481  0.44491  0.32429  1.0000
  C   C346      1.0  0.78592  0.46255  0.19776  1.0000
  Fe  Fe67      1.0  0.79287  0.45431  0.31850  1.0000
  S   S135      1.0  0.79220  0.49712  0.29758  1.0000
  Fe  Fe68      1.0  0.80556  0.50417  0.36576  1.0000
  H   H544      1.0  0.75222  0.44387  0.38284  1.0000
  S   S136      1.0  0.80333  0.46171  0.38783  1.0000
  C   C347      1.0  0.81569  0.57235  0.36437  1.0000
  H   H545      1.0  0.80703  0.52630  0.21632  1.0000
  C   C348      1.0  0.81462  0.52108  0.18446  1.0000
  H   H546      1.0  0.82393  0.55612  0.34537  1.0000
  H   H547      1.0  0.77563  0.45789  0.22864  1.0000
  H   H548      1.0  0.77437  0.47879  0.18139  1.0000
  H   H549      1.0  0.80504  0.47036  0.20668  1.0000
  H   H550      1.0  0.74988  0.44230  0.14689  1.0000
  C   C349      1.0  0.73963  0.17091  0.40623  1.0000
  H   H551      1.0  0.73591  0.18972  0.42443  1.0000
  H   H552      1.0  0.73229  0.15442  0.42660  1.0000
  H   H553      1.0  0.76109  0.16778  0.40299  1.0000
  S   S137      1.0  0.70642  0.24523  0.41901  1.0000
  H   H554      1.0  0.80085  0.19419  0.41570  1.0000
  C   C350      1.0  0.76144  0.24753  0.53407  1.0000
  C   C351      1.0  0.73454  0.25007  0.54073  1.0000
  H   H555      1.0  0.72675  0.25355  0.57307  1.0000
  C   C352      1.0  0.71762  0.24855  0.50549  1.0000
  C   C353      1.0  0.75439  0.24055  0.45703  1.0000
  C   C354      1.0  0.72753  0.24435  0.46350  1.0000
  C   C355      1.0  0.77137  0.24226  0.49233  1.0000
  S   S138      1.0  0.78204  0.25166  0.57843  1.0000
  H   H556      1.0  0.76214  0.23722  0.42460  1.0000
  Fe  Fe69      1.0  0.82460  0.25352  0.56183  1.0000
  H   H557      1.0  0.79207  0.23977  0.48711  1.0000
  C   C356      1.0  0.82110  0.18828  0.41099  1.0000
  H   H558      1.0  0.79561  0.20485  0.64264  1.0000
  H   H559      1.0  0.69684  0.25063  0.51082  1.0000
  H   H560      1.0  0.72950  0.42382  0.44558  1.0000
  H   H561      1.0  0.69529  0.36327  0.63968  1.0000
  C   C357      1.0  0.65636  0.41361  0.38644  1.0000
  H   H562      1.0  0.72979  0.36719  0.64078  1.0000
  H   H563      1.0  0.67708  0.41791  0.37975  1.0000
  C   C358      1.0  0.63845  0.37220  0.63773  1.0000
  C   C359      1.0  0.79639  0.38136  0.43184  1.0000
  H   H564      1.0  0.78274  0.37357  0.40756  1.0000
  H   H565      1.0  0.79073  0.37344  0.46435  1.0000
  H   H566      1.0  0.60837  0.31314  0.64048  1.0000
  H   H567      1.0  0.72154  0.32810  0.54100  1.0000
  C   C360      1.0  0.73183  0.41290  0.41552  1.0000
  C   C361      1.0  0.72134  0.38783  0.41184  1.0000
  H   H568      1.0  0.82274  0.33580  0.45279  1.0000
  H   H569      1.0  0.65627  0.39799  0.41229  1.0000
  C   C362      1.0  0.71755  0.34328  0.56653  1.0000
  H   H570      1.0  0.74656  0.30064  0.59366  1.0000
  H   H571      1.0  0.69828  0.35312  0.55933  1.0000
  S   S139      1.0  0.63496  0.27987  0.43017  1.0000
  C   C363      1.0  0.74328  0.31695  0.61758  1.0000
  C   C364      1.0  0.61826  0.33001  0.62727  1.0000
  H   H572      1.0  0.65417  0.39029  0.58002  1.0000
  N   N37       1.0  0.71801  0.33126  0.61060  1.0000
  H   H573      1.0  0.73244  0.35856  0.56260  1.0000
  Fe  Fe70      1.0  0.67860  0.28027  0.42821  1.0000
  S   S140      1.0  0.70435  0.37465  0.45616  1.0000
  S   S141      1.0  0.68182  0.30530  0.48761  1.0000
  S   S142      1.0  0.63684  0.34491  0.44485  1.0000
  Fe  Fe71      1.0  0.68016  0.33972  0.44155  1.0000
  Fe  Fe72      1.0  0.63847  0.30803  0.48587  1.0000
  S   S143      1.0  0.61669  0.30480  0.54891  1.0000
  C   C365      1.0  0.62432  0.33112  0.58282  1.0000
  C   C366      1.0  0.63736  0.35285  0.56598  1.0000
  H   H574      1.0  0.64252  0.35372  0.53205  1.0000
  C   C367      1.0  0.64403  0.37357  0.59324  1.0000
  N   N38       1.0  0.82373  0.37389  0.42087  1.0000
  H   H575      1.0  0.75977  0.33048  0.61413  1.0000
  H   H576      1.0  0.69851  0.29656  0.58995  1.0000
  H   H577      1.0  0.79315  0.40332  0.43251  1.0000
  C   C368      1.0  0.69680  0.31241  0.61495  1.0000
  H   H578      1.0  0.67742  0.32261  0.61082  1.0000
  C   C369      1.0  0.79562  0.56791  0.39433  1.0000
  H   H579      1.0  0.64681  0.43187  0.40027  1.0000
  S   S144      1.0  0.78621  0.53569  0.40704  1.0000
  H   H580      1.0  0.76869  0.58594  0.44033  1.0000
  C   C370      1.0  0.81726  0.58501  0.51946  1.0000
  C   C371      1.0  0.78471  0.58915  0.41806  1.0000
  H   H581      1.0  0.82842  0.53600  0.48958  1.0000
  H   H582      1.0  0.80268  0.57685  0.49731  1.0000
  H   H583      1.0  0.81039  0.58143  0.55338  1.0000
  H   H584      1.0  0.82611  0.42711  0.19744  1.0000
  H   H585      1.0  0.82766  0.40675  0.37681  1.0000
  C   C372      1.0  0.83028  0.38477  0.37750  1.0000
  H   H586      1.0  0.58517  0.33503  0.41496  1.0000
  C   C373      1.0  0.71439  0.35237  0.64344  1.0000
  S   S145      1.0  0.78428  0.14824  0.85015  1.0000
  S   S146      1.0  0.73326  0.20728  0.83557  1.0000
  C   C374      1.0  0.73634  0.23918  0.81373  1.0000
  C   C375      1.0  0.71754  0.24954  0.78504  1.0000
  C   C376      1.0  0.75727  0.25450  0.82516  1.0000
  H   H587      1.0  0.70129  0.23777  0.77613  1.0000
  H   H588      1.0  0.77111  0.24719  0.84899  1.0000
  S   S147      1.0  0.80919  0.20693  0.83788  1.0000
  N   N39       1.0  0.79162  0.22411  0.70467  1.0000
  Fe  Fe73      1.0  0.77152  0.19072  0.86070  1.0000
  C   C377      1.0  0.80766  0.23995  0.73351  1.0000
  C   C378      1.0  0.78271  0.20048  0.72850  1.0000
  H   H589      1.0  0.77081  0.20616  0.75764  1.0000
  H   H590      1.0  0.79945  0.18768  0.74006  1.0000
  H   H591      1.0  0.75630  0.24665  0.71784  1.0000
  C   C379      1.0  0.76893  0.24052  0.68998  1.0000
  H   H592      1.0  0.77059  0.18807  0.70761  1.0000
  H   H593      1.0  0.67890  0.23674  0.84892  1.0000
  C   C380      1.0  0.66792  0.25511  0.85933  1.0000
  H   H594      1.0  0.64680  0.25119  0.85797  1.0000
  H   H595      1.0  0.75688  0.22957  0.66677  1.0000
  H   H596      1.0  0.77508  0.25889  0.67305  1.0000
  H   H597      1.0  0.79644  0.24698  0.76246  1.0000
  C   C381      1.0  0.80735  0.21561  0.66654  1.0000
  H   H598      1.0  0.81513  0.25770  0.71636  1.0000
  H   H599      1.0  0.82473  0.22805  0.74549  1.0000
  H   H600      1.0  0.82397  0.20224  0.67623  1.0000
  Fe  Fe74      1.0  0.82314  0.16452  0.83349  1.0000
  H   H601      1.0  0.82267  0.10133  0.89354  1.0000
  H   H602      1.0  0.81545  0.23298  0.64933  1.0000
  H   H603      1.0  0.67159  0.27089  0.83467  1.0000
  C   C382      1.0  0.71984  0.27507  0.76743  1.0000
  C   C383      1.0  0.76009  0.27964  0.80631  1.0000
  H   H604      1.0  0.70526  0.28300  0.74523  1.0000
  Fe  Fe75      1.0  0.66318  0.37726  0.73351  1.0000
  S   S148      1.0  0.67030  0.33321  0.73585  1.0000
  Fe  Fe76      1.0  0.68127  0.38494  0.82512  1.0000
  S   S149      1.0  0.68987  0.34149  0.83627  1.0000
  Fe  Fe77      1.0  0.70706  0.34285  0.76913  1.0000
  S   S150      1.0  0.74465  0.32129  0.75432  1.0000
  Fe  Fe78      1.0  0.65226  0.33618  0.80218  1.0000
  S   S151      1.0  0.62416  0.30562  0.82297  1.0000
  S   S152      1.0  0.70188  0.38674  0.76076  1.0000
  S   S153      1.0  0.64172  0.37967  0.79701  1.0000
  C   C384      1.0  0.74146  0.28982  0.77727  1.0000
  H   H605      1.0  0.77644  0.29136  0.81485  1.0000
  H   H606      1.0  0.62130  0.34926  0.68926  1.0000
  H   H607      1.0  0.73075  0.37798  0.85319  1.0000
  S   S154      1.0  0.68884  0.41518  0.87582  1.0000
  S   S155      1.0  0.64946  0.39674  0.67213  1.0000
  C   C385      1.0  0.73753  0.39129  0.87757  1.0000
  C   C386      1.0  0.60357  0.31784  0.86433  1.0000
  H   H608      1.0  0.58782  0.34823  0.78091  1.0000
  H   H609      1.0  0.77639  0.37387  0.87747  1.0000
  H   H610      1.0  0.71513  0.34405  0.67706  1.0000
  H   H611      1.0  0.70759  0.28509  0.87762  1.0000
  H   H612      1.0  0.62714  0.35100  0.87900  1.0000
  C   C387      1.0  0.60935  0.34104  0.88623  1.0000
  C   C388      1.0  0.62562  0.35041  0.65483  1.0000
  H   H613      1.0  0.58770  0.37329  0.73898  1.0000
  H   H614      1.0  0.74437  0.30795  0.65080  1.0000
  H   H615      1.0  0.76517  0.40981  0.14151  1.0000
  H   H616      1.0  0.81986  0.34261  0.88866  1.0000
  H   H617      1.0  0.69678  0.30270  0.64762  1.0000
  H   H618      1.0  0.58387  0.38330  0.83692  1.0000
  H   H619      1.0  0.58372  0.40834  0.79504  1.0000
  H   H620      1.0  0.76448  0.43675  0.77569  1.0000
  H   H621      1.0  0.74843  0.43733  0.82770  1.0000
  H   H622      1.0  0.80649  0.44362  0.81154  1.0000
  H   H623      1.0  0.79071  0.44457  0.86376  1.0000
  H   H624      1.0  0.75314  0.47526  0.87710  1.0000
  C   C389      1.0  0.82154  0.57959  0.85129  1.0000
  H   H625      1.0  0.77224  0.50281  0.86032  1.0000
  H   H626      1.0  0.80573  0.57615  0.82933  1.0000
  H   H627      1.0  0.73719  0.45939  0.78543  1.0000
  C   C390      1.0  0.75499  0.45008  0.80030  1.0000
  H   H628      1.0  0.81011  0.47154  0.84645  1.0000
  H   H629      1.0  0.74164  0.49737  0.83486  1.0000
  H   H630      1.0  0.76406  0.49745  0.76292  1.0000
  H   H631      1.0  0.79453  0.50238  0.78913  1.0000
  C   C391      1.0  0.75937  0.48718  0.84841  1.0000
  H   H632      1.0  0.79138  0.47488  0.75306  1.0000
  N   N40       1.0  0.77285  0.47026  0.81554  1.0000
  C   C392      1.0  0.79604  0.45690  0.83513  1.0000
  C   C393      1.0  0.78102  0.48695  0.77844  1.0000
  S   S156      1.0  0.82648  0.52541  0.85952  1.0000
  H   H633      1.0  0.82679  0.11416  0.09695  1.0000
  H   H634      1.0  0.71605  0.25188  0.89522  1.0000
  N   N41       1.0  0.67565  0.26327  0.90329  1.0000
  H   H635      1.0  0.68327  0.22311  0.92500  1.0000
  Fe  Fe79      1.0  0.82077  0.20351  0.90767  1.0000
  S   S157      1.0  0.79082  0.11682  0.96774  1.0000
  Fe  Fe80      1.0  0.79808  0.14941  0.91908  1.0000
  S   S158      1.0  0.78184  0.19069  0.93124  1.0000
  C   C394      1.0  0.67152  0.24126  0.93437  1.0000
  H   H636      1.0  0.65074  0.23589  0.93548  1.0000
  H   H637      1.0  0.67725  0.24664  0.96790  1.0000
  H   H638      1.0  0.81095  0.34674  0.94467  1.0000
  C   C395      1.0  0.76340  0.38899  0.89131  1.0000
  H   H639      1.0  0.81280  0.31401  0.92155  1.0000
  C   C396      1.0  0.72075  0.41118  0.89461  1.0000
  H   H640      1.0  0.66243  0.30383  0.89387  1.0000
  C   C397      1.0  0.70344  0.26971  0.90274  1.0000
  C   C398      1.0  0.59188  0.35167  0.91733  1.0000
  H   H641      1.0  0.70965  0.27730  0.93473  1.0000
  H   H642      1.0  0.63857  0.28284  0.91672  1.0000
  C   C399      1.0  0.65971  0.28688  0.91665  1.0000
  H   H643      1.0  0.66479  0.29358  0.94978  1.0000
  C   C400      1.0  0.75582  0.42650  0.93903  1.0000
  H   H644      1.0  0.59607  0.36997  0.93359  1.0000
  S   S159      1.0  0.80559  0.40542  0.93523  1.0000
  C   C401      1.0  0.77262  0.40678  0.92168  1.0000
  C   C402      1.0  0.72988  0.42868  0.92554  1.0000
  H   H645      1.0  0.80335  0.42956  0.10542  1.0000
  C   C403      1.0  0.82213  0.33359  0.92166  1.0000
  H   H646      1.0  0.76544  0.58194  0.02757  1.0000
  N   N42       1.0  0.80317  0.59581  0.01045  1.0000
  H   H647      1.0  0.80140  0.57876  0.94657  1.0000
  S   S160      1.0  0.79563  0.48399  0.94573  1.0000
  C   C404      1.0  0.80880  0.57391  0.97975  1.0000
  Fe  Fe81      1.0  0.81163  0.49499  0.01002  1.0000
  C   C405      1.0  0.81440  0.58880  0.05334  1.0000
  H   H648      1.0  0.79985  0.55522  0.99078  1.0000
  H   H649      1.0  0.78812  0.46205  0.11053  1.0000
  S   S161      1.0  0.78825  0.51650  0.06143  1.0000
  S   S162      1.0  0.83062  0.45491  0.02214  1.0000
  H   H650      1.0  0.82000  0.45553  0.13198  1.0000
  H   H651      1.0  0.80588  0.57052  0.06705  1.0000
  C   C406      1.0  0.80850  0.51677  0.10672  1.0000
  C   C407      1.0  0.80066  0.44680  0.12758  1.0000
  H   H652      1.0  0.76271  0.43993  0.96318  1.0000
  H   H653      1.0  0.71690  0.44401  0.93886  1.0000
  Fe  Fe82      1.0  0.81855  0.44565  0.95447  1.0000
  H   H654      1.0  0.83008  0.56972  0.97660  1.0000
  H   H655      1.0  0.77622  0.74492  0.35022  1.0000
  C   C408      1.0  0.81645  0.61841  0.38717  1.0000
  C   C409      1.0  0.76992  0.75566  0.37895  1.0000
  H   H656      1.0  0.81822  0.73663  0.31229  1.0000
  H   H657      1.0  0.82739  0.72359  0.36449  1.0000
  H   H658      1.0  0.75560  0.86449  0.45952  1.0000
  H   H659      1.0  0.59805  0.81621  0.26675  1.0000
  C   C410      1.0  0.69425  0.86403  0.14953  1.0000
  C   C411      1.0  0.83170  0.77630  0.36516  1.0000
  H   H660      1.0  0.63101  0.87771  0.23054  1.0000
  H   H661      1.0  0.63751  0.80750  0.19381  1.0000
  C   C412      1.0  0.63455  0.85981  0.21021  1.0000
  Fe  Fe83      1.0  0.68982  0.87023  0.34024  1.0000
  S   S163      1.0  0.69833  0.84074  0.28717  1.0000
  Fe  Fe84      1.0  0.74207  0.89611  0.32977  1.0000
  S   S164      1.0  0.75505  0.86865  0.27648  1.0000
  Fe  Fe85      1.0  0.71469  0.87541  0.25147  1.0000
  Fe  Fe86      1.0  0.73788  0.83660  0.31743  1.0000
  S   S165      1.0  0.76009  0.79740  0.32366  1.0000
  S   S166      1.0  0.70264  0.90548  0.30188  1.0000
  S   S167      1.0  0.72822  0.86357  0.37313  1.0000
  H   H662      1.0  0.70381  0.83055  0.19122  1.0000
  C   C413      1.0  0.62498  0.88058  0.35702  1.0000
  H   H663      1.0  0.64448  0.90017  0.30427  1.0000
  C   C414      1.0  0.62593  0.89536  0.31839  1.0000
  N   N43       1.0  0.61365  0.84074  0.21589  1.0000
  S   S168      1.0  0.70885  0.88750  0.18180  1.0000
  C   C415      1.0  0.75951  0.78162  0.37496  1.0000
  H   H664      1.0  0.63224  0.82192  0.27128  1.0000
  C   C416      1.0  0.61861  0.81800  0.18649  1.0000
  H   H665      1.0  0.65375  0.85086  0.21983  1.0000
  H   H666      1.0  0.63626  0.86660  0.17576  1.0000
  C   C417      1.0  0.61314  0.83116  0.26151  1.0000
  H   H667      1.0  0.61943  0.82449  0.15174  1.0000
  C   C418      1.0  0.69403  0.83728  0.16193  1.0000
  S   S169      1.0  0.65366  0.86821  0.38147  1.0000
  H   H668      1.0  0.60862  0.84765  0.28448  1.0000
  C   C419      1.0  0.60084  0.87476  0.37556  1.0000
  H   H669      1.0  0.81453  0.78195  0.34488  1.0000
  C   C420      1.0  0.58833  0.85398  0.20529  1.0000
  H   H670      1.0  0.60314  0.80325  0.18948  1.0000
  C   C421      1.0  0.60278  0.90373  0.29782  1.0000
  S   S170      1.0  0.77134  0.92448  0.35409  1.0000
  H   H671      1.0  0.58800  0.86143  0.17109  1.0000
  H   H672      1.0  0.74513  0.92878  0.19762  1.0000
  H   H673      1.0  0.60353  0.91503  0.26779  1.0000
  H   H674      1.0  0.79010  0.87018  0.37809  1.0000
  H   H675      1.0  0.68072  0.79847  0.14590  1.0000
  H   H676      1.0  0.83069  0.94768  0.32796  1.0000
  C   C422      1.0  0.73726  0.99152  0.15706  1.0000
  C   C423      1.0  0.70481  0.96311  0.18709  1.0000
  H   H677      1.0  0.69888  0.94239  0.19314  1.0000
  H   H678      1.0  0.73993  0.00192  0.18851  1.0000
  H   H679      1.0  0.70558  0.97294  0.21932  1.0000
  C   C424      1.0  0.81343  0.96645  0.25152  1.0000
  H   H680      1.0  0.79928  0.95386  0.26880  1.0000
  H   H681      1.0  0.75270  0.95960  0.22249  1.0000
  H   H682      1.0  0.76944  0.94900  0.17378  1.0000
  S   S171      1.0  0.80315  0.08458  0.36526  1.0000
  H   H683      1.0  0.79768  0.97151  0.37610  1.0000
  Fe  Fe87      1.0  0.79005  0.06518  0.30449  1.0000
  S   S172      1.0  0.75293  0.04405  0.29665  1.0000
  C   C425      1.0  0.76491  0.95793  0.34044  1.0000
  C   C426      1.0  0.74404  0.96549  0.31370  1.0000
  C   C427      1.0  0.74002  0.99213  0.30123  1.0000
  C   C428      1.0  0.75715  0.01119  0.31485  1.0000
  C   C429      1.0  0.77794  0.00372  0.34186  1.0000
  C   C430      1.0  0.78170  0.97714  0.35489  1.0000
  H   H684      1.0  0.73105  0.95088  0.30239  1.0000
  H   H685      1.0  0.72377  0.99801  0.28081  1.0000
  H   H686      1.0  0.79094  0.01847  0.35322  1.0000
  H   H687      1.0  0.80760  0.04810  0.20680  1.0000
  C   C431      1.0  0.75025  0.94968  0.19071  1.0000
  C   C432      1.0  0.80783  0.01325  0.16705  1.0000
  H   H688      1.0  0.79003  0.00640  0.18126  1.0000
  H   H689      1.0  0.80978  0.96491  0.21605  1.0000
  H   H690      1.0  0.80908  0.98742  0.26118  1.0000
  N   N44       1.0  0.73016  0.96366  0.16410  1.0000
  C   C433      1.0  0.81806  0.03674  0.18216  1.0000
  S   S173      1.0  0.82812  0.04358  0.29217  1.0000
  H   H691      1.0  0.68911  0.97332  0.16792  1.0000
  S   S174      1.0  0.83237  0.64858  0.38835  1.0000
  H   H692      1.0  0.58399  0.87131  0.22681  1.0000
  H   H693      1.0  0.81706  0.60691  0.51436  1.0000
  C   C434      1.0  0.76401  0.75727  0.45734  1.0000
  S   S175      1.0  0.82586  0.63111  0.60346  1.0000
  C   C435      1.0  0.79526  0.61427  0.41480  1.0000
  Fe  Fe88      1.0  0.82809  0.66858  0.45327  1.0000
  H   H694      1.0  0.77996  0.72335  0.42273  1.0000
  Fe  Fe89      1.0  0.82468  0.66205  0.55063  1.0000
  C   C436      1.0  0.77221  0.74352  0.42002  1.0000
  H   H695      1.0  0.78699  0.63039  0.43380  1.0000
  Fe  Fe90      1.0  0.79963  0.71052  0.50738  1.0000
  S   S176      1.0  0.76875  0.74312  0.50919  1.0000
  S   S177      1.0  0.79404  0.66687  0.49946  1.0000
  H   H696      1.0  0.78371  0.67034  0.61011  1.0000
  S   S178      1.0  0.82689  0.70558  0.56361  1.0000
  C   C437      1.0  0.78664  0.66110  0.64170  1.0000
  S   S179      1.0  0.83115  0.71255  0.45704  1.0000
  H   H697      1.0  0.80870  0.90671  0.41988  1.0000
  H   H698      1.0  0.82494  0.84347  0.47635  1.0000
  H   H699      1.0  0.82429  0.76814  0.39651  1.0000
  C   C438      1.0  0.81455  0.89177  0.44521  1.0000
  H   H700      1.0  0.81539  0.90231  0.47679  1.0000
  N   N45       1.0  0.79628  0.86984  0.44724  1.0000
  H   H701      1.0  0.78279  0.83956  0.40485  1.0000
  H   H702      1.0  0.76285  0.89500  0.43217  1.0000
  C   C439      1.0  0.75256  0.78280  0.45325  1.0000
  H   H703      1.0  0.80346  0.85989  0.51435  1.0000
  C   C440      1.0  0.80451  0.85070  0.48158  1.0000
  C   C441      1.0  0.76982  0.88058  0.45749  1.0000
  H   H704      1.0  0.74144  0.81454  0.40935  1.0000
  H   H705      1.0  0.60009  0.86336  0.40552  1.0000
  C   C442      1.0  0.79626  0.85629  0.40473  1.0000
  C   C443      1.0  0.75025  0.79492  0.41210  1.0000
  H   H706      1.0  0.74569  0.79326  0.48197  1.0000
  H   H707      1.0  0.81594  0.84798  0.39603  1.0000
  H   H708      1.0  0.79208  0.83305  0.48221  1.0000
  H   H709      1.0  0.76920  0.89121  0.48906  1.0000
  H   H710      1.0  0.83196  0.91667  0.26522  1.0000
  Fe  Fe91      1.0  0.78674  0.68534  0.81116  1.0000
  S   S180      1.0  0.75816  0.67053  0.76367  1.0000
  S   S181      1.0  0.78640  0.67721  0.88288  1.0000
  S   S182      1.0  0.78857  0.72929  0.81779  1.0000
  H   H711      1.0  0.79775  0.62895  0.75561  1.0000
  C   C444      1.0  0.79449  0.63778  0.72379  1.0000
  C   C445      1.0  0.77557  0.65820  0.71852  1.0000
  N   N46       1.0  0.70429  0.73122  0.77867  1.0000
  H   H712      1.0  0.74288  0.72541  0.75215  1.0000
  C   C446      1.0  0.72766  0.74144  0.75689  1.0000
  C   C447      1.0  0.71133  0.72070  0.82224  1.0000
  H   H713      1.0  0.72660  0.70449  0.82007  1.0000
  C   C448      1.0  0.80917  0.62871  0.68786  1.0000
  H   H714      1.0  0.70818  0.69293  0.74851  1.0000
  C   C449      1.0  0.69375  0.70979  0.75230  1.0000
  H   H715      1.0  0.68859  0.71692  0.71900  1.0000
  H   H716      1.0  0.81617  0.62227  0.84864  1.0000
  H   H717      1.0  0.67602  0.70172  0.76766  1.0000
  C   C450      1.0  0.77144  0.66965  0.67740  1.0000
  Fe  Fe92      1.0  0.83171  0.72212  0.81524  1.0000
  H   H718      1.0  0.75691  0.68553  0.67328  1.0000
  H   H719      1.0  0.71907  0.73639  0.84319  1.0000
  H   H720      1.0  0.69427  0.71257  0.83953  1.0000
  C   C451      1.0  0.68441  0.75300  0.78320  1.0000
  H   H721      1.0  0.67806  0.76095  0.75096  1.0000
  H   H722      1.0  0.66687  0.74640  0.80113  1.0000
  H   H723      1.0  0.72302  0.74995  0.72422  1.0000
  H   H724      1.0  0.73644  0.75724  0.77645  1.0000
  Fe  Fe93      1.0  0.79220  0.72092  0.88916  1.0000
  H   H725      1.0  0.82382  0.61295  0.69205  1.0000
  C   C452      1.0  0.82741  0.60569  0.86225  1.0000
  C   C453      1.0  0.80552  0.64065  0.64697  1.0000
  Fe  Fe94      1.0  0.82975  0.67424  0.87496  1.0000
  S   S183      1.0  0.82966  0.67860  0.80236  1.0000
  H   H726      1.0  0.83139  0.69703  0.65860  1.0000
  H   H727      1.0  0.69203  0.76988  0.80153  1.0000
  H   H728      1.0  0.76721  0.77498  0.86058  1.0000
  C   C454      1.0  0.74866  0.77689  0.87718  1.0000
  S   S184      1.0  0.67894  0.81401  0.85652  1.0000
  H   H729      1.0  0.73118  0.80201  0.82746  1.0000
  C   C455      1.0  0.72838  0.79240  0.85869  1.0000
  C   C456      1.0  0.70459  0.79570  0.88075  1.0000
  C   C457      1.0  0.75843  0.96626  0.88267  1.0000
  H   H730      1.0  0.73824  0.97469  0.88640  1.0000
  H   H731      1.0  0.75748  0.94718  0.86482  1.0000
  H   H732      1.0  0.74540  0.00067  0.81833  1.0000
  H   H733      1.0  0.76428  0.97309  0.79633  1.0000
  H   H734      1.0  0.77793  0.00535  0.79871  1.0000
  N   N47       1.0  0.77557  0.98498  0.86019  1.0000
  C   C458      1.0  0.76531  0.99130  0.81642  1.0000
  H   H735      1.0  0.81569  0.98635  0.83989  1.0000
  C   C459      1.0  0.80199  0.97270  0.85606  1.0000
  H   H736      1.0  0.80208  0.95394  0.83725  1.0000
  H   H737      1.0  0.81021  0.96781  0.88855  1.0000
  H   H738      1.0  0.78988  0.02404  0.87008  1.0000
  C   C460      1.0  0.77667  0.00966  0.88568  1.0000
  H   H739      1.0  0.75717  0.01971  0.88935  1.0000
  H   H740      1.0  0.80710  0.62598  0.96100  1.0000
  H   H741      1.0  0.76972  0.61657  0.03787  1.0000
  C   C461      1.0  0.74504  0.76437  0.91745  1.0000
  S   S185      1.0  0.76990  0.74425  0.94025  1.0000
  H   H742      1.0  0.71854  0.75845  0.97104  1.0000
  H   H743      1.0  0.76569  0.60535  0.98305  1.0000
  C   C462      1.0  0.81481  0.62027  0.99367  1.0000
  H   H744      1.0  0.81088  0.63739  0.01569  1.0000
  H   H745      1.0  0.81077  0.60497  0.07731  1.0000
  C   C463      1.0  0.68102  0.81917  0.13630  1.0000
  C   C464      1.0  0.72143  0.76815  0.93992  1.0000
  S   S186      1.0  0.82557  0.91199  0.03410  1.0000
  H   H746      1.0  0.60235  0.91549  0.95140  1.0000
  S   S187      1.0  0.62705  0.86665  0.89865  1.0000
  H   H747      1.0  0.68614  0.88953  0.91036  1.0000
  H   H748      1.0  0.73307  0.88164  0.89644  1.0000
  H   H749      1.0  0.68282  0.78625  0.93874  1.0000
  Fe  Fe95      1.0  0.65236  0.82998  0.90884  1.0000
  C   C465      1.0  0.70122  0.78387  0.92164  1.0000
  C   C466      1.0  0.72665  0.89566  0.92118  1.0000
  Fe  Fe96      1.0  0.80636  0.92528  0.97224  1.0000
  C   C467      1.0  0.70007  0.90004  0.92918  1.0000
  Fe  Fe97      1.0  0.64330  0.88006  0.96167  1.0000
  S   S188      1.0  0.67117  0.84530  0.96806  1.0000
  S   S189      1.0  0.62272  0.80718  0.94610  1.0000
  H   H750      1.0  0.72750  0.83508  0.95465  1.0000
  Fe  Fe98      1.0  0.63941  0.82610  0.00499  1.0000
  S   S190      1.0  0.65108  0.80567  0.06728  1.0000
  S   S191      1.0  0.61264  0.86216  0.00340  1.0000
  C   C468      1.0  0.68212  0.87254  0.11113  1.0000
  S   S192      1.0  0.77792  0.90147  0.93601  1.0000
  H   H751      1.0  0.75936  0.84813  0.95673  1.0000
  H   H752      1.0  0.73611  0.79172  0.02405  1.0000
  C   C469      1.0  0.72831  0.81175  0.03362  1.0000
  C   C470      1.0  0.74486  0.90893  0.94543  1.0000
  H   H753      1.0  0.65919  0.86151  0.05682  1.0000
  C   C471      1.0  0.74698  0.83223  0.96976  1.0000
  H   H754      1.0  0.77114  0.82883  0.07221  1.0000
  H   H755      1.0  0.78031  0.80878  0.02598  1.0000
  C   C472      1.0  0.66828  0.82787  0.09844  1.0000
  N   N48       1.0  0.74531  0.83286  0.01781  1.0000
  H   H756      1.0  0.73250  0.86000  0.06799  1.0000
  Fe  Fe99      1.0  0.59869  0.84521  0.94091  1.0000
  C   C473      1.0  0.73454  0.85904  0.03193  1.0000
  H   H757      1.0  0.74725  0.87530  0.02134  1.0000
  H   H758      1.0  0.72625  0.81193  0.06972  1.0000
  C   C474      1.0  0.77162  0.82841  0.03599  1.0000
  H   H759      1.0  0.70837  0.81415  0.02011  1.0000
  C   C475      1.0  0.66905  0.85452  0.08577  1.0000
  H   H760      1.0  0.71497  0.86346  0.01798  1.0000
  H   H761      1.0  0.68228  0.89322  0.10138  1.0000
  H   H762      1.0  0.75550  0.81293  0.95809  1.0000
  H   H763      1.0  0.78497  0.84395  0.02452  1.0000
  C   C476      1.0  0.69152  0.91772  0.96151  1.0000
  S   S193      1.0  0.65829  0.92042  0.97437  1.0000
  C   C477      1.0  0.73644  0.92716  0.97720  1.0000
  H   H764      1.0  0.72314  0.92930  0.12555  1.0000
  C   C478      1.0  0.70968  0.93166  0.98509  1.0000
  H   H765      1.0  0.81762  0.09858  0.04751  1.0000
  H   H766      1.0  0.76567  0.96118  0.91581  1.0000
  H   H767      1.0  0.79108  0.06549  0.00888  1.0000
  H   H768      1.0  0.60807  0.94593  0.92332  1.0000
  C   C479      1.0  0.82055  0.08421  0.91457  1.0000
  H   H769      1.0  0.59170  0.94632  0.97526  1.0000
  C   C480      1.0  0.59365  0.93554  0.94388  1.0000
  H   H770      1.0  0.75048  0.93730  0.99628  1.0000
  C   C481      1.0  0.72838  0.95039  0.12154  1.0000
  H   H771      1.0  0.58607  0.92915  0.85843  1.0000
  C   C482      1.0  0.83098  0.03780  0.93129  1.0000
  S   S194      1.0  0.80035  0.96757  0.99240  1.0000
  Fe  Fe100     1.0  0.82332  0.95525  0.05145  1.0000
  C   C483      1.0  0.80536  0.08625  0.95243  1.0000
  H   H772      1.0  0.81431  0.02298  0.99086  1.0000
  H   H773      1.0  0.71338  0.96033  0.10055  1.0000
  S   S195      1.0  0.80790  0.96881  0.11683  1.0000
  H   H774      1.0  0.78430  0.00557  0.91892  1.0000
  C   C484      1.0  0.82063  0.99880  0.13404  1.0000
  H   H775      1.0  0.74731  0.95046  0.10355  1.0000
  C   C485      1.0  0.81588  0.03987  0.96928  1.0000
  H   H776      1.0  0.70308  0.94523  0.01031  1.0000
  C   C486      1.0  0.80282  0.06398  0.97954  1.0000
  H   H777      1.0  0.75572  0.99265  0.13804  1.0000
  H   H778      1.0  0.58362  0.84217  0.84777  1.0000
  C   C487      1.0  0.77472  0.60014  0.01495  1.0000
  H   H779      1.0  0.72204  0.00294  0.13852  1.0000
  H   H780      1.0  0.86075  0.15139  0.34407  1.0000
  C   C488      1.0  0.85479  0.16384  0.37101  1.0000
  H   H781      1.0  0.95191  0.21127  0.36107  1.0000
  H   H782      1.0  0.89798  0.23220  0.39281  1.0000
  H   H783      1.0  0.91208  0.23737  0.33983  1.0000
  C   C489      1.0  0.91084  0.24525  0.37353  1.0000
  H   H784      1.0  0.90102  0.26530  0.37202  1.0000
  H   H785      1.0  0.95529  0.25763  0.33295  1.0000
  S   S196      1.0  0.85564  0.10059  0.30876  1.0000
  C   C490      1.0  0.95310  0.26426  0.36732  1.0000
  H   H786      1.0  0.93963  0.38047  0.14712  1.0000
  H   H787      1.0  0.94124  0.32077  0.16084  1.0000
  S   S197      1.0  0.99469  0.27149  0.22063  1.0000
  Fe  Fe101     1.0  0.99540  0.32711  0.35485  1.0000
  S   S198      1.0  0.00616  0.36846  0.33631  1.0000
  Fe  Fe102     1.0  0.00089  0.30661  0.26301  1.0000
  S   S199      1.0  0.01242  0.34594  0.23637  1.0000
  Fe  Fe103     1.0  0.03712  0.34792  0.29573  1.0000
  Fe  Fe104     1.0  0.98051  0.36278  0.27866  1.0000
  S   S200      1.0  0.95305  0.39376  0.24969  1.0000
  S   S201      1.0  0.02851  0.30679  0.31864  1.0000
  S   S202      1.0  0.96676  0.32320  0.30090  1.0000
  H   H788      1.0  0.94658  0.37662  0.33889  1.0000
  C   C491      1.0  0.93308  0.39310  0.33278  1.0000
  C   C492      1.0  0.93246  0.40541  0.29178  1.0000
  H   H789      1.0  0.03929  0.30138  0.19565  1.0000
  C   C493      1.0  0.91603  0.40199  0.36597  1.0000
  S   S203      1.0  0.07708  0.36396  0.28908  1.0000
  C   C494      1.0  0.01091  0.27528  0.17064  1.0000
  C   C495      1.0  0.03167  0.29230  0.16695  1.0000
  H   H790      1.0  0.97527  0.31742  0.17182  1.0000
  C   C496      1.0  0.95916  0.33210  0.16491  1.0000
  H   H791      1.0  0.95648  0.34469  0.19434  1.0000
  H   H792      1.0  0.07035  0.32995  0.36421  1.0000
  H   H793      1.0  0.83434  0.13271  0.52221  1.0000
  H   H794      1.0  0.85100  0.38011  0.36863  1.0000
  H   H795      1.0  0.98747  0.37581  0.16092  1.0000
  C   C497      1.0  0.89860  0.42345  0.35829  1.0000
  C   C498      1.0  0.91528  0.42708  0.28441  1.0000
  H   H796      1.0  0.91454  0.43168  0.17059  1.0000
  H   H797      1.0  0.94251  0.33928  0.38701  1.0000
  H   H798      1.0  0.94461  0.28489  0.36697  1.0000
  C   C499      1.0  0.84202  0.54354  0.51434  1.0000
  H   H799      1.0  0.87299  0.57255  0.46150  1.0000
  C   C500      1.0  0.83995  0.51021  0.18001  1.0000
  H   H800      1.0  0.91472  0.43680  0.25308  1.0000
  C   C501      1.0  0.89878  0.43640  0.31785  1.0000
  H   H801      1.0  0.88638  0.45383  0.31237  1.0000
  H   H802      1.0  0.95229  0.44964  0.20897  1.0000
  H   H803      1.0  0.89561  0.46156  0.18159  1.0000
  C   C502      1.0  0.90971  0.45207  0.15815  1.0000
  S   S204      1.0  0.85872  0.50140  0.22520  1.0000
  C   C503      1.0  0.94612  0.46961  0.19604  1.0000
  H   H804      1.0  0.93281  0.47910  0.22072  1.0000
  H   H805      1.0  0.91244  0.50525  0.16046  1.0000
  H   H806      1.0  0.96379  0.48161  0.19383  1.0000
  N   N49       1.0  0.93330  0.46772  0.15335  1.0000
  Fe  Fe105     1.0  0.84461  0.45795  0.36469  1.0000
  S   S205      1.0  0.84822  0.50113  0.34998  1.0000
  S   S206      1.0  0.83397  0.44674  0.29716  1.0000
  Fe  Fe106     1.0  0.83486  0.49032  0.28353  1.0000
  H   H807      1.0  0.89381  0.16734  0.39454  1.0000
  C   C504      1.0  0.87352  0.17310  0.39934  1.0000
  H   H808      1.0  0.93733  0.20544  0.41357  1.0000
  N   N50       1.0  0.93684  0.24635  0.39331  1.0000
  C   C505      1.0  0.94929  0.21945  0.39442  1.0000
  H   H809      1.0  0.96880  0.21962  0.40976  1.0000
  H   H810      1.0  0.92327  0.24274  0.45943  1.0000
  H   H811      1.0  0.86648  0.11014  0.41996  1.0000
  N   N51       1.0  0.86395  0.10862  0.48990  1.0000
  H   H812      1.0  0.89445  0.12464  0.52787  1.0000
  H   H813      1.0  0.89185  0.12667  0.44756  1.0000
  H   H814      1.0  0.85898  0.15094  0.49522  1.0000
  Fe  Fe107     1.0  0.87610  0.25110  0.60884  1.0000
  C   C506      1.0  0.86599  0.18955  0.43398  1.0000
  Fe  Fe108     1.0  0.87264  0.22990  0.51718  1.0000
  S   S207      1.0  0.88933  0.19926  0.47105  1.0000
  S   S208      1.0  0.85216  0.21969  0.57937  1.0000
  C   C507      1.0  0.83977  0.19709  0.43987  1.0000
  H   H815      1.0  0.83371  0.20920  0.46718  1.0000
  C   C508      1.0  0.84716  0.13299  0.49289  1.0000
  C   C509      1.0  0.87930  0.10919  0.44901  1.0000
  S   S209      1.0  0.89922  0.25834  0.54789  1.0000
  S   S210      1.0  0.84292  0.26107  0.49665  1.0000
  H   H816      1.0  0.95341  0.25929  0.45321  1.0000
  H   H817      1.0  0.87091  0.10676  0.55879  1.0000
  C   C510      1.0  0.88180  0.10718  0.52734  1.0000
  H   H818      1.0  0.97301  0.26531  0.38103  1.0000
  C   C511      1.0  0.93411  0.25650  0.43814  1.0000
  H   H819      1.0  0.83454  0.13558  0.46376  1.0000
  H   H820      1.0  0.83739  0.37635  0.48673  1.0000
  H   H821      1.0  0.91628  0.39218  0.39742  1.0000
  H   H822      1.0  0.07528  0.37666  0.57711  1.0000
  C   C512      1.0  0.84110  0.38478  0.45377  1.0000
  H   H823      1.0  0.92327  0.27599  0.43876  1.0000
  H   H824      1.0  0.83874  0.40678  0.45573  1.0000
  S   S211      1.0  0.98889  0.31384  0.42396  1.0000
  C   C513      1.0  0.93820  0.33300  0.41986  1.0000
  H   H825      1.0  0.92252  0.30987  0.53760  1.0000
  C   C514      1.0  0.95783  0.32120  0.44552  1.0000
  C   C515      1.0  0.91277  0.33614  0.43651  1.0000
  C   C516      1.0  0.95219  0.31332  0.48823  1.0000
  C   C517      1.0  0.90695  0.32717  0.47863  1.0000
  C   C518      1.0  0.92678  0.31620  0.50470  1.0000
  S   S212      1.0  0.84690  0.28438  0.59586  1.0000
  H   H826      1.0  0.96738  0.30437  0.50828  1.0000
  H   H827      1.0  0.89756  0.34479  0.41627  1.0000
  Fe  Fe109     1.0  0.86783  0.28894  0.53216  1.0000
  S   S213      1.0  0.87464  0.32740  0.49721  1.0000
  H   H828      1.0  0.07939  0.33726  0.52961  1.0000
  H   H829      1.0  0.86196  0.38014  0.44582  1.0000
  H   H830      1.0  0.84765  0.33844  0.41228  1.0000
  N   N52       1.0  0.84343  0.57275  0.51161  1.0000
  H   H831      1.0  0.84041  0.57232  0.44217  1.0000
  H   H832      1.0  0.83490  0.53708  0.54690  1.0000
  C   C519      1.0  0.85282  0.58036  0.46783  1.0000
  C   C520      1.0  0.86155  0.58206  0.54469  1.0000
  H   H833      1.0  0.85472  0.57730  0.57825  1.0000
  H   H834      1.0  0.86136  0.53355  0.50831  1.0000
  S   S214      1.0  0.87548  0.43311  0.39798  1.0000
  H   H835      1.0  0.88140  0.57290  0.54029  1.0000
  C   C521      1.0  0.86782  0.17445  0.70354  1.0000
  C   C522      1.0  0.87839  0.22054  0.74901  1.0000
  H   H836      1.0  0.88214  0.23842  0.76670  1.0000
  C   C523      1.0  0.86152  0.17623  0.74785  1.0000
  S   S215      1.0  0.89324  0.24775  0.67611  1.0000
  C   C524      1.0  0.86751  0.19900  0.77083  1.0000
  H   H837      1.0  0.86329  0.20019  0.80525  1.0000
  C   C525      1.0  0.87841  0.19610  0.68160  1.0000
  C   C526      1.0  0.88302  0.21943  0.70407  1.0000
  S   S216      1.0  0.84434  0.15083  0.77302  1.0000
  H   H838      1.0  0.86368  0.15665  0.68587  1.0000
  H   H839      1.0  0.95291  0.22929  0.80640  1.0000
  H   H840      1.0  0.91919  0.20350  0.86697  1.0000
  H   H841      1.0  0.87169  0.20509  0.88146  1.0000
  C   C527      1.0  0.95262  0.23893  0.77362  1.0000
  H   H842      1.0  0.96923  0.23014  0.75455  1.0000
  H   H843      1.0  0.93439  0.23330  0.75736  1.0000
  C   C528      1.0  0.91082  0.21765  0.88990  1.0000
  H   H844      1.0  0.88294  0.19474  0.64729  1.0000
  H   H845      1.0  0.93449  0.27568  0.71628  1.0000
  H   H846      1.0  0.93216  0.26980  0.83657  1.0000
  H   H847      1.0  0.98045  0.26585  0.83087  1.0000
  C   C529      1.0  0.97883  0.27474  0.79770  1.0000
  H   H848      1.0  0.98051  0.29660  0.80118  1.0000
  H   H849      1.0  0.99599  0.26725  0.77856  1.0000
  C   C530      1.0  0.93199  0.27865  0.80325  1.0000
  N   N53       1.0  0.95414  0.26809  0.77685  1.0000
  H   H850      1.0  0.93263  0.30056  0.80678  1.0000
  H   H851      1.0  0.91309  0.27406  0.78825  1.0000
  C   C531      1.0  0.95301  0.28006  0.73279  1.0000
  H   H852      1.0  0.95433  0.30203  0.73398  1.0000
  H   H853      1.0  0.96920  0.27221  0.71173  1.0000
  H   H854      1.0  0.06127  0.33833  0.78156  1.0000
  S   S217      1.0  0.01632  0.33888  0.83788  1.0000
  C   C532      1.0  0.06663  0.34660  0.81243  1.0000
  C   C533      1.0  0.04796  0.34970  0.84566  1.0000
  C   C534      1.0  0.05495  0.36052  0.88545  1.0000
  H   H855      1.0  0.07772  0.27548  0.88276  1.0000
  H   H856      1.0  0.86307  0.32132  0.86918  1.0000
  C   C535      1.0  0.08056  0.36811  0.89205  1.0000
  C   C536      1.0  0.83559  0.55800  0.86970  1.0000
  C   C537      1.0  0.87804  0.10652  0.08779  1.0000
  S   S218      1.0  0.83824  0.16212  0.90182  1.0000
  C   C538      1.0  0.88394  0.21846  0.89823  1.0000
  S   S219      1.0  0.96020  0.23488  0.90011  1.0000
  C   C539      1.0  0.92674  0.23520  0.91118  1.0000
  C   C540      1.0  0.87308  0.23654  0.92822  1.0000
  C   C541      1.0  0.91575  0.25360  0.94046  1.0000
  C   C542      1.0  0.88905  0.25401  0.94943  1.0000
  H   H857      1.0  0.87204  0.12177  0.11229  1.0000
  S   S220      1.0  0.83958  0.23788  0.93900  1.0000
  H   H858      1.0  0.98587  0.24950  0.13632  1.0000
  H   H859      1.0  0.85020  0.14689  0.05059  1.0000
  H   H860      1.0  0.87530  0.13529  0.01343  1.0000
  C   C543      1.0  0.85644  0.13024  0.02885  1.0000
  H   H861      1.0  0.00560  0.25863  0.06402  1.0000
  N   N54       1.0  0.85856  0.10475  0.05298  1.0000
  H   H862      1.0  0.89739  0.11170  0.07448  1.0000
  H   H863      1.0  0.84186  0.12951  0.00233  1.0000
  C   C544      1.0  0.00180  0.26283  0.13354  1.0000
  H   H864      1.0  0.85942  0.36697  0.90092  1.0000
  H   H865      1.0  0.07627  0.30960  0.89841  1.0000
  H   H866      1.0  0.85188  0.37071  0.95753  1.0000
  H   H867      1.0  0.88088  0.26763  0.97325  1.0000
  H   H868      1.0  0.92782  0.26727  0.95690  1.0000
  C   C545      1.0  0.91083  0.42888  0.01602  1.0000
  H   H869      1.0  0.85541  0.29305  0.90231  1.0000
  H   H870      1.0  0.88475  0.31018  0.91176  1.0000
  C   C546      1.0  0.86387  0.31308  0.90284  1.0000
  C   C547      1.0  0.04270  0.29759  0.12605  1.0000
  N   N55       1.0  0.96491  0.34819  0.12581  1.0000
  C   C548      1.0  0.85177  0.31914  0.97820  1.0000
  H   H871      1.0  0.92488  0.35752  0.11103  1.0000
  C   C549      1.0  0.86144  0.35713  0.93332  1.0000
  H   H872      1.0  0.88254  0.35563  0.94108  1.0000
  H   H873      1.0  0.87243  0.31664  0.98846  1.0000
  Fe  Fe110     1.0  0.97602  0.27158  0.92845  1.0000
  N   N56       1.0  0.84980  0.33075  0.93398  1.0000
  C   C550      1.0  0.96816  0.33062  0.08776  1.0000
  H   H874      1.0  0.97183  0.34215  0.05744  1.0000
  Fe  Fe111     1.0  0.00002  0.32252  0.89998  1.0000
  S   S221      1.0  0.95882  0.30981  0.90262  1.0000
  H   H875      1.0  0.04059  0.36323  0.91106  1.0000
  C   C551      1.0  0.01274  0.26824  0.09258  1.0000
  H   H876      1.0  0.99426  0.37443  0.10329  1.0000
  H   H877      1.0  0.94733  0.38073  0.08979  1.0000
  S   S222      1.0  0.01736  0.28305  0.92044  1.0000
  S   S223      1.0  0.97314  0.28351  0.99834  1.0000
  C   C552      1.0  0.03284  0.28606  0.08872  1.0000
  C   C553      1.0  0.93881  0.39059  0.99749  1.0000
  Fe  Fe112     1.0  0.95909  0.32298  0.97199  1.0000
  S   S224      1.0  0.92257  0.33925  0.00432  1.0000
  Fe  Fe113     1.0  0.01288  0.29901  0.98803  1.0000
  S   S225      1.0  0.04466  0.29543  0.03739  1.0000
  S   S226      1.0  0.99880  0.33984  0.96720  1.0000
  C   C554      1.0  0.93489  0.41821  0.00151  1.0000
  C   C555      1.0  0.89528  0.38440  0.02528  1.0000
  C   C556      1.0  0.91886  0.37374  0.00906  1.0000
  H   H878      1.0  0.87994  0.37139  0.03479  1.0000
  H   H879      1.0  0.95709  0.38244  0.98494  1.0000
  C   C557      1.0  0.89120  0.41189  0.02840  1.0000
  H   H880      1.0  0.95056  0.31896  0.08236  1.0000
  C   C558      1.0  0.98918  0.36233  0.13239  1.0000
  C   C559      1.0  0.94321  0.36765  0.11816  1.0000
  H   H881      1.0  0.87287  0.41991  0.04061  1.0000
  H   H882      1.0  0.05845  0.31115  0.12326  1.0000
  H   H883      1.0  0.98484  0.31621  0.09201  1.0000
  H   H884      1.0  0.84315  0.29919  0.97978  1.0000
  H   H885      1.0  0.95010  0.43132  0.99173  1.0000
  H   H886      1.0  0.00593  0.34811  0.13832  1.0000
  H   H887      1.0  0.84153  0.33200  0.00264  1.0000
  C   C560      1.0  0.92593  0.49466  0.13725  1.0000
  Fe  Fe114     1.0  0.86528  0.47226  0.98961  1.0000
  C   C561      1.0  0.86211  0.58862  0.90850  1.0000
  C   C562      1.0  0.85612  0.56258  0.89780  1.0000
  H   H888      1.0  0.84205  0.50172  0.07105  1.0000
  H   H889      1.0  0.89961  0.45026  0.12642  1.0000
  H   H890      1.0  0.94325  0.50699  0.13282  1.0000
  C   C563      1.0  0.95137  0.45454  0.12192  1.0000
  H   H891      1.0  0.86939  0.49578  0.13512  1.0000
  S   S227      1.0  0.85455  0.46011  0.92211  1.0000
  H   H892      1.0  0.94226  0.45286  0.08932  1.0000
  S   S228      1.0  0.84724  0.51331  0.98267  1.0000
  H   H893      1.0  0.86750  0.54605  0.91117  1.0000
  C   C564      1.0  0.84992  0.50415  0.13881  1.0000
  H   H894      1.0  0.96934  0.46588  0.11734  1.0000
  S   S229      1.0  0.90490  0.46334  0.01777  1.0000
  H   H895      1.0  0.91603  0.49392  0.10515  1.0000
  H   H896      1.0  0.87790  0.59205  0.93052  1.0000
  H   H897      1.0  0.95733  0.43417  0.13310  1.0000
  H   H898      1.0  0.83582  0.58494  0.05092  1.0000
  C   C565      1.0  0.83424  0.50737  0.10233  1.0000
  Fe  Fe115     1.0  0.83269  0.49944  0.91861  1.0000
  C   C566      1.0  0.83303  0.09895  0.07258  1.0000
  H   H899      1.0  0.88543  0.73532  0.35492  1.0000
  C   C567      1.0  0.87199  0.75035  0.37039  1.0000
  H   H900      1.0  0.87142  0.75435  0.28315  1.0000
  N   N57       1.0  0.84925  0.75686  0.34269  1.0000
  H   H901      1.0  0.84792  0.71698  0.31823  1.0000
  H   H902      1.0  0.84228  0.60087  0.33888  1.0000
  C   C568      1.0  0.83513  0.73248  0.33398  1.0000
  H   H903      1.0  0.88328  0.76826  0.37698  1.0000
  C   C569      1.0  0.85817  0.76848  0.30110  1.0000
  H   H904      1.0  0.86888  0.78694  0.30661  1.0000
  H   H905      1.0  0.84145  0.77380  0.27953  1.0000
  S   S230      1.0  0.93103  0.86936  0.37061  1.0000
  N   N58       1.0  0.03764  0.89479  0.32006  1.0000
  C   C570      1.0  0.01134  0.90205  0.33698  1.0000
  Fe  Fe116     1.0  0.92552  0.91253  0.38679  1.0000
  C   C571      1.0  0.04155  0.90763  0.27720  1.0000
  H   H906      1.0  0.99589  0.89509  0.31520  1.0000
  H   H907      1.0  0.02700  0.90129  0.25323  1.0000
  C   C572      1.0  0.04043  0.86565  0.31532  1.0000
  H   H908      1.0  0.06124  0.90244  0.26357  1.0000
  C   C573      1.0  0.05738  0.90377  0.35070  1.0000
  H   H909      1.0  0.02603  0.85812  0.29215  1.0000
  H   H910      1.0  0.84175  0.79487  0.37250  1.0000
  H   H911      1.0  0.03730  0.85529  0.34693  1.0000
  H   H912      1.0  0.06024  0.85949  0.30327  1.0000
  C   C574      1.0  0.90392  0.97607  0.39739  1.0000
  H   H913      1.0  0.86567  0.92325  0.25601  1.0000
  C   C575      1.0  0.84540  0.93025  0.24829  1.0000
  H   H914      1.0  0.84272  0.92807  0.21257  1.0000
  H   H915      1.0  0.00795  0.89300  0.36960  1.0000
  H   H916      1.0  0.05489  0.89463  0.38340  1.0000
  H   H917      1.0  0.03982  0.92964  0.27957  1.0000
  H   H918      1.0  0.00841  0.92392  0.34051  1.0000
  H   H919      1.0  0.05617  0.92568  0.35483  1.0000
  H   H920      1.0  0.07741  0.89819  0.33924  1.0000
  H   H921      1.0  0.86447  0.95305  0.31848  1.0000
  H   H922      1.0  0.84169  0.98089  0.32075  1.0000
  C   C576      1.0  0.84448  0.96004  0.30934  1.0000
  H   H923      1.0  0.87920  0.96898  0.24464  1.0000
  C   C577      1.0  0.85860  0.97533  0.23848  1.0000
  S   S231      1.0  0.92215  0.94283  0.33293  1.0000
  C   C578      1.0  0.90930  0.97311  0.35297  1.0000
  C   C579      1.0  0.90277  0.99384  0.32400  1.0000
  C   C580      1.0  0.88955  0.01686  0.33907  1.0000
  H   H924      1.0  0.90768  0.99198  0.28987  1.0000
  H   H925      1.0  0.88431  0.03271  0.31651  1.0000
  C   C581      1.0  0.88350  0.01945  0.38334  1.0000
  S   S232      1.0  0.85522  0.07386  0.18674  1.0000
  Fe  Fe117     1.0  0.84230  0.06630  0.34874  1.0000
  Fe  Fe118     1.0  0.83748  0.07977  0.25305  1.0000
  C   C582      1.0  0.84154  0.04557  0.16526  1.0000
  N   N59       1.0  0.84048  0.95805  0.26193  1.0000
  H   H926      1.0  0.85558  0.97485  0.20265  1.0000
  H   H927      1.0  0.85599  0.99640  0.24874  1.0000
  H   H928      1.0  0.86600  0.74213  0.40247  1.0000
  H   H929      1.0  0.86319  0.60400  0.54285  1.0000
  S   S233      1.0  0.89362  0.72809  0.52029  1.0000
  Fe  Fe119     1.0  0.85803  0.70442  0.51261  1.0000
  S   S234      1.0  0.85839  0.66044  0.50407  1.0000
  H   H930      1.0  0.86579  0.67161  0.61898  1.0000
  C   C583      1.0  0.88716  0.75827  0.49334  1.0000
  H   H931      1.0  0.84576  0.75736  0.50413  1.0000
  H   H932      1.0  0.87111  0.71949  0.63140  1.0000
  H   H933      1.0  0.85259  0.60233  0.46331  1.0000
  C   C584      1.0  0.84761  0.08514  0.49037  1.0000
  C   C585      1.0  0.04195  0.88641  0.63484  1.0000
  H   H934      1.0  0.92735  0.76527  0.47871  1.0000
  H   H935      1.0  0.89914  0.77130  0.58907  1.0000
  H   H936      1.0  0.03200  0.89836  0.60882  1.0000
  C   C586      1.0  0.05156  0.85140  0.58312  1.0000
  C   C587      1.0  0.97763  0.85984  0.62630  1.0000
  S   S235      1.0  0.86883  0.83575  0.42070  1.0000
  H   H937      1.0  0.94353  0.78112  0.56973  1.0000
  H   H938      1.0  0.83465  0.88435  0.43694  1.0000
  H   H939      1.0  0.95542  0.81378  0.57669  1.0000
  H   H940      1.0  0.93268  0.80776  0.53441  1.0000
  C   C588      1.0  0.93785  0.80265  0.56862  1.0000
  H   H941      1.0  0.03684  0.83814  0.59724  1.0000
  C   C589      1.0  0.90745  0.77279  0.47583  1.0000
  C   C590      1.0  0.86147  0.76794  0.48929  1.0000
  N   N60       1.0  0.06259  0.86838  0.61675  1.0000
  C   C591      1.0  0.90832  0.83755  0.59429  1.0000
  H   H942      1.0  0.91764  0.80766  0.43933  1.0000
  C   C592      1.0  0.87617  0.80619  0.44906  1.0000
  H   H943      1.0  0.05105  0.82623  0.41762  1.0000
  Fe  Fe120     1.0  0.90199  0.86324  0.42407  1.0000
  S   S236      1.0  0.99786  0.84441  0.41736  1.0000
  C   C593      1.0  0.90196  0.79682  0.45378  1.0000
  H   H944      1.0  0.83596  0.79853  0.46290  1.0000
  Fe  Fe121     1.0  0.96047  0.86859  0.42410  1.0000
  H   H945      1.0  0.87735  0.79633  0.61206  1.0000
  C   C594      1.0  0.89369  0.79290  0.58858  1.0000
  H   H946      1.0  0.88612  0.79783  0.55560  1.0000
  S   S237      1.0  0.89387  0.90650  0.43634  1.0000
  H   H947      1.0  0.92484  0.85031  0.60109  1.0000
  H   H948      1.0  0.90183  0.84251  0.56061  1.0000
  H   H949      1.0  0.89226  0.84341  0.61710  1.0000
  C   C595      1.0  0.04622  0.89305  0.47925  1.0000
  C   C596      1.0  0.94646  0.89721  0.62700  1.0000
  Fe  Fe122     1.0  0.92671  0.90250  0.48374  1.0000
  S   S238      1.0  0.93175  0.85843  0.47613  1.0000
  S   S239      1.0  0.92562  0.91836  0.55178  1.0000
  S   S240      1.0  0.95776  0.91248  0.43528  1.0000
  C   C597      1.0  0.94825  0.89897  0.58153  1.0000
  C   C598      1.0  0.96627  0.88264  0.55916  1.0000
  C   C599      1.0  0.02356  0.88143  0.46461  1.0000
  H   H950      1.0  0.96861  0.88473  0.52440  1.0000
  C   C600      1.0  0.02529  0.85761  0.44151  1.0000
  C   C601      1.0  0.04961  0.84486  0.43491  1.0000
  H   H951      1.0  0.00487  0.89118  0.47055  1.0000
  C   C602      1.0  0.98059  0.86281  0.58132  1.0000
  C   C603      1.0  0.85596  0.79162  0.46661  1.0000
  N   N61       1.0  0.91608  0.80914  0.59892  1.0000
  H   H952      1.0  0.99330  0.84926  0.56318  1.0000
  H   H953      1.0  0.04486  0.91188  0.49595  1.0000
  H   H954      1.0  0.04183  0.86346  0.55706  1.0000
  C   C604      1.0  0.07224  0.85653  0.44925  1.0000
  C   C605      1.0  0.07063  0.88091  0.47058  1.0000
  H   H955      1.0  0.06684  0.83852  0.56719  1.0000
  H   H956      1.0  0.07518  0.89775  0.57095  1.0000
  H   H957      1.0  0.90945  0.96045  0.42010  1.0000
  C   C606      1.0  0.89117  0.99930  0.41260  1.0000
  H   H958      1.0  0.88675  0.00136  0.44692  1.0000
  H   H959      1.0  0.83457  0.08512  0.46162  1.0000
  H   H960      1.0  0.83526  0.08433  0.52020  1.0000
  H   H961      1.0  0.89478  0.08900  0.52599  1.0000
  H   H962      1.0  0.89210  0.09098  0.44553  1.0000
  H   H963      1.0  0.85973  0.06636  0.48916  1.0000
  S   S241      1.0  0.86578  0.04744  0.40232  1.0000
  C   C607      1.0  0.92096  0.74467  0.83935  1.0000
  H   H964      1.0  0.88443  0.72524  0.84142  1.0000
  H   H965      1.0  0.92821  0.73494  0.86859  1.0000
  C   C608      1.0  0.89610  0.73934  0.82418  1.0000
  H   H966      1.0  0.83757  0.71027  0.71130  1.0000
  S   S242      1.0  0.85430  0.74864  0.77076  1.0000
  C   C609      1.0  0.88628  0.75275  0.78754  1.0000
  N   N62       1.0  0.87041  0.68952  0.68156  1.0000
  H   H967      1.0  0.87638  0.66453  0.73799  1.0000
  C   C610      1.0  0.84213  0.69326  0.68938  1.0000
  H   H968      1.0  0.90497  0.68055  0.71871  1.0000
  C   C611      1.0  0.88355  0.68315  0.72317  1.0000
  H   H969      1.0  0.88000  0.69920  0.74739  1.0000
  H   H970      1.0  0.87726  0.73119  0.68539  1.0000
  C   C612      1.0  0.93602  0.76333  0.81780  1.0000
  C   C613      1.0  0.88065  0.71417  0.66286  1.0000
  H   H971      1.0  0.86731  0.64863  0.66369  1.0000
  H   H972      1.0  0.90195  0.71205  0.65647  1.0000
  C   C614      1.0  0.87526  0.66744  0.65086  1.0000
  C   C615      1.0  0.84758  0.61019  0.89120  1.0000
  H   H973      1.0  0.83396  0.67541  0.70489  1.0000
  S   S243      1.0  0.83574  0.71744  0.88761  1.0000
  C   C616      1.0  0.83324  0.05997  0.90394  1.0000
  S   S244      1.0  0.96499  0.77305  0.84146  1.0000
  H   H974      1.0  0.93101  0.78242  0.64847  1.0000
  C   C617      1.0  0.07364  0.85146  0.65210  1.0000
  C   C618      1.0  0.90186  0.77031  0.76459  1.0000
  H   H975      1.0  0.04987  0.90036  0.65877  1.0000
  C   C619      1.0  0.92678  0.77548  0.77958  1.0000
  H   H976      1.0  0.02683  0.87517  0.65223  1.0000
  S   S245      1.0  0.07786  0.83731  0.80283  1.0000
  Fe  Fe123     1.0  0.99450  0.83582  0.72434  1.0000
  S   S246      1.0  0.01573  0.80260  0.75929  1.0000
  Fe  Fe124     1.0  0.98430  0.86731  0.80666  1.0000
  S   S247      1.0  0.00474  0.83682  0.84862  1.0000
  S   S248      1.0  0.96679  0.90542  0.83287  1.0000
  Fe  Fe125     1.0  0.03469  0.83497  0.79516  1.0000
  Fe  Fe126     1.0  0.98362  0.80757  0.80863  1.0000
  H   H977      1.0  0.93869  0.78908  0.76191  1.0000
  S   S249      1.0  0.01594  0.86800  0.75612  1.0000
  S   S250      1.0  0.96061  0.83842  0.77065  1.0000
  H   H978      1.0  0.89443  0.78037  0.73584  1.0000
  H   H979      1.0  0.05327  0.81016  0.87453  1.0000
  H   H980      1.0  0.95930  0.87564  0.68446  1.0000
  H   H981      1.0  0.92286  0.81433  0.84796  1.0000
  C   C620      1.0  0.07184  0.81689  0.88511  1.0000
  C   C621      1.0  0.94850  0.90241  0.88104  1.0000
  C   C622      1.0  0.87209  0.82701  0.84539  1.0000
  H   H982      1.0  0.87807  0.81118  0.82184  1.0000
  H   H983      1.0  0.87352  0.84648  0.82835  1.0000
  H   H984      1.0  0.06464  0.90530  0.88035  1.0000
  H   H985      1.0  0.05285  0.87273  0.87300  1.0000
  H   H986      1.0  0.90846  0.80795  0.66791  1.0000
  H   H987      1.0  0.85126  0.82428  0.85373  1.0000
  H   H988      1.0  0.05848  0.83910  0.66750  1.0000
  H   H989      1.0  0.91853  0.84931  0.85670  1.0000
  C   C623      1.0  0.91590  0.82944  0.87188  1.0000
  H   H990      1.0  0.94097  0.81592  0.65316  1.0000
  C   C624      1.0  0.96137  0.87767  0.64954  1.0000
  S   S251      1.0  0.99301  0.83252  0.65190  1.0000
  H   H991      1.0  0.89255  0.78317  0.88373  1.0000
  H   H992      1.0  0.00857  0.88857  0.89192  1.0000
  N   N63       1.0  0.88851  0.82570  0.88463  1.0000
  C   C625      1.0  0.92442  0.80356  0.64410  1.0000
  H   H993      1.0  0.08188  0.86354  0.67844  1.0000
  H   H994      1.0  0.93271  0.91003  0.64447  1.0000
  H   H995      1.0  0.92790  0.94000  0.87167  1.0000
  H   H996      1.0  0.84494  0.05846  0.87453  1.0000
  S   S252      1.0  0.85402  0.64241  0.90825  1.0000
  H   H997      1.0  0.83632  0.61765  0.98994  1.0000
  C   C626      1.0  0.07925  0.81334  0.92862  1.0000
  C   C627      1.0  0.06039  0.88648  0.89767  1.0000
  C   C628      1.0  0.93035  0.92261  0.89237  1.0000
  H   H998      1.0  0.96589  0.86458  0.89999  1.0000
  C   C629      1.0  0.95184  0.88018  0.90826  1.0000
  N   N64       1.0  0.04156  0.89085  0.93376  1.0000
  H   H999      1.0  0.05588  0.92904  0.94956  1.0000
  H   H1000     1.0  0.01943  0.92137  0.89923  1.0000
  C   C630      1.0  0.88624  0.79950  0.90598  1.0000
  H   H1001     1.0  0.88224  0.86697  0.90090  1.0000
  H   H1002     1.0  0.92905  0.82756  0.90038  1.0000
  H   H1003     1.0  0.07091  0.90159  0.97890  1.0000
  H   H1004     1.0  0.03845  0.91318  0.99293  1.0000
  H   H1005     1.0  0.86584  0.79596  0.91614  1.0000
  C   C631      1.0  0.87984  0.84681  0.91520  1.0000
  C   C632      1.0  0.05217  0.90954  0.96519  1.0000
  H   H1006     1.0  0.00185  0.90530  0.94220  1.0000
  C   C633      1.0  0.01681  0.90205  0.91618  1.0000
  H   H1007     1.0  0.02214  0.86762  0.98241  1.0000
  H   H1008     1.0  0.89867  0.79766  0.93541  1.0000
  H   H1009     1.0  0.89129  0.84580  0.94578  1.0000
  H   H1010     1.0  0.85902  0.84521  0.92454  1.0000
  H   H1011     1.0  0.05513  0.85677  0.97091  1.0000
  C   C634      1.0  0.03696  0.86530  0.95599  1.0000
  C   C635      1.0  0.91491  0.92019  0.92994  1.0000
  Fe  Fe127     1.0  0.86270  0.92198  0.99983  1.0000
  S   S253      1.0  0.89713  0.89323  0.00150  1.0000
  C   C636      1.0  0.91792  0.89775  0.95671  1.0000
  C   C637      1.0  0.93679  0.87802  0.94634  1.0000
  H   H1012     1.0  0.93931  0.86074  0.96723  1.0000
  S   S254      1.0  0.84358  0.93184  0.93650  1.0000
  H   H1013     1.0  0.06626  0.80409  0.95157  1.0000
  H   H1014     1.0  0.02999  0.85030  0.93291  1.0000
  H   H1015     1.0  0.07916  0.87754  0.90958  1.0000
  C   C638      1.0  0.85430  0.03132  0.13202  1.0000
  H   H1016     1.0  0.90076  0.93579  0.93821  1.0000
  H   H1017     1.0  0.85310  0.08211  0.99508  1.0000
  H   H1018     1.0  0.87262  0.03788  0.11913  1.0000
  H   H1019     1.0  0.85409  0.99689  0.09156  1.0000
  C   C639      1.0  0.86673  0.08328  0.02275  1.0000
  S   S255      1.0  0.84626  0.00747  0.91636  1.0000
  H   H1020     1.0  0.88634  0.08651  0.00858  1.0000
  H   H1021     1.0  0.88059  0.08733  0.10573  1.0000
  S   S256      1.0  0.86231  0.96420  0.02228  1.0000
  H   H1022     1.0  0.86735  0.06353  0.03933  1.0000
  Fe  Fe128     1.0  0.83943  0.97333  0.96193  1.0000
  C   C640      1.0  0.84378  0.00803  0.11633  1.0000
  H   H1023     1.0  0.83358  0.07939  0.08964  1.0000
  H   H1024     1.0  0.89641  0.66382  0.64447  1.0000
