data_image0
_chemical_formula_structural       FeS2FeS2FeSFeS3H3FeSHFeS2FeS2FeSFeCS2FeS2FeS2FeSFeS3FeS2H2FeSHSHCHC3H2CHCH2C6H2CHC6H5C2H4C3H2C2H4C4HCH3CHNH2SH4C6H4C3SHCHCHNC6H4C2HCH2SH2CH2NC3HC2NH4CHC3H5SH2C3HSH4CH3CH3CH4CHCH3C2HCHNH2C2HCH2C2H6C2HNH3FeC2HC2H5CH7CSHNHSCH8NCH2CH2SHCH5FeS2FeS2FeSFeS3N2C2HSFeS2FeS2FeSFeCS2FeS2FeS2FeSFeS3FeS2C2FeSHSHCSC6H5C4H5C6H5C2H2SH2C3H4CH3C6H3NHCHCH4C6H4C2HCSCH4C6H4C2NCHCHCH2C2HCHCNC4H12NHCSCHCHCH3SH5CHCH2SH2CHFeH3NHNC4H12NH2CHSCH2CH7CH2CH3CH2CSH2CHCHSHNH2CHCH2CHSCHC2H2CH2CH6SCHCH2CH10CH2CH4NHSCFeS2FeS2FeSFeS3FeS2FeS2FeSFeS3FeS2FeSHFeSFeS3FeSH2CHFeHFeSH5CH2SC6H4C6H3C7HSHC6H2CHC4HC3HC3H3C2HC2HC2SCH3CH3C4H4C6H4CNHNSCHCH2C2H3NCH4CH2CHCH2CHSNC4H12NCH2CH2SH3CH10CHSCH3CSH4CHSH2C4H2CH7NH3NCNCH4FeNC4H11CH5CHSH3C2NC4H2FeH2CH4CHCH2CH2CHCH2SH2CH4CHCFeS2FeS2FeSFeS3FeS2FeS2FeSFeS3FeS2FeSHFeSFeS3HSHFeS2H2FeSHSHSC2H2SC6H4C2HC3H3C6H2CHC6HNH2C4HCH4SC2H3CHCH2C2HC3H4C5H4C6H4C2H2C2H2NHC2H2CH5CHNH7C2NC4H12N2H4CH2CH3SH2N2C4H12C2H2CHCH2NC2HC3H3SH2C3HSH5FeC2HCNH2FeHC2HC2HNH2CHC2H3CHC2H3CHCHC2HCH3CHCH3CH4CH2C2H3FeSH9FeC2H4S2H2FeH3CFeH2FeH2FeS3H2S2FeSHSFeSFeS2Fe2CHS2CSHFeHSFeSCHS2FeS2FeS2FeSFeS3HSHFeSHSHSH3FeHSHS2FeSHC6H4C6H4C6H4C6H4C6H4CFeCH2CH2SH4C7H4CH3CH2CH4CHC3Fe2HCHSFeCNHSHCSC2H2CFeCFeCNC3H4CH5C3H3NH2C2H10C2H2CHCSCSH4CH3CSH6CH3C2HNH3CH4SH2CNH3NH4CH2CH2CHCFeHNC4H4NH8C2H6CH4C3NC2H2CHCFe2HS2HSHCH2S2FeSH4Fe2S2HFeS3CSHSFeSFeS2FeCSFeSC2SHFeHSCSHC2SFeS2FeS2FeSFeS4H3SHFe2SH4CSHS2NSHC5H5C6H4C6H4C6H4C6H4C3H2CH2CH4C7H4CHSCHCFeHC4SH2C3HC2HCH2SHCHCNHFeHSH3CHSH2CH2NH3CH2Fe3CH2C2H2SHFeHCH5CH3CHFeHCH2CH2C2H4CHFeH3NCH2SH2FeH4CFeSHNH2C2H2CH3C2H3CH5NCHCHFeHSC2SCH3NCH2SH4C2H2FeHFeCHC2HC3N2S2HSHSHFeSCFeS2FeS2FeSFeS3CHNFeHSH2SHCSCHNC7H3C6H4C2HC3NH3C6H4C6H5CH2CHNH2CHCHC2HCH3CHCH2CH3NFeCH6CH3CH6SNC2SCH2CSH6SHCH3SHFeHCSH3CH3SHSH2CHFeCFeSH3S2HFeS2FeS2FeS2FeSFeS3HCNH2SH2CHCH2CHC6H4C6H4C6H4C6H4C6H5CNC3H12FeCHCH2FeH7CH2NHCH3C2HCHC3S2HCSHSH3NH2SH3CFeH3CH2NC5H10CH5SCS2CH6NFeHSH2FeS2FeS2FeSFeS3FeSHFeSHFeS2FeS2FeHSNHSC6H4C6H4CH3C7HCH2C6H4C6H8NH4C3H2NHCH4NCH2CH8SC3H3SNH2NH8SHCHNCH4C2H7C3H2C2HCH3NCH4CHCH5NSCH7C2H2FeH2SCHC2HFeCS2CFeS2FeS2FeSFeS3C2H2SHFeS2FeS3FeSFeS2C6H4C6HFeH3CH3C6H4C6H4C6H5NH4C2HC2H6C2H2CHCH2CH5CFeHNCH2C2H6SCH6SNH3CH3CHCHCH4NH2CH2SCH2CFeH4SCNCH3SH2S2H2CH4FeHS2FeS3HFeS2C2SHSH4C2H3FeS2HC2S2HFeS2HFeS3HFeS2FeS2FeS2FeS2FeSFeS3C6H4C6H4C6H5C4SH2CHC2HCH4CHC6H4C3H2C6H4CH2CHC2H2C2HS2H10CH10SNHCHCH3FeHNH3SH2FeHCFeHNC4H12NC4H13SNHCHCH3CHCS2CHFeH4NH2NH3C3HCHC2H2CH2CNHC2FeHFeCNH2FeCH2CSH6SCHCH2C2HCH2FeHCH2C3HCH2CSH3FeNSHS2HSHFeSHCH2CSH4SC2H2FeS2HCS3HFeS2HFeSFeSHFeS2FeS2FeS2FeS2FeSFeS3C6H4C6H4C6H4C5H3SHC2FeC4HCHC6H6CH2C6H4SHC2SCH3C2H3C3SH2C2SHCH4SFeCNHCH3CHCHFeCHCH2CH3FeHCH2CH2NC2FeHSHCHCNC4H12NCH2FeHCH6CH3NCNHCH4CHNC4H12NC4H9SH4C2HC2H4CHCHSHCH6CHFe2H5S2NH5SHC2H3CH2SH2CHNH3FeHC2FeCNHFeHSH3CH6NCH2CHCH6CHCSFeS2FeS2FeSFeS3FeS2FeS2FeSFeS3CS2H2FeSCHSCSHFeS3NHFeSCS2CFeS2FeHCFe3S3H2C4H5C7H4C3HC2HCH2C6H4C6H4C3H2CH7C7H4CFeC2H2CH3C6H5CSNC4H2FeCH8CFeC2H2C2H3CH5FeH2C2H3C2H2C2H5SHCH7NHNHCHCN2H5NH2CH2CH2SH2NH3CH2NC7SH2CH2C2FeC2H3SH5C2HCHCNH3CHCH5CH2C2NCH2SCH3NH10CH3CH3SHC2SNCH4CHSH2FeS2FeS2FeSFeS3FeS2FeS2FeSFeS3FeS2HSFeSFeS2HS2FeS2H3FeSHS2CFeS2H3FeSFeS3H2C4H2SH3C6H4C6HFeH2C6H4C6H4C3HC2H5CHC7H4C3H4CHC7H5CSNC4H12CH4CHFeHFeHCH3NC4H15C2H2NFeNCH3CHNH2C3H5NC4H12NC4H10CFeH2C2H2C2SHCH3CNCHCHCH3SH2CH2CH2CH2SC2HC3H6SHCSHCFeS2FeS2FeSFeS3FeS2FeS2FeSFeHS2H2CH3FeSH2FeCHFeS2FeS2FeSFeS3FeS2FeSHSH3C6H4C6H4C6H4C6H4C2HC3H2NC4H4CHC6H4C6H4CH3CH2C2NHSCH4CH2CH3NC3H9CH2CH2CH2FeCH3NCH2NHCHC2SCH3CH4CH3NHFeSH2C3SCSH2CH7CHC2H3SH2CNC5H2C3H3CH5C2H3NFeSCH3CH3CH4NH3CS2H6CH2FeH2CH2FeHC2HSH2SFeHFeS2FeS2FeSFeS3FeS2FeS2FeSFeHS2HS2H6C3HFeS2FeS2FeSFeS3FeS2FeSHC2H2C6H4C6H4C6H4C6H4C6H3CH2S2CSH3C6H4C6H5CSHC3H2CH4CHC2SH3NH5S2NH4CH5CH5CHNC4H2CH2SCH5NC4H12NC4H11NC4H4CH5CFeHSHFeHNH4CHC2FeC2HCNCHSCH2CHFeH4CHFeH
_chemical_formula_sum              "Fe288 S576 H2304 C1440 N144"
_cell_length_a       90.9904
_cell_length_b       86.8478
_cell_length_c       41.0878
_cell_angle_alpha    91.1921
_cell_angle_beta     88.7165
_cell_angle_gamma    112.641

_space_group_name_H-M_alt    "P 1"
_space_group_IT_number       1

loop_
  _space_group_symop_operation_xyz
  'x, y, z'

loop_
  _atom_site_type_symbol
  _atom_site_label
  _atom_site_symmetry_multiplicity
  _atom_site_fract_x
  _atom_site_fract_y
  _atom_site_fract_z
  _atom_site_occupancy
  Fe  Fe1       1.0  0.06170  0.22764  0.31461  1.0000
  S   S1        1.0  0.04065  0.23519  0.31158  1.0000
  S   S2        1.0  0.06687  0.21447  0.27003  1.0000
  Fe  Fe2       1.0  0.07068  0.24300  0.38240  1.0000
  S   S3        1.0  0.05062  0.25201  0.38314  1.0000
  S   S4        1.0  0.08722  0.25280  0.42548  1.0000
  Fe  Fe3       1.0  0.03528  0.22663  0.36347  1.0000
  S   S5        1.0  0.01189  0.21417  0.39256  1.0000
  Fe  Fe4       1.0  0.05769  0.25973  0.33165  1.0000
  S   S6        1.0  0.05836  0.28437  0.31276  1.0000
  S   S7        1.0  0.05517  0.21712  0.36522  1.0000
  S   S8        1.0  0.07885  0.25265  0.33198  1.0000
  H   H1        1.0  0.14239  0.22523  0.49835  1.0000
  H   H2        1.0  0.06576  0.26449  0.26397  1.0000
  H   H3        1.0  0.07014  0.23734  0.19694  1.0000
  Fe  Fe5       1.0  0.05117  0.47929  0.14408  1.0000
  S   S9        1.0  0.20792  0.01288  0.35635  1.0000
  H   H4        1.0  0.17281  0.31285  0.39596  1.0000
  Fe  Fe6       1.0  0.16333  0.27107  0.09856  1.0000
  S   S10       1.0  0.15757  0.25285  0.05645  1.0000
  S   S11       1.0  0.17631  0.29923  0.09973  1.0000
  Fe  Fe7       1.0  0.14032  0.24539  0.14509  1.0000
  S   S12       1.0  0.13234  0.22525  0.10655  1.0000
  S   S13       1.0  0.13450  0.24499  0.19899  1.0000
  Fe  Fe8       1.0  0.15863  0.23419  0.09350  1.0000
  S   S14       1.0  0.16971  0.21495  0.08191  1.0000
  Fe  Fe9       1.0  0.13197  0.24526  0.07261  1.0000
  C   C1        1.0  0.20616  0.42314  0.30128  1.0000
  S   S15       1.0  0.16649  0.25322  0.13398  1.0000
  S   S16       1.0  0.13784  0.26451  0.11283  1.0000
  Fe  Fe10      1.0  0.13022  0.39504  0.21634  1.0000
  S   S17       1.0  0.13265  0.37468  0.18373  1.0000
  S   S18       1.0  0.12161  0.41592  0.20412  1.0000
  Fe  Fe11      1.0  0.14957  0.38848  0.27108  1.0000
  S   S19       1.0  0.15320  0.36798  0.24301  1.0000
  S   S20       1.0  0.15973  0.39794  0.32122  1.0000
  Fe  Fe12      1.0  0.15819  0.38425  0.19909  1.0000
  S   S21       1.0  0.17939  0.38227  0.17134  1.0000
  Fe  Fe13      1.0  0.12754  0.35951  0.22960  1.0000
  S   S22       1.0  0.11665  0.33123  0.22760  1.0000
  S   S23       1.0  0.15648  0.40566  0.22830  1.0000
  S   S24       1.0  0.12326  0.37900  0.26125  1.0000
  Fe  Fe14      1.0  0.01850  0.45357  0.16114  1.0000
  S   S25       1.0  0.03760  0.45315  0.12568  1.0000
  S   S26       1.0  0.99272  0.44941  0.15143  1.0000
  H   H5        1.0  0.08310  0.25971  0.25647  1.0000
  H   H6        1.0  0.17398  0.33926  0.13204  1.0000
  Fe  Fe15      1.0  0.04848  0.44516  0.16816  1.0000
  S   S27       1.0  0.05580  0.42262  0.17000  1.0000
  H   H7        1.0  0.08053  0.28255  0.18262  1.0000
  S   S28       1.0  0.02796  0.44338  0.20178  1.0000
  H   H8        1.0  0.10770  0.26622  0.47918  1.0000
  C   C2        1.0  0.96684  0.44763  0.00462  1.0000
  H   H9        1.0  0.19196  0.07875  0.39574  1.0000
  C   C3        1.0  0.17394  0.39227  0.34127  1.0000
  C   C4        1.0  0.17965  0.39964  0.37165  1.0000
  C   C5        1.0  0.19227  0.39703  0.38663  1.0000
  H   H10       1.0  0.14348  0.19114  0.22354  1.0000
  H   H11       1.0  0.05973  0.45227  0.30893  1.0000
  C   C6        1.0  0.18070  0.38187  0.32637  1.0000
  H   H12       1.0  0.17449  0.40770  0.38338  1.0000
  C   C7        1.0  0.19520  0.43284  0.25688  1.0000
  H   H13       1.0  0.99889  0.20321  0.32728  1.0000
  H   H14       1.0  0.17624  0.37585  0.30333  1.0000
  C   C8        1.0  0.19748  0.39997  0.06793  1.0000
  C   C9        1.0  0.18711  0.40613  0.08433  1.0000
  C   C10       1.0  0.18098  0.40041  0.11557  1.0000
  C   C11       1.0  0.18547  0.38871  0.13093  1.0000
  C   C12       1.0  0.19580  0.38250  0.11447  1.0000
  C   C13       1.0  0.20163  0.38794  0.08296  1.0000
  H   H15       1.0  0.12766  0.20582  0.48520  1.0000
  H   H16       1.0  0.17308  0.40532  0.12803  1.0000
  C   C14       1.0  0.20875  0.34207  0.41729  1.0000
  H   H17       1.0  0.06704  0.23665  0.49239  1.0000
  C   C15       1.0  0.07438  0.42103  0.17817  1.0000
  C   C16       1.0  0.07476  0.40513  0.18245  1.0000
  C   C17       1.0  0.08900  0.40326  0.19053  1.0000
  C   C18       1.0  0.10315  0.41730  0.19420  1.0000
  C   C19       1.0  0.10276  0.43320  0.18983  1.0000
  C   C20       1.0  0.08852  0.43508  0.18188  1.0000
  H   H18       1.0  0.06393  0.39415  0.17963  1.0000
  H   H19       1.0  0.08906  0.39095  0.19370  1.0000
  H   H20       1.0  0.11363  0.44416  0.19235  1.0000
  H   H21       1.0  0.08855  0.44739  0.17830  1.0000
  H   H22       1.0  0.06383  0.41256  0.28554  1.0000
  C   C21       1.0  0.98049  0.41698  0.12691  1.0000
  C   C22       1.0  0.97796  0.43161  0.13385  1.0000
  H   H23       1.0  0.19902  0.37191  0.32878  1.0000
  H   H24       1.0  0.07564  0.28710  0.22330  1.0000
  H   H25       1.0  0.17299  0.07893  0.40798  1.0000
  H   H26       1.0  0.99191  0.41645  0.13185  1.0000
  C   C23       1.0  0.06473  0.44245  0.30553  1.0000
  C   C24       1.0  0.18753  0.30967  0.06558  1.0000
  C   C25       1.0  0.19177  0.30099  0.04048  1.0000
  H   H27       1.0  0.04871  0.26495  0.21885  1.0000
  H   H28       1.0  0.17856  0.32745  0.16263  1.0000
  C   C26       1.0  0.05403  0.25746  0.20396  1.0000
  C   C27       1.0  0.19199  0.32699  0.06329  1.0000
  H   H29       1.0  0.18831  0.35748  0.42210  1.0000
  H   H30       1.0  0.03877  0.41797  0.28097  1.0000
  H   H31       1.0  0.13976  0.31653  0.20741  1.0000
  H   H32       1.0  0.04335  0.42343  0.23901  1.0000
  C   C28       1.0  0.19578  0.18818  0.10896  1.0000
  C   C29       1.0  0.18670  0.19506  0.09118  1.0000
  C   C30       1.0  0.18221  0.20768  0.10470  1.0000
  C   C31       1.0  0.18717  0.21351  0.13623  1.0000
  H   H33       1.0  0.17744  0.34728  0.17293  1.0000
  C   C32       1.0  0.10390  0.23933  0.00483  1.0000
  H   H34       1.0  0.18300  0.19043  0.06681  1.0000
  H   H35       1.0  0.06633  0.45982  0.25217  1.0000
  H   H36       1.0  0.96724  0.41700  0.01172  1.0000
  C   C33       1.0  0.97367  0.18879  0.33474  1.0000
  H   H37       1.0  0.07741  0.25359  0.16722  1.0000
  N   N1        1.0  0.04294  0.22421  0.47638  1.0000
  H   H38       1.0  0.17886  0.07543  0.46557  1.0000
  H   H39       1.0  0.05336  0.26031  0.17790  1.0000
  S   S29       1.0  0.04298  0.47433  0.27053  1.0000
  H   H40       1.0  0.08970  0.25324  0.20067  1.0000
  H   H41       1.0  0.20950  0.38298  0.07054  1.0000
  H   H42       1.0  0.09290  0.28228  0.21589  1.0000
  H   H43       1.0  0.19199  0.99830  0.41822  1.0000
  C   C34       1.0  0.07567  0.29857  0.29323  1.0000
  C   C35       1.0  0.07538  0.31329  0.28029  1.0000
  C   C36       1.0  0.08839  0.32406  0.26192  1.0000
  C   C37       1.0  0.10168  0.32001  0.25594  1.0000
  C   C38       1.0  0.10215  0.30553  0.26958  1.0000
  C   C39       1.0  0.08931  0.29499  0.28856  1.0000
  H   H44       1.0  0.06491  0.31620  0.28389  1.0000
  H   H45       1.0  0.08785  0.33510  0.25124  1.0000
  H   H46       1.0  0.11240  0.30233  0.26512  1.0000
  H   H47       1.0  0.08985  0.28393  0.29893  1.0000
  C   C40       1.0  0.09456  0.24292  0.45463  1.0000
  C   C41       1.0  0.09036  0.22563  0.45495  1.0000
  C   C42       1.0  0.09575  0.21838  0.48006  1.0000
  S   S30       1.0  0.20660  0.05443  0.40163  1.0000
  H   H48       1.0  0.11954  0.19458  0.15384  1.0000
  C   C43       1.0  0.10440  0.25284  0.47921  1.0000
  H   H49       1.0  0.08297  0.21785  0.43595  1.0000
  C   C44       1.0  0.04538  0.42845  0.26446  1.0000
  H   H50       1.0  0.18691  0.09578  0.38447  1.0000
  N   N2        1.0  0.14055  0.19222  0.17200  1.0000
  C   C45       1.0  0.11534  0.23685  0.21721  1.0000
  C   C46       1.0  0.10228  0.22493  0.20155  1.0000
  C   C47       1.0  0.08749  0.21799  0.21810  1.0000
  C   C48       1.0  0.08559  0.22322  0.24999  1.0000
  C   C49       1.0  0.09861  0.23532  0.26529  1.0000
  C   C50       1.0  0.11343  0.24198  0.24908  1.0000
  H   H51       1.0  0.10364  0.22081  0.17706  1.0000
  H   H52       1.0  0.07747  0.20855  0.20617  1.0000
  H   H53       1.0  0.09742  0.23923  0.28999  1.0000
  H   H54       1.0  0.12353  0.25106  0.26146  1.0000
  C   C51       1.0  0.99242  0.20200  0.37811  1.0000
  C   C52       1.0  0.97971  0.19568  0.40072  1.0000
  H   H55       1.0  0.04638  0.24405  0.20768  1.0000
  C   C53       1.0  0.98928  0.19851  0.34501  1.0000
  H   H56       1.0  0.98198  0.19819  0.42640  1.0000
  H   H57       1.0  0.06354  0.24376  0.25273  1.0000
  S   S31       1.0  0.20560  0.40820  0.02950  1.0000
  H   H58       1.0  0.11997  0.17412  0.14890  1.0000
  H   H59       1.0  0.18158  0.40034  0.26902  1.0000
  C   C54       1.0  0.15259  0.32311  0.20085  1.0000
  H   H60       1.0  0.07758  0.44814  0.31175  1.0000
  H   H61       1.0  0.05864  0.43245  0.32339  1.0000
  N   N3        1.0  0.07062  0.26115  0.21351  1.0000
  C   C55       1.0  0.07726  0.25091  0.19362  1.0000
  C   C56       1.0  0.08034  0.27904  0.20854  1.0000
  C   C57       1.0  0.07081  0.25714  0.24818  1.0000
  H   H62       1.0  0.06867  0.44515  0.22340  1.0000
  C   C58       1.0  0.18581  0.08695  0.40454  1.0000
  C   C59       1.0  0.18447  0.10666  0.44569  1.0000
  N   N4        1.0  0.15479  0.32710  0.16583  1.0000
  H   H63       1.0  0.21151  0.11505  0.40855  1.0000
  H   H64       1.0  0.17160  0.09922  0.45036  1.0000
  H   H65       1.0  0.18880  0.33379  0.08264  1.0000
  H   H66       1.0  0.13217  0.19079  0.12309  1.0000
  C   C60       1.0  0.20039  0.30961  0.01320  1.0000
  H   H67       1.0  0.19133  0.40291  0.23009  1.0000
  C   C61       1.0  0.04209  0.23989  0.46511  1.0000
  C   C62       1.0  0.20989  0.10627  0.42895  1.0000
  C   C63       1.0  0.07074  0.44956  0.24909  1.0000
  H   H68       1.0  0.19933  0.37344  0.12616  1.0000
  H   H69       1.0  0.08384  0.45495  0.25268  1.0000
  H   H70       1.0  0.13327  0.18003  0.48620  1.0000
  H   H71       1.0  0.21354  0.34636  0.39246  1.0000
  H   H72       1.0  0.15888  0.31494  0.20776  1.0000
  S   S32       1.0  0.11201  0.24770  0.04319  1.0000
  H   H73       1.0  0.19018  0.32264  0.37062  1.0000
  H   H74       1.0  0.17151  0.21700  0.47967  1.0000
  C   C64       1.0  0.18603  0.31920  0.39614  1.0000
  C   C65       1.0  0.18446  0.34600  0.40654  1.0000
  C   C66       1.0  0.20052  0.33560  0.03588  1.0000
  H   H75       1.0  0.97144  0.18617  0.30906  1.0000
  S   S33       1.0  0.06358  0.47138  0.18383  1.0000
  H   H76       1.0  0.21119  0.41406  0.30954  1.0000
  H   H77       1.0  0.15117  0.35001  0.17247  1.0000
  H   H78       1.0  0.15717  0.33463  0.21628  1.0000
  H   H79       1.0  0.12647  0.17437  0.20727  1.0000
  C   C67       1.0  0.19332  0.99296  0.36716  1.0000
  H   H80       1.0  0.19900  0.39561  0.26381  1.0000
  H   H81       1.0  0.18353  0.42931  0.27008  1.0000
  H   H82       1.0  0.05865  0.22377  0.43705  1.0000
  C   C68       1.0  0.14075  0.21312  0.48610  1.0000
  H   H83       1.0  0.03991  0.43791  0.26702  1.0000
  H   H84       1.0  0.19902  0.17842  0.09818  1.0000
  H   H85       1.0  0.17121  0.34049  0.40687  1.0000
  C   C69       1.0  0.21453  0.09682  0.02907  1.0000
  H   H86       1.0  0.02746  0.20129  0.49832  1.0000
  H   H87       1.0  0.18421  0.22347  0.14679  1.0000
  H   H88       1.0  0.03798  0.21207  0.42949  1.0000
  H   H89       1.0  0.09235  0.20500  0.48038  1.0000
  C   C70       1.0  0.06931  0.42287  0.26798  1.0000
  H   H90       1.0  0.18852  0.35011  0.38127  1.0000
  C   C71       1.0  0.04722  0.21561  0.44862  1.0000
  H   H91       1.0  0.18918  0.33987  0.46836  1.0000
  H   H92       1.0  0.06719  0.41716  0.24316  1.0000
  H   H93       1.0  0.01784  0.21020  0.47097  1.0000
  C   C72       1.0  0.20027  0.19362  0.14085  1.0000
  C   C73       1.0  0.18549  0.32894  0.45141  1.0000
  H   H94       1.0  0.13782  0.27922  0.04095  1.0000
  C   C74       1.0  0.19357  0.37959  0.34095  1.0000
  H   H95       1.0  0.18854  0.28767  0.04221  1.0000
  N   N5        1.0  0.19117  0.33405  0.41784  1.0000
  H   H96       1.0  0.19091  0.30995  0.40410  1.0000
  H   H97       1.0  0.03881  0.24673  0.48532  1.0000
  C   C75       1.0  0.15083  0.18299  0.16363  1.0000
  C   C76       1.0  0.19948  0.38724  0.37101  1.0000
  H   H98       1.0  0.20382  0.34893  0.03417  1.0000
  C   C77       1.0  0.19591  0.20635  0.15429  1.0000
  H   H99       1.0  0.21298  0.35326  0.43346  1.0000
  H   H100      1.0  0.08243  0.42810  0.27155  1.0000
  C   C78       1.0  0.14645  0.33816  0.15806  1.0000
  C   C79       1.0  0.17196  0.33565  0.15810  1.0000
  H   H101      1.0  0.20470  0.08681  0.04035  1.0000
  H   H102      1.0  0.05379  0.24843  0.45484  1.0000
  H   H103      1.0  0.14788  0.34156  0.13189  1.0000
  H   H104      1.0  0.13346  0.33219  0.16382  1.0000
  H   H105      1.0  0.14272  0.21770  0.17708  1.0000
  H   H106      1.0  0.16021  0.21425  0.18763  1.0000
  C   C80       1.0  0.15006  0.21035  0.17056  1.0000
  C   C81       1.0  0.19148  0.08364  0.46053  1.0000
  H   H107      1.0  0.19051  0.32009  0.46087  1.0000
  N   N6        1.0  0.06255  0.43581  0.27180  1.0000
  H   H108      1.0  0.19485  0.42059  0.31519  1.0000
  H   H109      1.0  0.16126  0.18656  0.17996  1.0000
  H   H110      1.0  0.12619  0.19489  0.21231  1.0000
  Fe  Fe16      1.0  0.04266  0.46993  0.21565  1.0000
  C   C82       1.0  0.96810  0.40293  0.11393  1.0000
  C   C83       1.0  0.18769  0.98896  0.39912  1.0000
  H   H111      1.0  0.18542  0.11610  0.42698  1.0000
  C   C84       1.0  0.13387  0.18794  0.20525  1.0000
  C   C85       1.0  0.02725  0.21328  0.48979  1.0000
  H   H112      1.0  0.19941  0.21077  0.17885  1.0000
  H   H113      1.0  0.18955  0.11352  0.46866  1.0000
  H   H114      1.0  0.15561  0.18556  0.13823  1.0000
  H   H115      1.0  0.19672  0.40300  0.40977  1.0000
  H   H116      1.0  0.15406  0.30277  0.15209  1.0000
  C   C86       1.0  0.14818  0.31151  0.14635  1.0000
  H   H117      1.0  0.97008  0.39159  0.10890  1.0000
  H   H118      1.0  0.19269  0.43198  0.23035  1.0000
  H   H119      1.0  0.03307  0.23744  0.44568  1.0000
  H   H120      1.0  0.13518  0.30485  0.15109  1.0000
  H   H121      1.0  0.15002  0.31399  0.11979  1.0000
  H   H122      1.0  0.15505  0.21408  0.14569  1.0000
  H   H123      1.0  0.14419  0.16926  0.16538  1.0000
  C   C87       1.0  0.12745  0.18771  0.14846  1.0000
  S   S34       1.0  0.20828  0.37680  0.48034  1.0000
  H   H124      1.0  0.18383  0.41545  0.07291  1.0000
  N   N7        1.0  0.19290  0.09587  0.43492  1.0000
  H   H125      1.0  0.04858  0.20402  0.45624  1.0000
  S   S35       1.0  0.21113  0.18497  0.16523  1.0000
  C   C88       1.0  0.19344  0.40442  0.25677  1.0000
  H   H126      1.0  0.14530  0.21586  0.46066  1.0000
  H   H127      1.0  0.17228  0.32276  0.45292  1.0000
  H   H128      1.0  0.15088  0.18994  0.46155  1.0000
  H   H129      1.0  0.08911  0.25366  0.00452  1.0000
  H   H130      1.0  0.96729  0.42640  0.05107  1.0000
  H   H131      1.0  0.15898  0.28828  0.03646  1.0000
  H   H132      1.0  0.14779  0.30130  0.03531  1.0000
  H   H133      1.0  0.20239  0.44611  0.26313  1.0000
  N   N8        1.0  0.20343  0.42183  0.26579  1.0000
  C   C89       1.0  0.20474  0.32691  0.01075  1.0000
  H   H134      1.0  0.19672  0.08993  0.48384  1.0000
  H   H135      1.0  0.19786  0.07540  0.45336  1.0000
  C   C90       1.0  0.14620  0.18803  0.48704  1.0000
  H   H136      1.0  0.96765  0.46569  0.39895  1.0000
  H   H137      1.0  0.96709  0.47978  0.34612  1.0000
  S   S36       1.0  0.03172  0.48013  0.17767  1.0000
  H   H138      1.0  0.97452  0.45405  0.02551  1.0000
  C   C91       1.0  0.14778  0.28894  0.02772  1.0000
  H   H139      1.0  0.21431  0.33354  0.42600  1.0000
  H   H140      1.0  0.21448  0.43585  0.30867  1.0000
  H   H141      1.0  0.19164  0.98356  0.31784  1.0000
  H   H142      1.0  0.15222  0.18095  0.49987  1.0000
  H   H143      1.0  0.21548  0.11376  0.45090  1.0000
  Fe  Fe17      1.0  0.05750  0.22911  0.80674  1.0000
  S   S37       1.0  0.04305  0.24459  0.81681  1.0000
  S   S38       1.0  0.06087  0.22088  0.75531  1.0000
  Fe  Fe18      1.0  0.06540  0.22794  0.87810  1.0000
  S   S39       1.0  0.05167  0.24346  0.89422  1.0000
  S   S40       1.0  0.08115  0.21798  0.90629  1.0000
  Fe  Fe19      1.0  0.03244  0.22784  0.85954  1.0000
  S   S41       1.0  0.00692  0.22440  0.87511  1.0000
  Fe  Fe20      1.0  0.06271  0.25912  0.85052  1.0000
  S   S42       1.0  0.07220  0.28720  0.85452  1.0000
  S   S43       1.0  0.04539  0.21087  0.84665  1.0000
  S   S44       1.0  0.07802  0.24501  0.83730  1.0000
  N   N9        1.0  0.14318  0.40360  0.60356  1.0000
  N   N10       1.0  0.19764  0.15700  0.75253  1.0000
  C   C92       1.0  0.97413  0.41087  0.60898  1.0000
  C   C93       1.0  0.19355  0.15016  0.71921  1.0000
  H   H144      1.0  0.12943  0.19348  0.53790  1.0000
  S   S45       1.0  0.11190  0.21884  0.53614  1.0000
  Fe  Fe21      1.0  0.15528  0.26852  0.59267  1.0000
  S   S46       1.0  0.15525  0.24857  0.55697  1.0000
  S   S47       1.0  0.16221  0.29637  0.58671  1.0000
  Fe  Fe22      1.0  0.13795  0.24376  0.64483  1.0000
  S   S48       1.0  0.13610  0.22138  0.61404  1.0000
  S   S49       1.0  0.13122  0.24610  0.69759  1.0000
  Fe  Fe23      1.0  0.16157  0.23606  0.59927  1.0000
  S   S50       1.0  0.17774  0.22217  0.58490  1.0000
  Fe  Fe24      1.0  0.12994  0.23467  0.57311  1.0000
  C   C94       1.0  0.13072  0.28600  0.98194  1.0000
  S   S51       1.0  0.16405  0.25759  0.63340  1.0000
  S   S52       1.0  0.12930  0.25553  0.60552  1.0000
  Fe  Fe25      1.0  0.12882  0.39126  0.71257  1.0000
  S   S53       1.0  0.12487  0.36841  0.68151  1.0000
  S   S54       1.0  0.12411  0.41322  0.69146  1.0000
  Fe  Fe26      1.0  0.14487  0.37911  0.76570  1.0000
  S   S55       1.0  0.14225  0.35569  0.73799  1.0000
  S   S56       1.0  0.15294  0.38165  0.81831  1.0000
  Fe  Fe27      1.0  0.14980  0.37179  0.69376  1.0000
  S   S57       1.0  0.16327  0.36358  0.65430  1.0000
  Fe  Fe28      1.0  0.11763  0.35386  0.72773  1.0000
  S   S58       1.0  0.09839  0.32788  0.72475  1.0000
  S   S59       1.0  0.15461  0.39566  0.72221  1.0000
  S   S60       1.0  0.11941  0.37635  0.75813  1.0000
  Fe  Fe29      1.0  0.02059  0.45332  0.67382  1.0000
  S   S61       1.0  0.03359  0.44296  0.63847  1.0000
  S   S62       1.0  0.99389  0.44397  0.68284  1.0000
  C   C95       1.0  0.15271  0.41147  0.63246  1.0000
  C   C96       1.0  0.19381  0.33450  0.53531  1.0000
  Fe  Fe30      1.0  0.05241  0.44865  0.67686  1.0000
  S   S63       1.0  0.06057  0.42855  0.69561  1.0000
  H   H145      1.0  0.14942  0.40283  0.65343  1.0000
  S   S64       1.0  0.03820  0.45717  0.71382  1.0000
  H   H146      1.0  0.17270  0.20798  0.51812  1.0000
  C   C97       1.0  0.19746  0.39743  0.57800  1.0000
  S   S65       1.0  0.21076  0.07483  0.97764  1.0000
  C   C98       1.0  0.17241  0.38467  0.83038  1.0000
  C   C99       1.0  0.17436  0.37735  0.85930  1.0000
  C   C100      1.0  0.18960  0.38133  0.87226  1.0000
  C   C101      1.0  0.20299  0.39301  0.85685  1.0000
  C   C102      1.0  0.20110  0.39995  0.82742  1.0000
  C   C103      1.0  0.18588  0.39574  0.81411  1.0000
  H   H147      1.0  0.16399  0.36872  0.87192  1.0000
  H   H148      1.0  0.19098  0.37553  0.89435  1.0000
  H   H149      1.0  0.99695  0.19145  0.84250  1.0000
  H   H150      1.0  0.18451  0.40158  0.79201  1.0000
  H   H151      1.0  0.20486  0.42961  0.92928  1.0000
  C   C104      1.0  0.19022  0.38020  0.57276  1.0000
  C   C105      1.0  0.17963  0.37004  0.59624  1.0000
  C   C106      1.0  0.17623  0.37699  0.62519  1.0000
  C   C107      1.0  0.18341  0.39422  0.63046  1.0000
  H   H152      1.0  0.19799  0.05474  0.79288  1.0000
  H   H153      1.0  0.19271  0.37473  0.55051  1.0000
  H   H154      1.0  0.17397  0.35674  0.59185  1.0000
  H   H155      1.0  0.12191  0.39086  0.63186  1.0000
  H   H156      1.0  0.20520  0.41572  0.96079  1.0000
  C   C108      1.0  0.07826  0.42433  0.69279  1.0000
  C   C109      1.0  0.07838  0.40994  0.70775  1.0000
  C   C110      1.0  0.09224  0.40632  0.70755  1.0000
  C   C111      1.0  0.10624  0.41712  0.69244  1.0000
  C   C112      1.0  0.10615  0.43156  0.67756  1.0000
  C   C113      1.0  0.09226  0.43518  0.67773  1.0000
  H   H157      1.0  0.06766  0.40148  0.71962  1.0000
  H   H158      1.0  0.09209  0.39518  0.71911  1.0000
  H   H159      1.0  0.11690  0.44003  0.66584  1.0000
  H   H160      1.0  0.09241  0.44633  0.66624  1.0000
  H   H161      1.0  0.18431  0.43563  0.96251  1.0000
  C   C114      1.0  0.98521  0.42146  0.63113  1.0000
  C   C115      1.0  0.98022  0.42983  0.65568  1.0000
  H   H162      1.0  0.20901  0.02610  0.73709  1.0000
  H   H163      1.0  0.10461  0.21213  0.94438  1.0000
  S   S66       1.0  0.04685  0.47445  0.56861  1.0000
  H   H164      1.0  0.99759  0.42306  0.62930  1.0000
  H   H165      1.0  0.18805  0.33958  0.61629  1.0000
  C   C116      1.0  0.17831  0.30801  0.56127  1.0000
  C   C117      1.0  0.18925  0.30147  0.54946  1.0000
  C   C118      1.0  0.20621  0.14803  0.76901  1.0000
  H   H166      1.0  0.18109  0.39964  0.65295  1.0000
  H   H167      1.0  0.02468  0.29983  0.87625  1.0000
  H   H168      1.0  0.19266  0.33483  0.65600  1.0000
  H   H169      1.0  0.18762  0.28879  0.55510  1.0000
  C   C119      1.0  0.20789  0.17495  0.75084  1.0000
  H   H170      1.0  0.19547  0.34719  0.52986  1.0000
  H   H171      1.0  0.12076  0.27580  0.99425  1.0000
  H   H172      1.0  0.99740  0.46764  0.63044  1.0000
  C   C120      1.0  0.19540  0.20297  0.59360  1.0000
  C   C121      1.0  0.18738  0.21215  0.60920  1.0000
  C   C122      1.0  0.18747  0.21326  0.64323  1.0000
  C   C123      1.0  0.14758  0.27031  0.98313  1.0000
  C   C124      1.0  0.17444  0.41338  0.91285  1.0000
  C   C125      1.0  0.20376  0.19636  0.64568  1.0000
  H   H173      1.0  0.18143  0.22031  0.65562  1.0000
  H   H174      1.0  0.17487  0.14143  0.77253  1.0000
  H   H175      1.0  0.11695  0.22343  0.99769  1.0000
  N   N11       1.0  0.18185  0.41153  0.94344  1.0000
  H   H176      1.0  0.00984  0.29292  0.84520  1.0000
  C   C126      1.0  0.20494  0.32806  0.52406  1.0000
  H   H177      1.0  0.18548  0.15987  0.79624  1.0000
  C   C127      1.0  0.19178  0.99418  0.86406  1.0000
  H   H178      1.0  0.10257  0.46056  0.76210  1.0000
  H   H179      1.0  0.15885  0.31247  0.98200  1.0000
  H   H180      1.0  0.18031  0.39212  0.97663  1.0000
  H   H181      1.0  0.18973  0.99891  0.91521  1.0000
  C   C128      1.0  0.08009  0.29825  0.81842  1.0000
  C   C129      1.0  0.08916  0.31547  0.82012  1.0000
  C   C130      1.0  0.09514  0.32463  0.79158  1.0000
  C   C131      1.0  0.09175  0.31667  0.76113  1.0000
  C   C132      1.0  0.08267  0.29944  0.75944  1.0000
  C   C133      1.0  0.07700  0.29022  0.78799  1.0000
  H   H182      1.0  0.09161  0.32175  0.84358  1.0000
  H   H183      1.0  0.10215  0.33789  0.79314  1.0000
  H   H184      1.0  0.07999  0.29320  0.73596  1.0000
  H   H185      1.0  0.07005  0.27695  0.78639  1.0000
  C   C134      1.0  0.09002  0.22668  0.94391  1.0000
  C   C135      1.0  0.08585  0.23854  0.96091  1.0000
  H   H186      1.0  0.21141  0.40893  0.81525  1.0000
  C   C136      1.0  0.19576  0.34488  0.63766  1.0000
  S   S67       1.0  0.20550  0.01469  0.85403  1.0000
  C   C137      1.0  0.10135  0.22136  0.95729  1.0000
  H   H187      1.0  0.07711  0.24270  0.95097  1.0000
  H   H188      1.0  0.20939  0.06199  0.73850  1.0000
  H   H189      1.0  0.17668  0.38548  0.93486  1.0000
  H   H190      1.0  0.97512  0.22121  0.89265  1.0000
  C   C138      1.0  0.11127  0.24014  0.71081  1.0000
  C   C139      1.0  0.10806  0.24747  0.73939  1.0000
  C   C140      1.0  0.09251  0.24220  0.75223  1.0000
  C   C141      1.0  0.08009  0.22918  0.73723  1.0000
  C   C142      1.0  0.08322  0.22214  0.70813  1.0000
  C   C143      1.0  0.09876  0.22770  0.69476  1.0000
  H   H191      1.0  0.11767  0.25722  0.75174  1.0000
  H   H192      1.0  0.09017  0.24817  0.77385  1.0000
  H   H193      1.0  0.07365  0.21215  0.69620  1.0000
  H   H194      1.0  0.10114  0.22197  0.67270  1.0000
  C   C144      1.0  0.98801  0.20796  0.86812  1.0000
  C   C145      1.0  0.20844  0.05194  0.79980  1.0000
  N   N12       1.0  0.14634  0.28635  0.99207  1.0000
  C   C146      1.0  0.98643  0.19315  0.85164  1.0000
  H   H195      1.0  0.18601  0.13657  0.71932  1.0000
  C   C147      1.0  0.01024  0.26229  0.83686  1.0000
  H   H196      1.0  0.01524  0.25329  0.82686  1.0000
  C   C148      1.0  0.98929  0.46590  0.60954  1.0000
  H   H197      1.0  0.18724  0.15674  0.70577  1.0000
  H   H198      1.0  0.20968  0.18817  0.59927  1.0000
  C   C149      1.0  0.01554  0.28859  0.86478  1.0000
  C   C150      1.0  0.19918  0.41658  0.93806  1.0000
  H   H199      1.0  0.05527  0.45828  0.77997  1.0000
  C   C151      1.0  0.09268  0.24473  0.99130  1.0000
  H   H200      1.0  0.03979  0.28246  0.89020  1.0000
  C   C152      1.0  0.20347  0.19505  0.61168  1.0000
  N   N13       1.0  0.09953  0.20923  0.81710  1.0000
  C   C153      1.0  0.10766  0.22688  0.82732  1.0000
  C   C154      1.0  0.08216  0.20489  0.81636  1.0000
  C   C155      1.0  0.10293  0.19842  0.84058  1.0000
  C   C156      1.0  0.10529  0.20677  0.78422  1.0000
  H   H201      1.0  0.12078  0.23055  0.82842  1.0000
  H   H202      1.0  0.10341  0.22923  0.85185  1.0000
  H   H203      1.0  0.10542  0.23540  0.81008  1.0000
  H   H204      1.0  0.07562  0.19189  0.80750  1.0000
  H   H205      1.0  0.07728  0.20606  0.84091  1.0000
  H   H206      1.0  0.07922  0.21326  0.80000  1.0000
  H   H207      1.0  0.09679  0.18499  0.83391  1.0000
  H   H208      1.0  0.09875  0.20017  0.86562  1.0000
  H   H209      1.0  0.11592  0.20126  0.84175  1.0000
  H   H210      1.0  0.10253  0.21452  0.76591  1.0000
  H   H211      1.0  0.09955  0.19356  0.77584  1.0000
  H   H212      1.0  0.11842  0.21031  0.78352  1.0000
  N   N14       1.0  0.07991  0.46254  0.77081  1.0000
  H   H213      1.0  0.97453  0.44475  0.98606  1.0000
  C   C157      1.0  0.08999  0.45266  0.76849  1.0000
  S   S68       1.0  0.21420  0.18714  0.66980  1.0000
  C   C158      1.0  0.06327  0.45131  0.77804  1.0000
  H   H214      1.0  0.21108  0.30643  0.52211  1.0000
  C   C159      1.0  0.98646  0.46411  0.55120  1.0000
  H   H215      1.0  0.17690  0.40594  0.89262  1.0000
  C   C160      1.0  0.08066  0.47098  0.73957  1.0000
  H   H216      1.0  0.08994  0.44630  0.79175  1.0000
  H   H217      1.0  0.08566  0.44275  0.74935  1.0000
  H   H218      1.0  0.07306  0.47844  0.74019  1.0000
  S   S69       1.0  0.03235  0.47958  0.65625  1.0000
  H   H219      1.0  0.07654  0.46178  0.71916  1.0000
  H   H220      1.0  0.19239  0.35501  0.64823  1.0000
  H   H221      1.0  0.06227  0.44460  0.80128  1.0000
  H   H222      1.0  0.05849  0.44165  0.75854  1.0000
  H   H223      1.0  0.97946  0.45345  0.61221  1.0000
  C   C161      1.0  0.00508  0.45459  0.57639  1.0000
  H   H224      1.0  0.00624  0.28243  0.88362  1.0000
  C   C162      1.0  0.08571  0.47521  0.79712  1.0000
  H   H225      1.0  0.14847  0.19427  0.55167  1.0000
  H   H226      1.0  0.21283  0.07634  0.55805  1.0000
  S   S70       1.0  0.20945  0.11718  0.71721  1.0000
  H   H227      1.0  0.20954  0.15284  0.79420  1.0000
  H   H228      1.0  0.17613  0.16147  0.75905  1.0000
  C   C163      1.0  0.19567  0.20548  0.66129  1.0000
  H   H229      1.0  0.12906  0.28382  0.95523  1.0000
  Fe  Fe31      1.0  0.04652  0.46967  0.62297  1.0000
  H   H230      1.0  0.20187  0.18207  0.73810  1.0000
  H   H231      1.0  0.97018  0.16908  0.83429  1.0000
  H   H232      1.0  0.14612  0.26772  0.95651  1.0000
  N   N15       1.0  0.99783  0.46717  0.57806  1.0000
  H   H233      1.0  0.98395  0.47544  0.61208  1.0000
  N   N16       1.0  0.12580  0.30135  0.68549  1.0000
  C   C164      1.0  0.11349  0.30515  0.66839  1.0000
  C   C165      1.0  0.14168  0.31150  0.67173  1.0000
  C   C166      1.0  0.12278  0.28344  0.68129  1.0000
  C   C167      1.0  0.12521  0.30532  0.72054  1.0000
  H   H234      1.0  0.10140  0.29810  0.67883  1.0000
  H   H235      1.0  0.11333  0.30198  0.64199  1.0000
  H   H236      1.0  0.11562  0.31865  0.67068  1.0000
  H   H237      1.0  0.14255  0.30872  0.64529  1.0000
  H   H238      1.0  0.14435  0.32512  0.67435  1.0000
  H   H239      1.0  0.15126  0.30896  0.68409  1.0000
  H   H240      1.0  0.13182  0.28012  0.69399  1.0000
  H   H241      1.0  0.12323  0.27997  0.65517  1.0000
  H   H242      1.0  0.11087  0.27536  0.69128  1.0000
  H   H243      1.0  0.11336  0.29790  0.73163  1.0000
  H   H244      1.0  0.12725  0.31870  0.72459  1.0000
  H   H245      1.0  0.13436  0.30271  0.73432  1.0000
  N   N17       1.0  0.02274  0.27707  0.85173  1.0000
  H   H246      1.0  0.02994  0.28997  0.80621  1.0000
  H   H247      1.0  0.20442  0.15164  0.70473  1.0000
  C   C168      1.0  0.03015  0.27170  0.87854  1.0000
  H   H248      1.0  0.97809  0.40437  0.59016  1.0000
  S   S71       1.0  0.20642  0.37722  0.95948  1.0000
  C   C169      1.0  0.97119  0.18047  0.84702  1.0000
  H   H249      1.0  0.12938  0.29792  0.98819  1.0000
  H   H250      1.0  0.19846  0.09804  0.77554  1.0000
  C   C170      1.0  0.17483  0.39394  0.95377  1.0000
  H   H251      1.0  0.03568  0.26306  0.86945  1.0000
  H   H252      1.0  0.99250  0.46481  0.52709  1.0000
  H   H253      1.0  0.15935  0.27026  0.98989  1.0000
  H   H254      1.0  0.15852  0.29863  0.94860  1.0000
  H   H255      1.0  0.17916  0.42657  0.90479  1.0000
  H   H256      1.0  0.98082  0.47343  0.55161  1.0000
  H   H257      1.0  0.00429  0.26579  0.81659  1.0000
  C   C171      1.0  0.18592  0.98971  0.89573  1.0000
  H   H258      1.0  0.16177  0.38971  0.95827  1.0000
  H   H259      1.0  0.19551  0.20207  0.56732  1.0000
  C   C172      1.0  0.16619  0.21432  0.50456  1.0000
  H   H260      1.0  0.19887  0.13441  0.77043  1.0000
  H   H261      1.0  0.02125  0.26491  0.89760  1.0000
  H   H262      1.0  0.17120  0.30067  0.98259  1.0000
  C   C173      1.0  0.97410  0.20986  0.87981  1.0000
  H   H263      1.0  0.19092  0.98525  0.81449  1.0000
  H   H264      1.0  0.97673  0.45148  0.55296  1.0000
  C   C174      1.0  0.18286  0.15486  0.77095  1.0000
  S   S72       1.0  0.21126  0.06104  0.88283  1.0000
  H   H265      1.0  0.15072  0.42284  0.64061  1.0000
  H   H266      1.0  0.20179  0.40845  0.91951  1.0000
  C   C175      1.0  0.03503  0.28572  0.82690  1.0000
  H   H267      1.0  0.19585  0.20666  0.68754  1.0000
  C   C176      1.0  0.20403  0.03061  0.75851  1.0000
  H   H268      1.0  0.11746  0.25344  0.52287  1.0000
  S   S73       1.0  0.21079  0.41052  0.54892  1.0000
  H   H269      1.0  0.16567  0.41515  0.62750  1.0000
  N   N18       1.0  0.14891  0.20410  0.50374  1.0000
  H   H270      1.0  0.14665  0.42710  0.58201  1.0000
  H   H271      1.0  0.19952  0.41775  0.61100  1.0000
  C   C177      1.0  0.14831  0.41530  0.57607  1.0000
  H   H272      1.0  0.99588  0.44168  0.57705  1.0000
  C   C178      1.0  0.19390  0.40442  0.60677  1.0000
  H   H273      1.0  0.01317  0.45602  0.59717  1.0000
  H   H274      1.0  0.14271  0.37937  0.61547  1.0000
  C   C179      1.0  0.14250  0.20091  0.53738  1.0000
  H   H275      1.0  0.04082  0.27745  0.81668  1.0000
  S   S74       1.0  0.06651  0.47463  0.65846  1.0000
  C   C180      1.0  0.17898  0.42223  0.96922  1.0000
  H   H276      1.0  0.16115  0.41863  0.56988  1.0000
  C   C181      1.0  0.14561  0.38815  0.59469  1.0000
  C   C182      1.0  0.18054  0.32449  0.55387  1.0000
  H   H277      1.0  0.12390  0.41093  0.61818  1.0000
  H   H278      1.0  0.21123  0.18062  0.77547  1.0000
  C   C183      1.0  0.12613  0.39956  0.61104  1.0000
  H   H279      1.0  0.00093  0.25530  0.85509  1.0000
  H   H280      1.0  0.01235  0.45575  0.55371  1.0000
  C   C184      1.0  0.20253  0.31149  0.53087  1.0000
  H   H281      1.0  0.17199  0.32953  0.56269  1.0000
  H   H282      1.0  0.11851  0.39359  0.58989  1.0000
  H   H283      1.0  0.15821  0.39088  0.58736  1.0000
  H   H284      1.0  0.14139  0.40976  0.55380  1.0000
  H   H285      1.0  0.13804  0.38144  0.57394  1.0000
  H   H286      1.0  0.16602  0.41883  0.97381  1.0000
  S   S75       1.0  0.21154  0.14314  0.63959  1.0000
  C   C185      1.0  0.15926  0.30012  0.97556  1.0000
  H   H287      1.0  0.04475  0.29683  0.83742  1.0000
  C   C186      1.0  0.10836  0.22773  0.98753  1.0000
  H   H288      1.0  0.16865  0.22650  0.51724  1.0000
  H   H289      1.0  0.19290  0.03189  0.75086  1.0000
  C   C187      1.0  0.21118  0.10136  0.77342  1.0000
  H   H290      1.0  0.20063  0.02069  0.77733  1.0000
  H   H291      1.0  0.02355  0.21936  0.51073  1.0000
  H   H292      1.0  0.20434  0.04216  0.81877  1.0000
  H   H293      1.0  0.14445  0.21277  0.55059  1.0000
  H   H294      1.0  0.05218  0.23423  0.52340  1.0000
  H   H295      1.0  0.16127  0.40907  0.91549  1.0000
  H   H296      1.0  0.21246  0.08886  0.81765  1.0000
  H   H297      1.0  0.08515  0.46929  0.82114  1.0000
  H   H298      1.0  0.18434  0.42095  0.99267  1.0000
  H   H299      1.0  0.21364  0.37507  0.61327  1.0000
  C   C188      1.0  0.10994  0.24563  0.50404  1.0000
  H   H300      1.0  0.20374  0.30287  0.99390  1.0000
  H   H301      1.0  0.05661  0.21659  0.51002  1.0000
  C   C189      1.0  0.10554  0.22835  0.50472  1.0000
  H   H302      1.0  0.20935  0.33147  0.59318  1.0000
  H   H303      1.0  0.20917  0.35953  0.58155  1.0000
  H   H304      1.0  0.09302  0.47961  0.73335  1.0000
  H   H305      1.0  0.21446  0.32718  0.63276  1.0000
  N   N19       1.0  0.21284  0.35115  0.62840  1.0000
  H   H306      1.0  0.13825  0.25970  0.99580  1.0000
  S   S76       1.0  0.21505  0.33714  0.97564  1.0000
  C   C190      1.0  0.05518  0.22806  0.50172  1.0000
  Fe  Fe32      1.0  0.14906  0.91435  0.36678  1.0000
  S   S77       1.0  0.15810  0.89586  0.38738  1.0000
  S   S78       1.0  0.15774  0.93978  0.39332  1.0000
  Fe  Fe33      1.0  0.12857  0.88815  0.31696  1.0000
  S   S79       1.0  0.13707  0.86859  0.33344  1.0000
  S   S80       1.0  0.10889  0.88272  0.27966  1.0000
  Fe  Fe34      1.0  0.13310  0.87675  0.38417  1.0000
  S   S81       1.0  0.12163  0.85482  0.41846  1.0000
  Fe  Fe35      1.0  0.16118  0.88934  0.33528  1.0000
  S   S82       1.0  0.18507  0.88797  0.32348  1.0000
  S   S83       1.0  0.12357  0.89556  0.36776  1.0000
  S   S84       1.0  0.15323  0.90861  0.31449  1.0000
  Fe  Fe36      1.0  0.06760  0.82179  0.07105  1.0000
  S   S85       1.0  0.08084  0.80969  0.09992  1.0000
  S   S86       1.0  0.08228  0.84564  0.04386  1.0000
  Fe  Fe37      1.0  0.03500  0.79912  0.10085  1.0000
  S   S87       1.0  0.04646  0.78626  0.13259  1.0000
  S   S88       1.0  0.00815  0.79175  0.09253  1.0000
  Fe  Fe38      1.0  0.06562  0.81161  0.14239  1.0000
  S   S89       1.0  0.07911  0.81740  0.19030  1.0000
  Fe  Fe39      1.0  0.06085  0.78551  0.08783  1.0000
  S   S90       1.0  0.06285  0.76050  0.07941  1.0000
  S   S91       1.0  0.05306  0.82481  0.11425  1.0000
  S   S92       1.0  0.04871  0.79729  0.05529  1.0000
  Fe  Fe40      1.0  0.02281  0.54948  0.42609  1.0000
  S   S93       1.0  0.03692  0.56610  0.38579  1.0000
  S   S94       1.0  0.99598  0.53827  0.43433  1.0000
  Fe  Fe41      1.0  0.05245  0.55184  0.46174  1.0000
  S   S95       1.0  0.06895  0.56870  0.42414  1.0000
  H   H307      1.0  0.10243  0.87443  0.00849  1.0000
  Fe  Fe42      1.0  0.05261  0.58257  0.42510  1.0000
  S   S96       1.0  0.05946  0.61080  0.41932  1.0000
  Fe  Fe43      1.0  0.05232  0.55116  0.38777  1.0000
  S   S97       1.0  0.06371  0.54504  0.34213  1.0000
  S   S98       1.0  0.03717  0.56694  0.46534  1.0000
  S   S99       1.0  0.03706  0.53327  0.42536  1.0000
  Fe  Fe44      1.0  0.12049  0.70449  0.47318  1.0000
  S   S100      1.0  0.11782  0.71885  0.43022  1.0000
  H   H308      1.0  0.18319  0.83724  0.35857  1.0000
  H   H309      1.0  0.10329  0.52741  0.47369  1.0000
  C   C191      1.0  0.10204  0.83758  0.46835  1.0000
  H   H310      1.0  0.09107  0.55520  0.46069  1.0000
  Fe  Fe45      1.0  0.11585  0.73780  0.46637  1.0000
  H   H311      1.0  0.16714  0.81769  0.27895  1.0000
  Fe  Fe46      1.0  0.14430  0.73364  0.43364  1.0000
  S   S101      1.0  0.15603  0.73779  0.38311  1.0000
  H   H312      1.0  0.98392  0.57083  0.44945  1.0000
  H   H313      1.0  0.10124  0.64158  0.49889  1.0000
  H   H314      1.0  0.13750  0.75142  0.06376  1.0000
  H   H315      1.0  0.02610  0.51450  0.17373  1.0000
  H   H316      1.0  0.20053  0.82361  0.33466  1.0000
  C   C192      1.0  0.99969  0.57720  0.39290  1.0000
  H   H317      1.0  0.21238  0.75958  0.23196  1.0000
  H   H318      1.0  0.07259  0.53435  0.40318  1.0000
  S   S102      1.0  0.19527  0.79576  0.23785  1.0000
  C   C193      1.0  0.17194  0.75524  0.36711  1.0000
  C   C194      1.0  0.18513  0.76478  0.38566  1.0000
  C   C195      1.0  0.19856  0.77692  0.37053  1.0000
  C   C196      1.0  0.19884  0.77976  0.33692  1.0000
  C   C197      1.0  0.18534  0.77075  0.31874  1.0000
  C   C198      1.0  0.17204  0.75847  0.33372  1.0000
  H   H319      1.0  0.18527  0.76229  0.41132  1.0000
  H   H320      1.0  0.17946  0.80808  0.37410  1.0000
  H   H321      1.0  0.18523  0.77296  0.29304  1.0000
  H   H322      1.0  0.16183  0.75121  0.31930  1.0000
  C   C199      1.0  0.17427  0.75736  0.06840  1.0000
  C   C200      1.0  0.18512  0.77307  0.07884  1.0000
  C   C201      1.0  0.19120  0.77552  0.11060  1.0000
  C   C202      1.0  0.18671  0.76217  0.13213  1.0000
  C   C203      1.0  0.17582  0.74645  0.12172  1.0000
  C   C204      1.0  0.16950  0.74406  0.09008  1.0000
  H   H323      1.0  0.18090  0.93414  0.35154  1.0000
  H   H324      1.0  0.17230  0.73603  0.13816  1.0000
  H   H325      1.0  0.16120  0.73189  0.08236  1.0000
  C   C205      1.0  0.04155  0.52433  0.03853  1.0000
  C   C206      1.0  0.05812  0.52951  0.03963  1.0000
  C   C207      1.0  0.06505  0.52190  0.06119  1.0000
  C   C208      1.0  0.05551  0.50878  0.08128  1.0000
  C   C209      1.0  0.03894  0.50306  0.07899  1.0000
  C   C210      1.0  0.03202  0.51104  0.05827  1.0000
  C   C211      1.0  0.01966  0.59904  0.42336  1.0000
  H   H326      1.0  0.07788  0.52639  0.06269  1.0000
  S   S103      1.0  0.03236  0.53527  0.01586  1.0000
  H   H327      1.0  0.01919  0.50695  0.05762  1.0000
  C   C212      1.0  0.05692  0.52542  0.32183  1.0000
  C   C213      1.0  0.06310  0.52419  0.29065  1.0000
  C   C214      1.0  0.05856  0.50869  0.27424  1.0000
  C   C215      1.0  0.04791  0.49424  0.28907  1.0000
  C   C216      1.0  0.04178  0.49545  0.32032  1.0000
  C   C217      1.0  0.04613  0.51099  0.33653  1.0000
  H   H328      1.0  0.07163  0.53526  0.27935  1.0000
  H   H329      1.0  0.06372  0.50780  0.25069  1.0000
  C   C218      1.0  0.08718  0.73941  0.02256  1.0000
  H   H330      1.0  0.04133  0.51176  0.36055  1.0000
  C   C219      1.0  0.07419  0.62885  0.43774  1.0000
  C   C220      1.0  0.07656  0.64475  0.42584  1.0000
  C   C221      1.0  0.08782  0.65944  0.43993  1.0000
  C   C222      1.0  0.09680  0.65846  0.46644  1.0000
  H   H331      1.0  0.03363  0.48430  0.33204  1.0000
  C   C223      1.0  0.08326  0.62786  0.46412  1.0000
  C   C224      1.0  0.99378  0.59999  0.41588  1.0000
  C   C225      1.0  0.12808  0.75617  0.07075  1.0000
  H   H332      1.0  0.98910  0.72906  0.06609  1.0000
  C   C226      1.0  0.09441  0.64256  0.47841  1.0000
  C   C227      1.0  0.98740  0.53525  0.36968  1.0000
  C   C228      1.0  0.98229  0.53286  0.40218  1.0000
  H   H333      1.0  0.17766  0.84084  0.31880  1.0000
  H   H334      1.0  0.09860  0.53424  0.38598  1.0000
  H   H335      1.0  0.99999  0.54016  0.36371  1.0000
  C   C229      1.0  0.09754  0.55116  0.44106  1.0000
  C   C230      1.0  0.98986  0.77723  0.10932  1.0000
  H   H336      1.0  0.19530  0.82758  0.29462  1.0000
  C   C231      1.0  0.98923  0.76808  0.13734  1.0000
  C   C232      1.0  0.08991  0.84780  0.00327  1.0000
  H   H337      1.0  0.00010  0.76992  0.14995  1.0000
  C   C233      1.0  0.07407  0.75677  0.04693  1.0000
  C   C234      1.0  0.07866  0.74310  0.04848  1.0000
  S   S104      1.0  0.16728  0.75520  0.02792  1.0000
  C   C235      1.0  0.19207  0.93469  0.33920  1.0000
  H   H338      1.0  0.04807  0.51677  0.21095  1.0000
  H   H339      1.0  0.11181  0.53169  0.41544  1.0000
  H   H340      1.0  0.07557  0.73532  0.06982  1.0000
  C   C236      1.0  0.09905  0.52808  0.40928  1.0000
  H   H341      1.0  0.08159  0.61578  0.47370  1.0000
  H   H342      1.0  0.03142  0.49282  0.09394  1.0000
  H   H343      1.0  0.21229  0.96476  0.35844  1.0000
  C   C237      1.0  0.20046  0.85833  0.26643  1.0000
  C   C238      1.0  0.19980  0.87039  0.28918  1.0000
  C   C239      1.0  0.18574  0.87331  0.29379  1.0000
  C   C240      1.0  0.17240  0.86425  0.27526  1.0000
  H   H344      1.0  0.11674  0.74757  0.05979  1.0000
  H   H345      1.0  0.15163  0.80657  0.30755  1.0000
  H   H346      1.0  0.98017  0.53341  0.31960  1.0000
  H   H347      1.0  0.16154  0.86647  0.27851  1.0000
  C   C241      1.0  0.10108  0.86472  0.25425  1.0000
  C   C242      1.0  0.08803  0.86270  0.23446  1.0000
  C   C243      1.0  0.08117  0.84836  0.21458  1.0000
  C   C244      1.0  0.08734  0.83588  0.21427  1.0000
  C   C245      1.0  0.10035  0.83788  0.23417  1.0000
  C   C246      1.0  0.10730  0.85228  0.25379  1.0000
  H   H348      1.0  0.08308  0.87222  0.23479  1.0000
  H   H349      1.0  0.07093  0.84683  0.20001  1.0000
  H   H350      1.0  0.10518  0.82827  0.23419  1.0000
  H   H351      1.0  0.11745  0.85372  0.26855  1.0000
  C   C247      1.0  0.10784  0.85259  0.45096  1.0000
  N   N20       1.0  0.00243  0.58892  0.42082  1.0000
  H   H352      1.0  0.20893  0.78386  0.38485  1.0000
  N   N21       1.0  0.19580  0.73767  0.25504  1.0000
  S   S105      1.0  0.18718  0.83367  0.21980  1.0000
  C   C248      1.0  0.10242  0.86517  0.45960  1.0000
  H   H353      1.0  0.12329  0.76569  0.01169  1.0000
  C   C249      1.0  0.07352  0.52807  0.42599  1.0000
  H   H354      1.0  0.99792  0.58786  0.47257  1.0000
  H   H355      1.0  0.10683  0.87681  0.44654  1.0000
  C   C250      1.0  0.17630  0.96445  0.34999  1.0000
  C   C251      1.0  0.17089  0.96034  0.38206  1.0000
  H   H356      1.0  0.10805  0.77139  0.05811  1.0000
  H   H357      1.0  0.17176  0.95526  0.33072  1.0000
  H   H358      1.0  0.06662  0.53161  0.44529  1.0000
  N   N22       1.0  0.01178  0.74771  0.05232  1.0000
  C   C252      1.0  0.01616  0.75334  0.08619  1.0000
  H   H359      1.0  0.98682  0.56923  0.39022  1.0000
  H   H360      1.0  0.99386  0.75819  0.05150  1.0000
  H   H361      1.0  0.06560  0.53981  0.02480  1.0000
  H   H362      1.0  0.00407  0.58386  0.36961  1.0000
  C   C253      1.0  0.09135  0.86275  0.48548  1.0000
  H   H363      1.0  0.03200  0.74094  0.04420  1.0000
  H   H364      1.0  0.02278  0.74645  0.09760  1.0000
  C   C254      1.0  0.18375  0.73335  0.28164  1.0000
  H   H365      1.0  0.12656  0.75526  0.09769  1.0000
  C   C255      1.0  0.00457  0.75845  0.03743  1.0000
  H   H366      1.0  0.99788  0.60728  0.39313  1.0000
  H   H367      1.0  0.15879  0.80131  0.36364  1.0000
  C   C256      1.0  0.18809  0.73019  0.22407  1.0000
  H   H368      1.0  0.19872  0.95575  0.39146  1.0000
  S   S106      1.0  0.11083  0.67658  0.48610  1.0000
  N   N23       1.0  0.08222  0.84468  0.35382  1.0000
  C   C257      1.0  0.08692  0.86165  0.36799  1.0000
  C   C258      1.0  0.07522  0.83224  0.37963  1.0000
  C   C259      1.0  0.09640  0.84260  0.33961  1.0000
  C   C260      1.0  0.07048  0.84235  0.32795  1.0000
  H   H369      1.0  0.09196  0.87135  0.34898  1.0000
  H   H370      1.0  0.09612  0.86398  0.38696  1.0000
  H   H371      1.0  0.07661  0.86360  0.37968  1.0000
  H   H372      1.0  0.07167  0.81928  0.36989  1.0000
  H   H373      1.0  0.08390  0.83385  0.39945  1.0000
  H   H374      1.0  0.06450  0.83346  0.39103  1.0000
  H   H375      1.0  0.09327  0.83025  0.32727  1.0000
  H   H376      1.0  0.10528  0.84363  0.35858  1.0000
  H   H377      1.0  0.10240  0.85236  0.32130  1.0000
  H   H378      1.0  0.06671  0.82971  0.31652  1.0000
  H   H379      1.0  0.07560  0.85160  0.30814  1.0000
  H   H380      1.0  0.05964  0.84396  0.33766  1.0000
  N   N24       1.0  0.17530  0.81567  0.32681  1.0000
  C   C261      1.0  0.99666  0.57943  0.45114  1.0000
  H   H381      1.0  0.09058  0.72881  0.02392  1.0000
  H   H382      1.0  0.00353  0.57159  0.45635  1.0000
  C   C262      1.0  0.07806  0.76677  0.01931  1.0000
  H   H383      1.0  0.19684  0.73345  0.20339  1.0000
  H   H384      1.0  0.08493  0.51053  0.46322  1.0000
  S   S107      1.0  0.14722  0.71816  0.47479  1.0000
  H   H385      1.0  0.00548  0.75172  0.10162  1.0000
  H   H386      1.0  0.18894  0.78345  0.06228  1.0000
  H   H387      1.0  0.18234  0.71636  0.22534  1.0000
  C   C263      1.0  0.13433  0.77406  0.02398  1.0000
  H   H388      1.0  0.16278  0.84542  0.23789  1.0000
  H   H389      1.0  0.08458  0.52809  0.48641  1.0000
  H   H390      1.0  0.97416  0.74968  0.17104  1.0000
  H   H391      1.0  0.17245  0.96983  0.43134  1.0000
  H   H392      1.0  0.11017  0.55530  0.44850  1.0000
  H   H393      1.0  0.09387  0.51437  0.40465  1.0000
  H   H394      1.0  0.04027  0.55214  0.17621  1.0000
  H   H395      1.0  0.08652  0.63995  0.01253  1.0000
  H   H396      1.0  0.06967  0.64574  0.40547  1.0000
  H   H397      1.0  0.06756  0.53280  0.20499  1.0000
  C   C264      1.0  0.08435  0.76916  0.49430  1.0000
  H   H398      1.0  0.03682  0.53874  0.21076  1.0000
  S   S108      1.0  0.06476  0.50116  0.11118  1.0000
  C   C265      1.0  0.16408  0.80890  0.29974  1.0000
  H   H399      1.0  0.16437  0.79693  0.29015  1.0000
  H   H400      1.0  0.08727  0.87259  0.49210  1.0000
  H   H401      1.0  0.17790  0.71962  0.28488  1.0000
  C   C266      1.0  0.14744  0.78442  0.07498  1.0000
  S   S109      1.0  0.19482  0.76448  0.17168  1.0000
  H   H402      1.0  0.08945  0.67152  0.43039  1.0000
  H   H403      1.0  0.07270  0.55167  0.15680  1.0000
  H   H404      1.0  0.03533  0.76185  0.03368  1.0000
  H   H405      1.0  0.17877  0.73496  0.21764  1.0000
  C   C267      1.0  0.11954  0.77926  0.06949  1.0000
  H   H406      1.0  0.14648  0.78412  0.10206  1.0000
  S   S110      1.0  0.14203  0.75334  0.46742  1.0000
  H   H407      1.0  0.02234  0.60812  0.44408  1.0000
  H   H408      1.0  0.99568  0.60908  0.43642  1.0000
  C   C268      1.0  0.18710  0.84926  0.24792  1.0000
  C   C269      1.0  0.97445  0.75662  0.14931  1.0000
  C   C270      1.0  0.20322  0.75598  0.25184  1.0000
  C   C271      1.0  0.17092  0.80360  0.35371  1.0000
  H   H409      1.0  0.00518  0.72188  0.06389  1.0000
  H   H410      1.0  0.15735  0.78044  0.06789  1.0000
  C   C272      1.0  0.17313  0.85235  0.25225  1.0000
  H   H411      1.0  0.06555  0.53356  0.13092  1.0000
  H   H412      1.0  0.02390  0.76680  0.08713  1.0000
  H   H413      1.0  0.10621  0.84727  0.09044  1.0000
  H   H414      1.0  0.03046  0.52732  0.13802  1.0000
  H   H415      1.0  0.06053  0.51519  0.17759  1.0000
  H   H416      1.0  0.18934  0.92249  0.32645  1.0000
  H   H417      1.0  0.14407  0.77004  0.01589  1.0000
  N   N25       1.0  0.20499  0.93812  0.36281  1.0000
  H   H418      1.0  0.97576  0.78173  0.07198  1.0000
  H   H419      1.0  0.19247  0.80687  0.30587  1.0000
  H   H420      1.0  0.12239  0.79233  0.06185  1.0000
  N   N26       1.0  0.13234  0.77348  0.05981  1.0000
  C   C273      1.0  0.97549  0.77470  0.09359  1.0000
  N   N27       1.0  0.09026  0.53290  0.43558  1.0000
  C   C274      1.0  0.17463  0.83158  0.33861  1.0000
  H   H421      1.0  0.16252  0.82987  0.34787  1.0000
  H   H422      1.0  0.19520  0.94448  0.32031  1.0000
  H   H423      1.0  0.11752  0.77876  0.09635  1.0000
  H   H424      1.0  0.18898  0.92597  0.40206  1.0000
  Fe  Fe47      1.0  0.20840  0.78984  0.19578  1.0000
  N   N28       1.0  0.10738  0.86507  0.12843  1.0000
  C   C275      1.0  0.11203  0.85179  0.11428  1.0000
  C   C276      1.0  0.11527  0.87061  0.16009  1.0000
  C   C277      1.0  0.08991  0.85850  0.13334  1.0000
  C   C278      1.0  0.11222  0.87931  0.10595  1.0000
  H   H425      1.0  0.10845  0.84081  0.13063  1.0000
  H   H426      1.0  0.12513  0.85628  0.11012  1.0000
  H   H427      1.0  0.11169  0.88029  0.17206  1.0000
  H   H428      1.0  0.11209  0.86003  0.17727  1.0000
  H   H429      1.0  0.12847  0.87594  0.15727  1.0000
  H   H430      1.0  0.08601  0.86765  0.14646  1.0000
  H   H431      1.0  0.08565  0.84681  0.14758  1.0000
  H   H432      1.0  0.08362  0.85549  0.10974  1.0000
  H   H433      1.0  0.10869  0.88946  0.11572  1.0000
  H   H434      1.0  0.10651  0.87542  0.08176  1.0000
  H   H435      1.0  0.12534  0.88465  0.10169  1.0000
  C   C279      1.0  0.09100  0.83517  0.49427  1.0000
  H   H436      1.0  0.03833  0.51148  0.14167  1.0000
  H   H437      1.0  0.05681  0.54875  0.12887  1.0000
  H   H438      1.0  0.17096  0.79133  0.34549  1.0000
  H   H439      1.0  0.05624  0.55452  0.20345  1.0000
  H   H440      1.0  0.18916  0.73892  0.30534  1.0000
  C   C280      1.0  0.17657  0.97277  0.40646  1.0000
  H   H441      1.0  0.09724  0.55804  0.41865  1.0000
  S   S111      1.0  0.10070  0.75300  0.46099  1.0000
  H   H442      1.0  0.01304  0.77175  0.03696  1.0000
  H   H443      1.0  0.15102  0.79762  0.06746  1.0000
  H   H444      1.0  0.02647  0.59103  0.42734  1.0000
  C   C281      1.0  0.19964  0.92552  0.38875  1.0000
  C   C282      1.0  0.97616  0.53142  0.34474  1.0000
  N   N29       1.0  0.04996  0.53320  0.17122  1.0000
  C   C283      1.0  0.04564  0.54520  0.19128  1.0000
  C   C284      1.0  0.05684  0.52412  0.19216  1.0000
  C   C285      1.0  0.06177  0.54225  0.14592  1.0000
  C   C286      1.0  0.03555  0.52115  0.15552  1.0000
  H   H445      1.0  0.02466  0.60622  0.40082  1.0000
  H   H446      1.0  0.10613  0.82776  0.46176  1.0000
  Fe  Fe48      1.0  0.20568  0.82220  0.22109  1.0000
  H   H447      1.0  0.06753  0.51438  0.42173  1.0000
  H   H448      1.0  0.04645  0.51204  0.48142  1.0000
  C   C287      1.0  0.19162  0.81861  0.31505  1.0000
  H   H449      1.0  0.13728  0.78688  0.01474  1.0000
  H   H450      1.0  0.00600  0.56864  0.39604  1.0000
  H   H451      1.0  0.99667  0.72552  0.02710  1.0000
  H   H452      1.0  0.21432  0.73684  0.28562  1.0000
  C   C288      1.0  0.20900  0.95494  0.37737  1.0000
  H   H453      1.0  0.20306  0.71747  0.26518  1.0000
  C   C289      1.0  0.02622  0.74887  0.03356  1.0000
  H   H454      1.0  0.19962  0.78765  0.11823  1.0000
  H   H455      1.0  0.98073  0.59270  0.41396  1.0000
  C   C290      1.0  0.00017  0.73025  0.05230  1.0000
  H   H456      1.0  0.08766  0.77773  0.47416  1.0000
  H   H457      1.0  0.02348  0.74494  0.00773  1.0000
  C   C291      1.0  0.09082  0.52433  0.46598  1.0000
  H   H458      1.0  0.19427  0.76121  0.24555  1.0000
  C   C292      1.0  0.20821  0.73126  0.26250  1.0000
  H   H459      1.0  0.07455  0.77731  0.01787  1.0000
  H   H460      1.0  0.17423  0.73803  0.27673  1.0000
  S   S112      1.0  0.12176  0.72041  0.01222  1.0000
  H   H461      1.0  0.20910  0.92758  0.40693  1.0000
  H   H462      1.0  0.21134  0.85617  0.26300  1.0000
  C   C293      1.0  0.08923  0.75566  0.49409  1.0000
  H   H463      1.0  0.19626  0.91265  0.37851  1.0000
  H   H464      1.0  0.21018  0.87741  0.30339  1.0000
  H   H465      1.0  0.20908  0.76224  0.27474  1.0000
  H   H466      1.0  0.05688  0.66728  0.00173  1.0000
  C   C294      1.0  0.18752  0.98058  0.34271  1.0000
  H   H467      1.0  0.00089  0.75451  0.01197  1.0000
  C   C295      1.0  0.96589  0.52639  0.40953  1.0000
  Fe  Fe49      1.0  0.14698  0.91540  0.85959  1.0000
  S   S113      1.0  0.15186  0.89484  0.88397  1.0000
  S   S114      1.0  0.15641  0.94047  0.88747  1.0000
  Fe  Fe50      1.0  0.12972  0.89171  0.80341  1.0000
  S   S115      1.0  0.13452  0.87027  0.82318  1.0000
  S   S116      1.0  0.11464  0.88945  0.75858  1.0000
  Fe  Fe51      1.0  0.12696  0.87769  0.87169  1.0000
  S   S117      1.0  0.10939  0.85474  0.89767  1.0000
  Fe  Fe52      1.0  0.15888  0.88921  0.83384  1.0000
  S   S118      1.0  0.18208  0.88537  0.83245  1.0000
  S   S119      1.0  0.12116  0.89853  0.85141  1.0000
  S   S120      1.0  0.15502  0.91034  0.80980  1.0000
  Fe  Fe53      1.0  0.06141  0.82302  0.56878  1.0000
  S   S121      1.0  0.07628  0.81249  0.59677  1.0000
  S   S122      1.0  0.07218  0.84566  0.53612  1.0000
  Fe  Fe54      1.0  0.02985  0.79996  0.60170  1.0000
  S   S123      1.0  0.04277  0.78844  0.63272  1.0000
  S   S124      1.0  0.00273  0.79137  0.59544  1.0000
  Fe  Fe55      1.0  0.06148  0.81429  0.64011  1.0000
  S   S125      1.0  0.07425  0.82025  0.68868  1.0000
  Fe  Fe56      1.0  0.05658  0.78764  0.58724  1.0000
  S   S126      1.0  0.05912  0.76295  0.57918  1.0000
  S   S127      1.0  0.04746  0.82618  0.61285  1.0000
  S   S128      1.0  0.04290  0.79791  0.55544  1.0000
  Fe  Fe57      1.0  0.02795  0.55501  0.90425  1.0000
  S   S129      1.0  0.05170  0.56305  0.87859  1.0000
  S   S130      1.0  0.00807  0.55527  0.87207  1.0000
  Fe  Fe58      1.0  0.04137  0.54724  0.96669  1.0000
  S   S131      1.0  0.06606  0.55469  0.94518  1.0000
  H   H468      1.0  0.17604  0.75164  0.94303  1.0000
  Fe  Fe59      1.0  0.06207  0.57693  0.92520  1.0000
  S   S132      1.0  0.08162  0.60297  0.91612  1.0000
  Fe  Fe60      1.0  0.05364  0.54058  0.90038  1.0000
  S   S133      1.0  0.06012  0.52079  0.87369  1.0000
  S   S134      1.0  0.03797  0.57031  0.94944  1.0000
  S   S135      1.0  0.02931  0.53167  0.92336  1.0000
  H   H469      1.0  0.17053  0.79972  0.77538  1.0000
  S   S136      1.0  0.11736  0.71008  0.93367  1.0000
  H   H470      1.0  0.08149  0.85202  0.60947  1.0000
  Fe  Fe61      1.0  0.20885  0.80314  0.76214  1.0000
  S   S137      1.0  0.14317  0.74640  0.95686  1.0000
  S   S138      1.0  0.14877  0.74466  0.56179  1.0000
  H   H471      1.0  0.15527  0.83144  0.83618  1.0000
  H   H472      1.0  0.18369  0.83911  0.82396  1.0000
  Fe  Fe62      1.0  0.14380  0.72451  0.92849  1.0000
  S   S139      1.0  0.15754  0.72653  0.88081  1.0000
  H   H473      1.0  0.14896  0.71175  0.54672  1.0000
  S   S140      1.0  0.14990  0.71271  0.97179  1.0000
  H   H474      1.0  0.13841  0.69270  0.52469  1.0000
  S   S141      1.0  0.06085  0.50728  0.72127  1.0000
  C   C296      1.0  0.08619  0.76279  0.99302  1.0000
  C   C297      1.0  0.99410  0.50139  0.82798  1.0000
  H   H475      1.0  0.13297  0.69460  0.62799  1.0000
  H   H476      1.0  0.08987  0.67589  0.94048  1.0000
  S   S142      1.0  0.19468  0.80464  0.71891  1.0000
  C   C298      1.0  0.16778  0.74569  0.86085  1.0000
  C   C299      1.0  0.16802  0.76078  0.87390  1.0000
  C   C300      1.0  0.17694  0.77588  0.85837  1.0000
  C   C301      1.0  0.18550  0.77609  0.82938  1.0000
  C   C302      1.0  0.18502  0.76099  0.81589  1.0000
  C   C303      1.0  0.17626  0.74587  0.83172  1.0000
  H   H477      1.0  0.16144  0.76083  0.89608  1.0000
  H   H478      1.0  0.17725  0.78751  0.86899  1.0000
  H   H479      1.0  0.19161  0.76099  0.79364  1.0000
  H   H480      1.0  0.17612  0.73424  0.82141  1.0000
  C   C304      1.0  0.16662  0.75668  0.58235  1.0000
  C   C305      1.0  0.18168  0.76132  0.56757  1.0000
  H   H481      1.0  0.20248  0.76602  0.89459  1.0000
  C   C306      1.0  0.19437  0.77510  0.61820  1.0000
  C   C307      1.0  0.17928  0.77070  0.63274  1.0000
  C   C308      1.0  0.16553  0.76137  0.61503  1.0000
  H   H482      1.0  0.18274  0.75777  0.54250  1.0000
  H   H483      1.0  0.17825  0.77414  0.65789  1.0000
  H   H484      1.0  0.15397  0.75772  0.62685  1.0000
  C   C309      1.0  0.97095  0.75574  0.65449  1.0000
  C   C310      1.0  0.06109  0.52465  0.55708  1.0000
  C   C311      1.0  0.05771  0.50897  0.57111  1.0000
  C   C312      1.0  0.05075  0.49440  0.55247  1.0000
  C   C313      1.0  0.04678  0.49564  0.52001  1.0000
  C   C314      1.0  0.16312  0.82691  0.77439  1.0000
  H   H485      1.0  0.06690  0.53589  0.57142  1.0000
  H   H486      1.0  0.06085  0.50819  0.59611  1.0000
  C   C315      1.0  0.11026  0.85761  0.63335  1.0000
  H   H487      1.0  0.18579  0.73987  0.92216  1.0000
  C   C316      1.0  0.05865  0.51699  0.83121  1.0000
  C   C317      1.0  0.05472  0.50062  0.81927  1.0000
  C   C318      1.0  0.05463  0.49732  0.78554  1.0000
  C   C319      1.0  0.05904  0.51047  0.76356  1.0000
  C   C320      1.0  0.06277  0.52680  0.77551  1.0000
  C   C321      1.0  0.06236  0.53004  0.80916  1.0000
  H   H488      1.0  0.05183  0.49047  0.83625  1.0000
  N   N30       1.0  0.10661  0.86687  0.60698  1.0000
  H   H489      1.0  0.06615  0.53702  0.75859  1.0000
  H   H490      1.0  0.06543  0.54270  0.81802  1.0000
  C   C322      1.0  0.08844  0.62233  0.93832  1.0000
  C   C323      1.0  0.09930  0.63675  0.92311  1.0000
  C   C324      1.0  0.10545  0.65227  0.93982  1.0000
  C   C325      1.0  0.10098  0.65357  0.97226  1.0000
  H   H491      1.0  0.01862  0.53489  0.78524  1.0000
  C   C326      1.0  0.08376  0.62369  0.97058  1.0000
  H   H492      1.0  0.10306  0.63591  0.89820  1.0000
  H   H493      1.0  0.11384  0.66316  0.92773  1.0000
  H   H494      1.0  0.14964  0.79393  0.78406  1.0000
  H   H495      1.0  0.15455  0.69418  0.55038  1.0000
  S   S143      1.0  0.06285  0.54594  0.50738  1.0000
  C   C327      1.0  0.98883  0.53957  0.87628  1.0000
  C   C328      1.0  0.98474  0.52893  0.90292  1.0000
  H   H496      1.0  0.19860  0.92440  0.92002  1.0000
  H   H497      1.0  0.13638  0.78570  0.61111  1.0000
  H   H498      1.0  0.99339  0.53035  0.92158  1.0000
  C   C329      1.0  0.98502  0.77666  0.61391  1.0000
  H   H499      1.0  0.13003  0.88633  0.60668  1.0000
  C   C330      1.0  0.98525  0.76772  0.64174  1.0000
  H   H500      1.0  0.12388  0.71126  0.57193  1.0000
  H   H501      1.0  0.99640  0.77016  0.65374  1.0000
  C   C331      1.0  0.07072  0.76045  0.54623  1.0000
  C   C332      1.0  0.07548  0.74687  0.54590  1.0000
  H   H502      1.0  0.02349  0.73185  0.56751  1.0000
  C   C333      1.0  0.08989  0.86532  0.61033  1.0000
  C   C334      1.0  0.02073  0.52028  0.84105  1.0000
  C   C335      1.0  0.06428  0.66564  0.98107  1.0000
  H   H503      1.0  0.07193  0.73811  0.56571  1.0000
  H   H504      1.0  0.19937  0.94299  0.82419  1.0000
  H   H505      1.0  0.21415  0.96192  0.86731  1.0000
  H   H506      1.0  0.01580  0.52696  0.85873  1.0000
  C   C336      1.0  0.19513  0.86052  0.74323  1.0000
  C   C337      1.0  0.20336  0.86243  0.77232  1.0000
  C   C338      1.0  0.19954  0.87053  0.79920  1.0000
  C   C339      1.0  0.18716  0.87632  0.79748  1.0000
  C   C340      1.0  0.17900  0.87457  0.76832  1.0000
  H   H507      1.0  0.17050  0.97010  0.92683  1.0000
  H   H508      1.0  0.21292  0.78289  0.97909  1.0000
  H   H509      1.0  0.08655  0.87167  0.59018  1.0000
  H   H510      1.0  0.16954  0.87915  0.76670  1.0000
  C   C341      1.0  0.10373  0.87023  0.73872  1.0000
  C   C342      1.0  0.09257  0.86959  0.71500  1.0000
  C   C343      1.0  0.08344  0.85440  0.69929  1.0000
  C   C344      1.0  0.08552  0.83977  0.70699  1.0000
  C   C345      1.0  0.09662  0.84043  0.73076  1.0000
  C   C346      1.0  0.10574  0.85558  0.74642  1.0000
  H   H511      1.0  0.09083  0.88085  0.70912  1.0000
  H   H512      1.0  0.07462  0.85393  0.68168  1.0000
  H   H513      1.0  0.09824  0.82914  0.73701  1.0000
  H   H514      1.0  0.11433  0.85589  0.76442  1.0000
  C   C347      1.0  0.10236  0.85252  0.93868  1.0000
  C   C348      1.0  0.09255  0.83654  0.94973  1.0000
  H   H515      1.0  0.96985  0.78026  0.57777  1.0000
  H   H516      1.0  0.19024  0.82646  0.79683  1.0000
  C   C349      1.0  0.07525  0.77167  0.52047  1.0000
  C   C350      1.0  0.10594  0.86614  0.96012  1.0000
  H   H517      1.0  0.08971  0.82592  0.93334  1.0000
  H   H518      1.0  0.01154  0.76311  0.60989  1.0000
  N   N31       1.0  0.20151  0.76219  0.94638  1.0000
  H   H519      1.0  0.11341  0.87851  0.95194  1.0000
  C   C351      1.0  0.17564  0.96559  0.84562  1.0000
  C   C352      1.0  0.16974  0.96113  0.87730  1.0000
  H   H520      1.0  0.01842  0.49338  0.80519  1.0000
  H   H521      1.0  0.17163  0.95650  0.82603  1.0000
  C   C353      1.0  0.98948  0.73943  0.57321  1.0000
  H   H522      1.0  0.07158  0.78213  0.52047  1.0000
  H   H523      1.0  0.10174  0.84433  0.63382  1.0000
  H   H524      1.0  0.08991  0.69408  0.98741  1.0000
  H   H525      1.0  0.07210  0.66539  0.91800  1.0000
  H   H526      1.0  0.98056  0.54583  0.83158  1.0000
  C   C354      1.0  0.14421  0.69790  0.54823  1.0000
  H   H527      1.0  0.13008  0.76441  0.59684  1.0000
  N   N32       1.0  0.00689  0.74386  0.57345  1.0000
  H   H528      1.0  0.98328  0.73072  0.59318  1.0000
  H   H529      1.0  0.04136  0.48441  0.50546  1.0000
  H   H530      1.0  0.04783  0.68436  0.96598  1.0000
  H   H531      1.0  0.07550  0.61275  0.98276  1.0000
  H   H532      1.0  0.00255  0.53371  0.81231  1.0000
  H   H533      1.0  0.98877  0.50818  0.84472  1.0000
  H   H534      1.0  0.03229  0.52952  0.83190  1.0000
  C   C355      1.0  0.09075  0.74911  0.99454  1.0000
  C   C356      1.0  0.04967  0.51129  0.50632  1.0000
  N   N33       1.0  0.07582  0.85679  0.83286  1.0000
  C   C357      1.0  0.05948  0.84425  0.82865  1.0000
  C   C358      1.0  0.08736  0.84893  0.82592  1.0000
  C   C359      1.0  0.07773  0.86330  0.86672  1.0000
  C   C360      1.0  0.07872  0.87065  0.81007  1.0000
  H   H535      1.0  0.05043  0.84973  0.83379  1.0000
  H   H536      1.0  0.05697  0.83357  0.84537  1.0000
  H   H537      1.0  0.05766  0.83913  0.80329  1.0000
  H   H538      1.0  0.09981  0.85821  0.82770  1.0000
  H   H539      1.0  0.08605  0.83891  0.84359  1.0000
  H   H540      1.0  0.08589  0.84333  0.80101  1.0000
  H   H541      1.0  0.07578  0.85319  0.88458  1.0000
  H   H542      1.0  0.06927  0.86939  0.87291  1.0000
  H   H543      1.0  0.08998  0.87268  0.87080  1.0000
  H   H544      1.0  0.07753  0.86621  0.78427  1.0000
  H   H545      1.0  0.09098  0.88033  0.81250  1.0000
  H   H546      1.0  0.07026  0.87694  0.81448  1.0000
  N   N34       1.0  0.12819  0.78153  0.56171  1.0000
  N   N35       1.0  0.00955  0.51277  0.81427  1.0000
  H   H547      1.0  0.15130  0.69483  0.61018  1.0000
  H   H548      1.0  0.05882  0.69300  0.92940  1.0000
  H   H549      1.0  0.14611  0.71269  0.60661  1.0000
  H   H550      1.0  0.12249  0.85774  0.63061  1.0000
  C   C361      1.0  0.11956  0.69741  0.57218  1.0000
  H   H551      1.0  0.11793  0.66836  0.59666  1.0000
  H   H552      1.0  0.01213  0.76768  0.55152  1.0000
  C   C362      1.0  0.09006  0.63917  0.98743  1.0000
  H   H553      1.0  0.98422  0.73346  0.54975  1.0000
  H   H554      1.0  0.05152  0.48470  0.77657  1.0000
  H   H555      1.0  0.18145  0.93579  0.84849  1.0000
  S   S144      1.0  0.11618  0.72239  0.50889  1.0000
  H   H556      1.0  0.08667  0.82358  0.50748  1.0000
  H   H557      1.0  0.21361  0.74798  0.96741  1.0000
  N   N36       1.0  0.20195  0.93534  0.87253  1.0000
  N   N37       1.0  0.10547  0.57529  0.87319  1.0000
  C   C363      1.0  0.09534  0.55729  0.87179  1.0000
  C   C364      1.0  0.10725  0.58114  0.90749  1.0000
  C   C365      1.0  0.09795  0.58464  0.85463  1.0000
  C   C366      1.0  0.12132  0.57810  0.85888  1.0000
  H   H558      1.0  0.09383  0.55231  0.84636  1.0000
  H   H559      1.0  0.08321  0.55481  0.88185  1.0000
  H   H560      1.0  0.10034  0.54978  0.88618  1.0000
  H   H561      1.0  0.11310  0.57456  0.92224  1.0000
  H   H562      1.0  0.11435  0.59480  0.90951  1.0000
  H   H563      1.0  0.09550  0.57894  0.91920  1.0000
  H   H564      1.0  0.10492  0.59835  0.85615  1.0000
  H   H565      1.0  0.08583  0.58251  0.86441  1.0000
  H   H566      1.0  0.09667  0.58082  0.82850  1.0000
  H   H567      1.0  0.12924  0.59158  0.85965  1.0000
  H   H568      1.0  0.12042  0.57385  0.83298  1.0000
  H   H569      1.0  0.12730  0.57118  0.87231  1.0000
  C   C367      1.0  0.05708  0.52591  0.52468  1.0000
  C   C368      1.0  0.18314  0.86687  0.74111  1.0000
  H   H570      1.0  0.01024  0.75105  0.52316  1.0000
  H   H571      1.0  0.99860  0.52095  0.77601  1.0000
  C   C369      1.0  0.01460  0.75614  0.54773  1.0000
  H   H572      1.0  0.17679  0.86551  0.71858  1.0000
  C   C370      1.0  0.19547  0.77033  0.58555  1.0000
  H   H573      1.0  0.13627  0.66874  0.57855  1.0000
  H   H574      1.0  0.16510  0.84006  0.78068  1.0000
  N   N38       1.0  0.13287  0.69186  0.57584  1.0000
  C   C371      1.0  0.13617  0.77768  0.58952  1.0000
  C   C372      1.0  0.12656  0.67342  0.57618  1.0000
  H   H575      1.0  0.02773  0.51165  0.78108  1.0000
  C   C373      1.0  0.14117  0.69876  0.60657  1.0000
  C   C374      1.0  0.97744  0.53764  0.85231  1.0000
  C   C375      1.0  0.10897  0.85991  0.57506  1.0000
  H   H576      1.0  0.02778  0.75990  0.54751  1.0000
  H   H577      1.0  0.10465  0.76607  0.57855  1.0000
  H   H578      1.0  0.11581  0.89034  0.63293  1.0000
  S   S145      1.0  0.19906  0.84963  0.70968  1.0000
  H   H579      1.0  0.13759  0.80789  0.57210  1.0000
  H   H580      1.0  0.20708  0.77363  0.57408  1.0000
  C   C376      1.0  0.01039  0.72877  0.56750  1.0000
  C   C377      1.0  0.12789  0.77024  0.53411  1.0000
  C   C378      1.0  0.13703  0.79900  0.55182  1.0000
  H   H581      1.0  0.20601  0.87202  0.82159  1.0000
  S   S146      1.0  0.19703  0.79565  0.81217  1.0000
  H   H582      1.0  0.17194  0.82718  0.75489  1.0000
  H   H583      1.0  0.15105  0.82102  0.76385  1.0000
  H   H584      1.0  0.14080  0.81234  0.82022  1.0000
  H   H585      1.0  0.11067  0.69293  0.59240  1.0000
  H   H586      1.0  0.13128  0.80226  0.53082  1.0000
  Fe  Fe63      1.0  0.11741  0.73122  0.96627  1.0000
  C   C379      1.0  0.20166  0.77170  0.97674  1.0000
  C   C380      1.0  0.15326  0.81835  0.82882  1.0000
  H   H587      1.0  0.08772  0.87082  0.63374  1.0000
  C   C381      1.0  0.97024  0.77346  0.59927  1.0000
  N   N39       1.0  0.16482  0.81792  0.80329  1.0000
  H   H588      1.0  0.15429  0.81174  0.85104  1.0000
  H   H589      1.0  0.12090  0.75696  0.54025  1.0000
  Fe  Fe64      1.0  0.12320  0.69971  0.97903  1.0000
  H   H590      1.0  0.08844  0.73406  0.51995  1.0000
  C   C382      1.0  0.01618  0.50335  0.79211  1.0000
  C   C383      1.0  0.18115  0.82606  0.81582  1.0000
  H   H591      1.0  0.99547  0.49127  0.84220  1.0000
  C   C384      1.0  0.17497  0.97333  0.90223  1.0000
  C   C385      1.0  0.07891  0.67710  0.93164  1.0000
  H   H592      1.0  0.21279  0.85784  0.77403  1.0000
  N   N40       1.0  0.06942  0.68005  0.95896  1.0000
  H   H593      1.0  0.09827  0.48380  0.79253  1.0000
  H   H594      1.0  0.98657  0.75070  0.57664  1.0000
  C   C386      1.0  0.00721  0.52614  0.79608  1.0000
  H   H595      1.0  0.18309  0.81926  0.83690  1.0000
  C   C387      1.0  0.20711  0.95257  0.88563  1.0000
  C   C388      1.0  0.08641  0.83416  0.98189  1.0000
  H   H596      1.0  0.14949  0.80113  0.54423  1.0000
  H   H597      1.0  0.01960  0.48647  0.59412  1.0000
  H   H598      1.0  0.12142  0.86078  0.57154  1.0000
  C   C389      1.0  0.16176  0.80042  0.79410  1.0000
  H   H599      1.0  0.10634  0.86666  0.55465  1.0000
  C   C390      1.0  0.11170  0.77917  0.57122  1.0000
  C   C391      1.0  0.01044  0.48404  0.57506  1.0000
  H   H600      1.0  0.16284  0.79322  0.81538  1.0000
  H   H601      1.0  0.02619  0.75402  0.60693  1.0000
  H   H602      1.0  0.21454  0.95436  0.90761  1.0000
  C   C392      1.0  0.07922  0.69533  0.97708  1.0000
  H   H603      1.0  0.00585  0.72288  0.54351  1.0000
  C   C393      1.0  0.09970  0.86378  0.99221  1.0000
  H   H604      1.0  0.14012  0.77129  0.52716  1.0000
  C   C394      1.0  0.18657  0.98197  0.83912  1.0000
  C   C395      1.0  0.01320  0.75121  0.60544  1.0000
  H   H605      1.0  0.19386  0.77816  0.91797  1.0000
  C   C396      1.0  0.96925  0.51672  0.90598  1.0000
  H   H606      1.0  0.00711  0.74271  0.62574  1.0000
  H   H607      1.0  0.10090  0.84655  0.57239  1.0000
  H   H608      1.0  0.18904  0.92109  0.83163  1.0000
  C   C397      1.0  0.19198  0.92354  0.89719  1.0000
  H   H609      1.0  0.11315  0.69259  0.54902  1.0000
  C   C398      1.0  0.11730  0.88468  0.60912  1.0000
  H   H610      1.0  0.00555  0.49394  0.57734  1.0000
  H   H611      1.0  0.19159  0.77600  0.97775  1.0000
  H   H612      1.0  0.11139  0.78745  0.59202  1.0000
  C   C399      1.0  0.05529  0.68215  0.94602  1.0000
  H   H613      1.0  0.00484  0.71930  0.58664  1.0000
  H   H614      1.0  0.05725  0.65378  0.96807  1.0000
  H   H615      1.0  0.11483  0.89201  0.58956  1.0000
  H   H616      1.0  0.19670  0.95568  0.89288  1.0000
  C   C400      1.0  0.21475  0.75633  0.94646  1.0000
  H   H617      1.0  0.04768  0.67087  0.93205  1.0000
  H   H618      1.0  0.10539  0.78195  0.55068  1.0000
  C   C401      1.0  0.19257  0.93376  0.84287  1.0000
  C   C402      1.0  0.20333  0.77302  0.91801  1.0000
  H   H619      1.0  0.10952  0.86318  0.65766  1.0000
  H   H620      1.0  0.08891  0.77033  0.97135  1.0000
  H   H621      1.0  0.07889  0.82182  0.99003  1.0000
  Fe  Fe65      1.0  0.21352  0.80042  0.68784  1.0000
  S   S147      1.0  0.10029  0.74409  0.96053  1.0000
  H   H622      1.0  0.12020  0.66801  0.55314  1.0000
  H   H623      1.0  0.00796  0.49731  0.77177  1.0000
  H   H624      1.0  0.01677  0.48557  0.55114  1.0000
  H   H625      1.0  0.18116  0.92611  0.90369  1.0000
  H   H626      1.0  0.08277  0.68757  0.91411  1.0000
  H   H627      1.0  0.08348  0.70646  0.96111  1.0000
  H   H628      1.0  0.98531  0.49545  0.80851  1.0000
  H   H629      1.0  0.18788  0.91040  0.88805  1.0000
  H   H630      1.0  0.12243  0.77308  0.51220  1.0000
  Fe  Fe66      1.0  0.14269  0.73684  0.50853  1.0000
  C   C403      1.0  0.18623  0.74766  0.94430  1.0000
  C   C404      1.0  0.08489  0.74460  0.52011  1.0000
  H   H631      1.0  0.14873  0.77961  0.58319  1.0000
  H   H632      1.0  0.18414  0.73952  0.96592  1.0000
  H   H633      1.0  0.97130  0.74899  0.67611  1.0000
  H   H634      1.0  0.21498  0.74918  0.92375  1.0000
  S   S148      1.0  0.10835  0.67284  0.99476  1.0000
  S   S149      1.0  0.21209  0.78575  0.64032  1.0000
  H   H635      1.0  0.02332  0.51069  0.85476  1.0000
  H   H636      1.0  0.07469  0.66396  0.99175  1.0000
  Fe  Fe67      1.0  0.21109  0.83165  0.71841  1.0000
  H   H637      1.0  0.07243  0.69804  0.99775  1.0000
  H   H638      1.0  0.21239  0.91841  0.85436  1.0000
  H   H639      1.0  0.96606  0.50880  0.92712  1.0000
  C   C405      1.0  0.08559  0.84777  0.50295  1.0000
  Fe  Fe68      1.0  0.14789  0.73417  0.00092  1.0000
  H   H640      1.0  0.20035  0.76391  0.99869  1.0000
  H   H641      1.0  0.21500  0.78380  0.91797  1.0000
  Fe  Fe69      1.0  0.05109  0.48263  0.69326  1.0000
  H   H642      1.0  0.07843  0.48299  0.79923  1.0000
  H   H643      1.0  0.24916  0.20124  0.16909  1.0000
  Fe  Fe70      1.0  0.25231  0.06637  0.39391  1.0000
  S   S150      1.0  0.24187  0.08419  0.41332  1.0000
  S   S151      1.0  0.27907  0.07573  0.38575  1.0000
  S   S152      1.0  0.42669  0.98838  0.05254  1.0000
  H   H644      1.0  0.22184  0.12602  0.31719  1.0000
  H   H645      1.0  0.26268  0.45072  0.09180  1.0000
  S   S153      1.0  0.21906  0.14154  0.13785  1.0000
  S   S154      1.0  0.23617  0.05887  0.35072  1.0000
  Fe  Fe71      1.0  0.23669  0.14130  0.17576  1.0000
  S   S155      1.0  0.25787  0.14970  0.14134  1.0000
  H   H646      1.0  0.31319  0.09117  0.39037  1.0000
  S   S156      1.0  0.24561  0.17795  0.11655  1.0000
  Fe  Fe72      1.0  0.24060  0.15103  0.10446  1.0000
  S   S157      1.0  0.24438  0.14458  0.05171  1.0000
  Fe  Fe73      1.0  0.26108  0.17569  0.15654  1.0000
  S   S158      1.0  0.28418  0.19841  0.16271  1.0000
  S   S159      1.0  0.24125  0.16741  0.19375  1.0000
  Fe  Fe74      1.0  0.44338  0.01528  0.06018  1.0000
  Fe  Fe75      1.0  0.22500  0.06245  0.44100  1.0000
  C   C406      1.0  0.23164  0.09999  0.49339  1.0000
  H   H647      1.0  0.22797  0.13490  0.25957  1.0000
  S   S160      1.0  0.44980  0.07705  0.05259  1.0000
  S   S161      1.0  0.45161  0.03356  0.01901  1.0000
  C   C407      1.0  0.38262  0.10342  0.10682  1.0000
  S   S162      1.0  0.36609  0.11394  0.46771  1.0000
  H   H648      1.0  0.34412  0.18812  0.19840  1.0000
  Fe  Fe76      1.0  0.38129  0.14302  0.04876  1.0000
  H   H649      1.0  0.22535  0.41882  0.25471  1.0000
  S   S163      1.0  0.38404  0.14918  0.10300  1.0000
  Fe  Fe77      1.0  0.38042  0.14045  0.45245  1.0000
  S   S164      1.0  0.38626  0.14507  0.39850  1.0000
  C   C408      1.0  0.24230  0.41969  0.07665  1.0000
  H   H650      1.0  0.40476  0.08888  0.37449  1.0000
  S   S165      1.0  0.37055  0.15246  0.00889  1.0000
  S   S166      1.0  0.36443  0.11642  0.04123  1.0000
  Fe  Fe78      1.0  0.39360  0.22400  0.29191  1.0000
  S   S167      1.0  0.37728  0.23775  0.29982  1.0000
  S   S168      1.0  0.40154  0.21713  0.33974  1.0000
  Fe  Fe79      1.0  0.39198  0.22569  0.21802  1.0000
  S   S169      1.0  0.37544  0.23938  0.22138  1.0000
  S   S170      1.0  0.39795  0.22088  0.16576  1.0000
  Fe  Fe80      1.0  0.39176  0.25514  0.26065  1.0000
  S   S171      1.0  0.39770  0.28348  0.26108  1.0000
  Fe  Fe81      1.0  0.36274  0.22098  0.26010  1.0000
  S   S172      1.0  0.33667  0.20424  0.26722  1.0000
  S   S173      1.0  0.40911  0.24248  0.25494  1.0000
  S   S174      1.0  0.37825  0.20627  0.25441  1.0000
  H   H651      1.0  0.25234  0.10323  0.34111  1.0000
  S   S175      1.0  0.45261  0.38381  0.27112  1.0000
  H   H652      1.0  0.27934  0.41916  0.06636  1.0000
  Fe  Fe82      1.0  0.45162  0.40175  0.31022  1.0000
  S   S176      1.0  0.42829  0.40501  0.31676  1.0000
  H   H653      1.0  0.42114  0.12603  0.08546  1.0000
  S   S177      1.0  0.45807  0.34622  0.31203  1.0000
  H   H654      1.0  0.24191  0.06336  0.04698  1.0000
  S   S178      1.0  0.23765  0.41370  0.46898  1.0000
  H   H655      1.0  0.32415  0.18574  0.11976  1.0000
  H   H656      1.0  0.35460  0.21795  0.13013  1.0000
  H   H657      1.0  0.25750  0.44353  0.03316  1.0000
  Fe  Fe83      1.0  0.45431  0.05305  0.05834  1.0000
  H   H658      1.0  0.38516  0.08017  0.39255  1.0000
  S   S179      1.0  0.24327  0.37953  0.45042  1.0000
  H   H659      1.0  0.28351  0.08438  0.01610  1.0000
  S   S180      1.0  0.38603  0.46088  0.46948  1.0000
  S   S181      1.0  0.34688  0.45709  0.41677  1.0000
  Fe  Fe84      1.0  0.40603  0.46513  0.43296  1.0000
  S   S182      1.0  0.42353  0.45227  0.43265  1.0000
  H   H660      1.0  0.27664  0.13075  0.29805  1.0000
  C   C409      1.0  0.29976  0.42529  0.47013  1.0000
  C   C410      1.0  0.29967  0.43243  0.43993  1.0000
  C   C411      1.0  0.31417  0.44191  0.42387  1.0000
  C   C412      1.0  0.32898  0.44429  0.43750  1.0000
  C   C413      1.0  0.32907  0.43687  0.46737  1.0000
  C   C414      1.0  0.31458  0.42763  0.48369  1.0000
  H   H661      1.0  0.28842  0.43080  0.42913  1.0000
  H   H662      1.0  0.31390  0.44749  0.40072  1.0000
  H   H663      1.0  0.34029  0.43811  0.47772  1.0000
  H   H664      1.0  0.26555  0.43608  0.11871  1.0000
  C   C415      1.0  0.42719  0.41842  0.34863  1.0000
  C   C416      1.0  0.41424  0.42341  0.35052  1.0000
  C   C417      1.0  0.41297  0.43386  0.37611  1.0000
  C   C418      1.0  0.42454  0.43913  0.40020  1.0000
  C   C419      1.0  0.43748  0.43412  0.39831  1.0000
  C   C420      1.0  0.43889  0.42392  0.37243  1.0000
  H   H665      1.0  0.40514  0.41916  0.33217  1.0000
  H   H666      1.0  0.40292  0.43761  0.37747  1.0000
  H   H667      1.0  0.44645  0.43815  0.41690  1.0000
  H   H668      1.0  0.44890  0.42011  0.37116  1.0000
  C   C421      1.0  0.41480  0.30067  0.27493  1.0000
  C   C422      1.0  0.42710  0.29858  0.29171  1.0000
  C   C423      1.0  0.44017  0.31263  0.30292  1.0000
  C   C424      1.0  0.44119  0.32897  0.29749  1.0000
  C   C425      1.0  0.42897  0.33108  0.28040  1.0000
  C   C426      1.0  0.41588  0.31704  0.26928  1.0000
  H   H669      1.0  0.42648  0.28611  0.29633  1.0000
  H   H670      1.0  0.44952  0.31077  0.31606  1.0000
  H   H671      1.0  0.42956  0.34351  0.27575  1.0000
  H   H672      1.0  0.40649  0.31881  0.25616  1.0000
  C   C427      1.0  0.38808  0.16923  0.11997  1.0000
  C   C428      1.0  0.39191  0.18328  0.10047  1.0000
  C   C429      1.0  0.39523  0.19907  0.11497  1.0000
  C   C430      1.0  0.39443  0.20090  0.14896  1.0000
  C   C431      1.0  0.39045  0.18682  0.16846  1.0000
  C   C432      1.0  0.38742  0.17107  0.15399  1.0000
  H   H673      1.0  0.39254  0.18202  0.07427  1.0000
  H   H674      1.0  0.39837  0.20992  0.09974  1.0000
  H   H675      1.0  0.38989  0.18810  0.19466  1.0000
  H   H676      1.0  0.38450  0.16026  0.16924  1.0000
  C   C433      1.0  0.39003  0.16505  0.38234  1.0000
  C   C434      1.0  0.38905  0.16683  0.34859  1.0000
  C   C435      1.0  0.39239  0.18265  0.33506  1.0000
  C   C436      1.0  0.39707  0.19688  0.35518  1.0000
  C   C437      1.0  0.39821  0.19508  0.38884  1.0000
  C   C438      1.0  0.39446  0.17924  0.40244  1.0000
  H   H677      1.0  0.38573  0.15593  0.33283  1.0000
  H   H678      1.0  0.39162  0.18388  0.30907  1.0000
  H   H679      1.0  0.40198  0.20602  0.40458  1.0000
  H   H680      1.0  0.39540  0.17809  0.42842  1.0000
  C   C439      1.0  0.43265  0.08026  0.03949  1.0000
  Fe  Fe85      1.0  0.37350  0.46791  0.42913  1.0000
  C   C440      1.0  0.40446  0.07044  0.02655  1.0000
  H   H681      1.0  0.24068  0.12685  0.49258  1.0000
  H   H682      1.0  0.25902  0.10928  0.03655  1.0000
  C   C441      1.0  0.41783  0.06715  0.03569  1.0000
  H   H683      1.0  0.39997  0.12970  0.14378  1.0000
  H   H684      1.0  0.26643  0.21359  0.12128  1.0000
  S   S183      1.0  0.21828  0.06553  0.49368  1.0000
  H   H685      1.0  0.41664  0.05448  0.04008  1.0000
  H   H686      1.0  0.27751  0.11657  0.26620  1.0000
  H   H687      1.0  0.38976  0.34244  0.38628  1.0000
  H   H688      1.0  0.22669  0.44001  0.25403  1.0000
  C   C442      1.0  0.43089  0.48180  0.35822  1.0000
  C   C443      1.0  0.29845  0.19981  0.19233  1.0000
  C   C444      1.0  0.29640  0.18675  0.21357  1.0000
  C   C445      1.0  0.30819  0.18830  0.23649  1.0000
  C   C446      1.0  0.32221  0.20277  0.23797  1.0000
  C   C447      1.0  0.32427  0.21580  0.21663  1.0000
  C   C448      1.0  0.31236  0.21438  0.19415  1.0000
  H   H689      1.0  0.28571  0.17550  0.21244  1.0000
  H   H690      1.0  0.30645  0.17821  0.25306  1.0000
  H   H691      1.0  0.33492  0.22709  0.21787  1.0000
  H   H692      1.0  0.31400  0.22458  0.17790  1.0000
  C   C449      1.0  0.23456  0.12514  0.03164  1.0000
  H   H693      1.0  0.37923  0.09666  0.08304  1.0000
  H   H694      1.0  0.32128  0.18120  0.16248  1.0000
  H   H695      1.0  0.40241  0.37689  0.35434  1.0000
  C   C450      1.0  0.44446  0.99507  0.16432  1.0000
  H   H696      1.0  0.44963  0.46455  0.36219  1.0000
  H   H697      1.0  0.37283  0.22147  0.36735  1.0000
  C   C451      1.0  0.26539  0.10758  0.34488  1.0000
  H   H698      1.0  0.25941  0.06020  0.03312  1.0000
  H   H699      1.0  0.43148  0.98992  0.17012  1.0000
  H   H700      1.0  0.40088  0.07488  0.40821  1.0000
  H   H701      1.0  0.29627  0.12447  0.33084  1.0000
  C   C452      1.0  0.41959  0.10592  0.42762  1.0000
  H   H702      1.0  0.23136  0.08803  0.23552  1.0000
  C   C453      1.0  0.43390  0.09665  0.03361  1.0000
  C   C454      1.0  0.29155  0.08670  0.41803  1.0000
  C   C455      1.0  0.28520  0.08924  0.44803  1.0000
  Fe  Fe86      1.0  0.22450  0.07522  0.37258  1.0000
  Fe  Fe87      1.0  0.35137  0.12514  0.49664  1.0000
  H   H703      1.0  0.33034  0.47032  0.48126  1.0000
  C   C456      1.0  0.30817  0.09309  0.41346  1.0000
  H   H704      1.0  0.27243  0.08431  0.45193  1.0000
  S   S184      1.0  0.39789  0.14533  0.49335  1.0000
  Fe  Fe88      1.0  0.25493  0.40197  0.48278  1.0000
  C   C457      1.0  0.45870  0.35501  0.21590  1.0000
  N   N41       1.0  0.25963  0.42708  0.06970  1.0000
  H   H705      1.0  0.44627  0.00202  0.14110  1.0000
  S   S185      1.0  0.23467  0.11772  0.20232  1.0000
  H   H706      1.0  0.44857  0.34694  0.20074  1.0000
  C   C458      1.0  0.26248  0.43380  0.03638  1.0000
  S   S186      1.0  0.39274  0.46994  0.39124  1.0000
  C   C459      1.0  0.22191  0.11207  0.04611  1.0000
  C   C460      1.0  0.31838  0.10183  0.43877  1.0000
  H   H707      1.0  0.23675  0.42903  0.07458  1.0000
  H   H708      1.0  0.33115  0.10662  0.43507  1.0000
  C   C461      1.0  0.26744  0.44072  0.09329  1.0000
  Fe  Fe89      1.0  0.22486  0.39012  0.43955  1.0000
  C   C462      1.0  0.22401  0.11773  0.29945  1.0000
  Fe  Fe90      1.0  0.22544  0.16866  0.15279  1.0000
  C   C463      1.0  0.41162  0.98483  0.11275  1.0000
  N   N42       1.0  0.40534  0.35367  0.34580  1.0000
  C   C464      1.0  0.42261  0.36199  0.33916  1.0000
  C   C465      1.0  0.39754  0.36536  0.33893  1.0000
  C   C466      1.0  0.39864  0.33864  0.32477  1.0000
  H   H709      1.0  0.42797  0.37338  0.35468  1.0000
  H   H710      1.0  0.42902  0.35360  0.34373  1.0000
  H   H711      1.0  0.42502  0.36606  0.31343  1.0000
  H   H712      1.0  0.21716  0.42580  0.22131  1.0000
  C   C467      1.0  0.27862  0.09266  0.02963  1.0000
  H   H713      1.0  0.40057  0.34186  0.29851  1.0000
  H   H714      1.0  0.40430  0.32958  0.32939  1.0000
  H   H715      1.0  0.37284  0.20535  0.39359  1.0000
  H   H716      1.0  0.27147  0.23512  0.11180  1.0000
  H   H717      1.0  0.39829  0.11078  0.16342  1.0000
  C   C468      1.0  0.40795  0.12168  0.08460  1.0000
  C   C469      1.0  0.26741  0.08897  0.30217  1.0000
  C   C470      1.0  0.25505  0.09686  0.04830  1.0000
  H   H718      1.0  0.40490  0.13292  0.08573  1.0000
  H   H719      1.0  0.33731  0.19159  0.41097  1.0000
  H   H720      1.0  0.40414  0.11565  0.06046  1.0000
  N   N43       1.0  0.40005  0.11007  0.11119  1.0000
  H   H721      1.0  0.29783  0.11073  0.29871  1.0000
  H   H722      1.0  0.38446  0.35958  0.34349  1.0000
  C   C471      1.0  0.29539  0.09795  0.47332  1.0000
  C   C472      1.0  0.36517  0.21150  0.38397  1.0000
  H   H723      1.0  0.40854  0.34007  0.38633  1.0000
  H   H724      1.0  0.32732  0.20224  0.14893  1.0000
  H   H725      1.0  0.25933  0.07026  0.07189  1.0000
  H   H726      1.0  0.39957  0.36953  0.31315  1.0000
  H   H727      1.0  0.45452  0.35347  0.24169  1.0000
  H   H728      1.0  0.36021  0.17818  0.13935  1.0000
  H   H729      1.0  0.39639  0.08447  0.46415  1.0000
  H   H730      1.0  0.36154  0.21766  0.40487  1.0000
  H   H731      1.0  0.31148  0.42117  0.00933  1.0000
  H   H732      1.0  0.33079  0.19933  0.34146  1.0000
  C   C473      1.0  0.35558  0.20582  0.12417  1.0000
  C   C474      1.0  0.26635  0.41413  0.07236  1.0000
  H   H733      1.0  0.21673  0.09843  0.42218  1.0000
  H   H734      1.0  0.40482  0.11738  0.38337  1.0000
  C   C475      1.0  0.35672  0.19169  0.33931  1.0000
  H   H735      1.0  0.26886  0.08028  0.32025  1.0000
  C   C476      1.0  0.29102  0.11148  0.32111  1.0000
  S   S187      1.0  0.44421  0.03436  0.09875  1.0000
  C   C477      1.0  0.34170  0.18625  0.38984  1.0000
  S   S188      1.0  0.23665  0.04480  0.42438  1.0000
  H   H736      1.0  0.26459  0.40881  0.09721  1.0000
  H   H737      1.0  0.42655  0.47835  0.33295  1.0000
  H   H738      1.0  0.40021  0.08731  0.13070  1.0000
  H   H739      1.0  0.41595  0.99830  0.11388  1.0000
  C   C478      1.0  0.39837  0.11292  0.40681  1.0000
  H   H740      1.0  0.27968  0.22947  0.14697  1.0000
  H   H741      1.0  0.23539  0.09893  0.46876  1.0000
  H   H742      1.0  0.27351  0.08756  0.27923  1.0000
  C   C479      1.0  0.35128  0.19761  0.18042  1.0000
  S   S189      1.0  0.36471  0.15119  0.47892  1.0000
  H   H743      1.0  0.36343  0.47324  0.49759  1.0000
  H   H744      1.0  0.38019  0.08865  0.44777  1.0000
  H   H745      1.0  0.25927  0.09898  0.07383  1.0000
  H   H746      1.0  0.40222  0.08878  0.08731  1.0000
  H   H747      1.0  0.42295  0.09629  0.43931  1.0000
  H   H748      1.0  0.37807  0.11364  0.10716  1.0000
  C   C480      1.0  0.21886  0.42687  0.24815  1.0000
  H   H749      1.0  0.29037  0.09970  0.49654  1.0000
  H   H750      1.0  0.26722  0.09977  0.36425  1.0000
  H   H751      1.0  0.33710  0.21416  0.37469  1.0000
  C   C481      1.0  0.22945  0.09642  0.25340  1.0000
  C   C482      1.0  0.22607  0.09139  0.28601  1.0000
  H   H752      1.0  0.26957  0.12061  0.35444  1.0000
  N   N44       1.0  0.40234  0.09952  0.42100  1.0000
  H   H753      1.0  0.36503  0.20133  0.32297  1.0000
  H   H754      1.0  0.45852  0.32440  0.20522  1.0000
  H   H755      1.0  0.44532  0.10688  0.03617  1.0000
  C   C483      1.0  0.39811  0.08522  0.39801  1.0000
  H   H756      1.0  0.22525  0.07915  0.29303  1.0000
  H   H757      1.0  0.23605  0.40945  0.05914  1.0000
  H   H758      1.0  0.34051  0.16663  0.15487  1.0000
  H   H759      1.0  0.25882  0.11418  0.28497  1.0000
  S   S190      1.0  0.40066  0.14061  0.01627  1.0000
  H   H760      1.0  0.36843  0.20799  0.12557  1.0000
  H   H761      1.0  0.34889  0.17956  0.39971  1.0000
  C   C484      1.0  0.40268  0.34879  0.38036  1.0000
  N   N45       1.0  0.27388  0.10639  0.31446  1.0000
  H   H762      1.0  0.42683  0.10989  0.40487  1.0000
  H   H763      1.0  0.33118  0.17679  0.37770  1.0000
  H   H764      1.0  0.38560  0.33204  0.32901  1.0000
  N   N46       1.0  0.35123  0.19939  0.36693  1.0000
  H   H765      1.0  0.41876  0.10064  0.11214  1.0000
  H   H766      1.0  0.40154  0.12397  0.42348  1.0000
  H   H767      1.0  0.42190  0.11256  0.01906  1.0000
  H   H768      1.0  0.37621  0.09456  0.12635  1.0000
  C   C485      1.0  0.42059  0.09992  0.02407  1.0000
  H   H769      1.0  0.36398  0.19938  0.18308  1.0000
  H   H770      1.0  0.34661  0.18352  0.32421  1.0000
  C   C486      1.0  0.27167  0.11747  0.28984  1.0000
  H   H771      1.0  0.38538  0.10873  0.40209  1.0000
  H   H772      1.0  0.34820  0.21791  0.33697  1.0000
  C   C487      1.0  0.31201  0.10423  0.46889  1.0000
  H   H773      1.0  0.42317  0.11694  0.44439  1.0000
  C   C488      1.0  0.22332  0.10203  0.30916  1.0000
  Fe  Fe91      1.0  0.46454  0.37435  0.30803  1.0000
  H   H774      1.0  0.39574  0.10475  0.46903  1.0000
  N   N47       1.0  0.25506  0.22614  0.15220  1.0000
  C   C489      1.0  0.25869  0.24298  0.16624  1.0000
  C   C490      1.0  0.26876  0.22615  0.13214  1.0000
  C   C491      1.0  0.24081  0.22138  0.13166  1.0000
  C   C492      1.0  0.25198  0.21405  0.17883  1.0000
  H   H775      1.0  0.46147  0.36824  0.20929  1.0000
  H   H776      1.0  0.24858  0.24334  0.18160  1.0000
  H   H777      1.0  0.26102  0.25242  0.14683  1.0000
  H   H778      1.0  0.42561  0.47040  0.37318  1.0000
  N   N48       1.0  0.26101  0.08548  0.03026  1.0000
  H   H779      1.0  0.34360  0.17265  0.11282  1.0000
  H   H780      1.0  0.23031  0.22146  0.14598  1.0000
  H   H781      1.0  0.23745  0.20853  0.12137  1.0000
  H   H782      1.0  0.24272  0.22999  0.11090  1.0000
  H   H783      1.0  0.21774  0.11374  0.07028  1.0000
  H   H784      1.0  0.24159  0.21351  0.19430  1.0000
  H   H785      1.0  0.26253  0.21705  0.19463  1.0000
  H   H786      1.0  0.26940  0.24692  0.18186  1.0000
  C   C493      1.0  0.39327  0.09407  0.45176  1.0000
  C   C494      1.0  0.40557  0.09611  0.11043  1.0000
  H   H787      1.0  0.29300  0.10324  0.33956  1.0000
  H   H788      1.0  0.36317  0.18400  0.34789  1.0000
  H   H789      1.0  0.40762  0.35987  0.39687  1.0000
  H   H790      1.0  0.23960  0.41434  0.10148  1.0000
  H   H791      1.0  0.25447  0.08467  0.29707  1.0000
  H   H792      1.0  0.41714  0.12443  0.14653  1.0000
  C   C495      1.0  0.23015  0.11212  0.24362  1.0000
  H   H793      1.0  0.35030  0.20960  0.18760  1.0000
  H   H794      1.0  0.39304  0.06020  0.02407  1.0000
  H   H795      1.0  0.28337  0.10498  0.01739  1.0000
  H   H796      1.0  0.35193  0.20248  0.09847  1.0000
  C   C496      1.0  0.40405  0.11911  0.14270  1.0000
  C   C497      1.0  0.22748  0.12280  0.26683  1.0000
  C   C498      1.0  0.34138  0.20807  0.35462  1.0000
  N   N49       1.0  0.34583  0.19263  0.14676  1.0000
  C   C499      1.0  0.32891  0.19032  0.14437  1.0000
  C   C500      1.0  0.34757  0.17681  0.13809  1.0000
  H   H797      1.0  0.28053  0.44654  0.08857  1.0000
  H   H798      1.0  0.27542  0.43930  0.02999  1.0000
  C   C501      1.0  0.25518  0.06910  0.04635  1.0000
  H   H799      1.0  0.26069  0.40360  0.05497  1.0000
  C   C502      1.0  0.40569  0.08684  0.02089  1.0000
  Fe  Fe92      1.0  0.21942  0.03830  0.38266  1.0000
  Fe  Fe93      1.0  0.38342  0.11430  0.00738  1.0000
  H   H800      1.0  0.28352  0.09459  0.05462  1.0000
  S   S191      1.0  0.46215  0.39127  0.34867  1.0000
  S   S192      1.0  0.38810  0.09029  0.01192  1.0000
  H   H801      1.0  0.45060  0.47214  0.32168  1.0000
  S   S193      1.0  0.23471  0.38317  0.01322  1.0000
  H   H802      1.0  0.45050  0.00438  0.18369  1.0000
  C   C503      1.0  0.45437  0.47601  0.34716  1.0000
  H   H803      1.0  0.46451  0.33082  0.24622  1.0000
  H   H804      1.0  0.24179  0.09176  0.04928  1.0000
  S   S194      1.0  0.21895  0.09613  0.35036  1.0000
  S   S195      1.0  0.28192  0.41396  0.49267  1.0000
  Fe  Fe94      1.0  0.22727  0.36759  0.49278  1.0000
  S   S196      1.0  0.21628  0.38472  0.38717  1.0000
  H   H805      1.0  0.25685  0.42378  0.01810  1.0000
  H   H806      1.0  0.45046  0.98471  0.00430  1.0000
  H   H807      1.0  0.44860  0.48235  0.40962  1.0000
  H   H808      1.0  0.44504  0.10714  0.50101  1.0000
  Fe  Fe95      1.0  0.22410  0.13581  0.67949  1.0000
  Fe  Fe96      1.0  0.25094  0.06019  0.91494  1.0000
  S   S197      1.0  0.24630  0.08369  0.91469  1.0000
  S   S198      1.0  0.27352  0.05847  0.93385  1.0000
  H   H809      1.0  0.21737  0.14927  0.75555  1.0000
  Fe  Fe97      1.0  0.23627  0.07551  0.86481  1.0000
  S   S199      1.0  0.24592  0.09258  0.82149  1.0000
  S   S200      1.0  0.22702  0.04403  0.93588  1.0000
  S   S201      1.0  0.24288  0.05313  0.86376  1.0000
  C   C504      1.0  0.45396  0.43447  0.93097  1.0000
  S   S202      1.0  0.24333  0.13437  0.64604  1.0000
  H   H810      1.0  0.27893  0.09378  0.93441  1.0000
  S   S203      1.0  0.24662  0.17140  0.61945  1.0000
  Fe  Fe98      1.0  0.23239  0.14432  0.60773  1.0000
  S   S204      1.0  0.23365  0.13786  0.55430  1.0000
  Fe  Fe99      1.0  0.25682  0.16137  0.65930  1.0000
  S   S205      1.0  0.28296  0.16592  0.66380  1.0000
  S   S206      1.0  0.23838  0.16199  0.69593  1.0000
  Fe  Fe100     1.0  0.44898  0.02075  0.55565  1.0000
  C   C505      1.0  0.31099  0.42721  0.98686  1.0000
  S   S207      1.0  0.43419  0.99311  0.54929  1.0000
  Fe  Fe101     1.0  0.38236  0.11973  0.51101  1.0000
  S   S208      1.0  0.45068  0.07949  0.52677  1.0000
  C   C506      1.0  0.23010  0.04426  0.78169  1.0000
  C   C507      1.0  0.21635  0.36432  0.60377  1.0000
  S   S209      1.0  0.37250  0.12104  0.96380  1.0000
  H   H811      1.0  0.25913  0.09531  0.98367  1.0000
  Fe  Fe102     1.0  0.38081  0.15405  0.52134  1.0000
  H   H812      1.0  0.35023  0.43193  0.93766  1.0000
  S   S210      1.0  0.39002  0.17844  0.54991  1.0000
  C   C508      1.0  0.23253  0.10750  0.98334  1.0000
  S   S211      1.0  0.40015  0.16374  0.93192  1.0000
  H   H813      1.0  0.34658  0.41134  0.95178  1.0000
  C   C509      1.0  0.34352  0.14301  0.91262  1.0000
  C   C510      1.0  0.23464  0.11585  0.50701  1.0000
  S   S212      1.0  0.36628  0.12888  0.54139  1.0000
  Fe  Fe103     1.0  0.37529  0.21455  0.80178  1.0000
  S   S213      1.0  0.37336  0.23875  0.78901  1.0000
  S   S214      1.0  0.36892  0.20594  0.85402  1.0000
  Fe  Fe104     1.0  0.38277  0.20775  0.73095  1.0000
  S   S215      1.0  0.38181  0.23170  0.71295  1.0000
  S   S216      1.0  0.38494  0.18566  0.70358  1.0000
  Fe  Fe105     1.0  0.39545  0.24382  0.75845  1.0000
  S   S217      1.0  0.41810  0.26787  0.76142  1.0000
  Fe  Fe106     1.0  0.35990  0.22490  0.74519  1.0000
  S   S218      1.0  0.33638  0.22697  0.73470  1.0000
  S   S219      1.0  0.39814  0.22014  0.77384  1.0000
  S   S220      1.0  0.36008  0.20043  0.76049  1.0000
  S   S221      1.0  0.45369  0.38632  0.84927  1.0000
  H   H814      1.0  0.22892  0.07152  0.75511  1.0000
  H   H815      1.0  0.41984  0.15320  0.64937  1.0000
  H   H816      1.0  0.28991  0.12415  0.61107  1.0000
  S   S222      1.0  0.33016  0.12283  0.98628  1.0000
  H   H817      1.0  0.36643  0.43006  0.87382  1.0000
  Fe  Fe107     1.0  0.45732  0.05825  0.54626  1.0000
  Fe  Fe108     1.0  0.25249  0.39839  0.97515  1.0000
  S   S223      1.0  0.23756  0.41286  0.96245  1.0000
  H   H818      1.0  0.39224  0.24299  0.85110  1.0000
  H   H819      1.0  0.32475  0.12861  0.86218  1.0000
  H   H820      1.0  0.34511  0.39302  0.86820  1.0000
  H   H821      1.0  0.23552  0.36305  0.65137  1.0000
  C   C511      1.0  0.23976  0.12278  0.00015  1.0000
  S   S224      1.0  0.24216  0.37915  0.93553  1.0000
  H   H822      1.0  0.34235  0.14538  0.84756  1.0000
  S   S225      1.0  0.38221  0.45773  0.96126  1.0000
  S   S226      1.0  0.34228  0.46122  0.92464  1.0000
  N   N50       1.0  0.34616  0.13185  0.88755  1.0000
  S   S227      1.0  0.39720  0.43205  0.90384  1.0000
  H   H823      1.0  0.46150  0.99163  0.71129  1.0000
  C   C512      1.0  0.29614  0.42361  0.97225  1.0000
  C   C513      1.0  0.29572  0.43157  0.94325  1.0000
  C   C514      1.0  0.30994  0.44308  0.92929  1.0000
  C   C515      1.0  0.32478  0.44672  0.94390  1.0000
  C   C516      1.0  0.32522  0.43864  0.97277  1.0000
  H   H824      1.0  0.25768  0.12107  0.58286  1.0000
  H   H825      1.0  0.28444  0.42898  0.93166  1.0000
  H   H826      1.0  0.30941  0.44923  0.90696  1.0000
  H   H827      1.0  0.36213  0.47416  0.54100  1.0000
  H   H828      1.0  0.42439  0.13521  0.63953  1.0000
  C   C517      1.0  0.43771  0.42956  0.83848  1.0000
  C   C518      1.0  0.43585  0.44477  0.84328  1.0000
  C   C519      1.0  0.42355  0.44572  0.86353  1.0000
  C   C520      1.0  0.41295  0.43140  0.87883  1.0000
  C   C521      1.0  0.41483  0.41620  0.87410  1.0000
  C   C522      1.0  0.42722  0.41529  0.85409  1.0000
  H   H829      1.0  0.44391  0.45585  0.83119  1.0000
  H   H830      1.0  0.42215  0.45747  0.86691  1.0000
  H   H831      1.0  0.40663  0.40507  0.88580  1.0000
  H   H832      1.0  0.42850  0.40349  0.85037  1.0000
  C   C523      1.0  0.42146  0.28883  0.77378  1.0000
  C   C524      1.0  0.40941  0.29331  0.78744  1.0000
  C   C525      1.0  0.41283  0.30994  0.79793  1.0000
  C   C526      1.0  0.42829  0.32239  0.79484  1.0000
  C   C527      1.0  0.44035  0.31787  0.78129  1.0000
  C   C528      1.0  0.43695  0.30122  0.77099  1.0000
  H   H833      1.0  0.39743  0.28402  0.78975  1.0000
  H   H834      1.0  0.40339  0.31324  0.80828  1.0000
  H   H835      1.0  0.45228  0.32722  0.77869  1.0000
  H   H836      1.0  0.44639  0.29795  0.76052  1.0000
  C   C529      1.0  0.38679  0.18015  0.59226  1.0000
  C   C530      1.0  0.39172  0.19608  0.60687  1.0000
  C   C531      1.0  0.39051  0.19795  0.64085  1.0000
  C   C532      1.0  0.38473  0.18388  0.66058  1.0000
  C   C533      1.0  0.37966  0.16793  0.64593  1.0000
  C   C534      1.0  0.38040  0.16606  0.61186  1.0000
  H   H837      1.0  0.39666  0.20705  0.59189  1.0000
  H   H838      1.0  0.39454  0.21028  0.65184  1.0000
  H   H839      1.0  0.37510  0.15700  0.66106  1.0000
  H   H840      1.0  0.37635  0.15376  0.60084  1.0000
  C   C535      1.0  0.39143  0.17557  0.91069  1.0000
  C   C536      1.0  0.37870  0.17898  0.92399  1.0000
  C   C537      1.0  0.37202  0.18838  0.90638  1.0000
  C   C538      1.0  0.37781  0.19424  0.87513  1.0000
  C   C539      1.0  0.39046  0.19074  0.86170  1.0000
  C   C540      1.0  0.39731  0.18156  0.87954  1.0000
  H   H841      1.0  0.37416  0.17459  0.94805  1.0000
  H   H842      1.0  0.36233  0.19114  0.91711  1.0000
  H   H843      1.0  0.39501  0.19513  0.83762  1.0000
  H   H844      1.0  0.40714  0.17896  0.86904  1.0000
  C   C541      1.0  0.43373  0.08508  0.52975  1.0000
  C   C542      1.0  0.43431  0.09963  0.51415  1.0000
  C   C543      1.0  0.42125  0.10465  0.51570  1.0000
  H   H845      1.0  0.21719  0.06335  0.81136  1.0000
  H   H846      1.0  0.22023  0.34859  0.67665  1.0000
  C   C544      1.0  0.41983  0.07562  0.54698  1.0000
  H   H847      1.0  0.46432  0.41020  0.91301  1.0000
  H   H848      1.0  0.28830  0.16414  0.58516  1.0000
  C   C545      1.0  0.26818  0.12310  0.56650  1.0000
  H   H849      1.0  0.45574  0.01416  0.68378  1.0000
  H   H850      1.0  0.22942  0.34158  0.60661  1.0000
  H   H851      1.0  0.32526  0.41961  0.90523  1.0000
  H   H852      1.0  0.42218  0.00350  0.60826  1.0000
  C   C546      1.0  0.41563  0.16043  0.58786  1.0000
  C   C547      1.0  0.29757  0.18327  0.68309  1.0000
  C   C548      1.0  0.29416  0.19654  0.69618  1.0000
  C   C549      1.0  0.30626  0.21011  0.71128  1.0000
  C   C550      1.0  0.32176  0.21041  0.71358  1.0000
  C   C551      1.0  0.32513  0.19713  0.70047  1.0000
  C   C552      1.0  0.31308  0.18364  0.68529  1.0000
  H   H853      1.0  0.28227  0.19642  0.69444  1.0000
  H   H854      1.0  0.30359  0.22038  0.72130  1.0000
  H   H855      1.0  0.33704  0.19727  0.70189  1.0000
  H   H856      1.0  0.31583  0.17345  0.67509  1.0000
  C   C553      1.0  0.22992  0.11758  0.53912  1.0000
  H   H857      1.0  0.45919  0.41899  0.87794  1.0000
  S   S228      1.0  0.45358  0.42907  0.81364  1.0000
  C   C554      1.0  0.39829  0.13338  0.60764  1.0000
  H   H858      1.0  0.23660  0.10595  0.95906  1.0000
  C   C555      1.0  0.23550  0.10010  0.79430  1.0000
  Fe  Fe109     1.0  0.46002  0.40630  0.81182  1.0000
  H   H859      1.0  0.29692  0.14625  0.61906  1.0000
  C   C556      1.0  0.22230  0.10331  0.55775  1.0000
  C   C557      1.0  0.23613  0.11532  0.74457  1.0000
  C   C558      1.0  0.24396  0.10982  0.76802  1.0000
  C   C559      1.0  0.28661  0.13520  0.61016  1.0000
  S   S229      1.0  0.38204  0.46753  0.88427  1.0000
  H   H860      1.0  0.24281  0.12274  0.72437  1.0000
  H   H861      1.0  0.25666  0.11302  0.76560  1.0000
  C   C560      1.0  0.28972  0.07655  0.94634  1.0000
  C   C561      1.0  0.30325  0.07500  0.95927  1.0000
  C   C562      1.0  0.31597  0.08912  0.97104  1.0000
  H   H862      1.0  0.22910  0.36923  0.59591  1.0000
  C   C563      1.0  0.25514  0.08321  0.99659  1.0000
  C   C564      1.0  0.28914  0.09237  0.94471  1.0000
  H   H863      1.0  0.27665  0.13328  0.62792  1.0000
  C   C565      1.0  0.45124  0.00517  0.66311  1.0000
  H   H864      1.0  0.36286  0.40195  0.89187  1.0000
  H   H865      1.0  0.27450  0.15510  0.55250  1.0000
  S   S230      1.0  0.39046  0.10084  0.53588  1.0000
  H   H866      1.0  0.29275  0.14231  0.52896  1.0000
  C   C566      1.0  0.35323  0.42612  0.87464  1.0000
  H   H867      1.0  0.39734  0.12107  0.61688  1.0000
  C   C567      1.0  0.31509  0.10482  0.97031  1.0000
  N   N51       1.0  0.41736  0.25560  0.85924  1.0000
  H   H868      1.0  0.32314  0.40315  0.87636  1.0000
  Fe  Fe110     1.0  0.39578  0.45700  0.91533  1.0000
  H   H869      1.0  0.42756  0.25018  0.90206  1.0000
  S   S231      1.0  0.45726  0.38826  0.77001  1.0000
  H   H870      1.0  0.34523  0.11374  0.92328  1.0000
  H   H871      1.0  0.23581  0.04007  0.76103  1.0000
  H   H872      1.0  0.33648  0.44136  0.98452  1.0000
  C   C568      1.0  0.29567  0.14024  0.55423  1.0000
  H   H873      1.0  0.45251  0.01271  0.64083  1.0000
  S   S232      1.0  0.45721  0.03738  0.51218  1.0000
  H   H874      1.0  0.39613  0.07318  0.56198  1.0000
  H   H875      1.0  0.29900  0.12914  0.55341  1.0000
  C   C569      1.0  0.40677  0.08064  0.54851  1.0000
  H   H876      1.0  0.42065  0.12361  0.58266  1.0000
  H   H877      1.0  0.30381  0.06280  0.96050  1.0000
  N   N52       1.0  0.41499  0.14427  0.60003  1.0000
  H   H878      1.0  0.25941  0.07470  0.98221  1.0000
  H   H879      1.0  0.41916  0.06444  0.55917  1.0000
  H   H880      1.0  0.42261  0.24726  0.81243  1.0000
  C   C570      1.0  0.41613  0.25047  0.89360  1.0000
  H   H881      1.0  0.39291  0.13922  0.62628  1.0000
  H   H882      1.0  0.41229  0.23080  0.84048  1.0000
  Fe  Fe111     1.0  0.35522  0.12554  0.99871  1.0000
  Fe  Fe112     1.0  0.22194  0.06747  0.93299  1.0000
  Fe  Fe113     1.0  0.22230  0.39917  0.51090  1.0000
  C   C571      1.0  0.33779  0.13252  0.85753  1.0000
  H   H883      1.0  0.43413  0.14374  0.56885  1.0000
  H   H884      1.0  0.40616  0.98725  0.65475  1.0000
  C   C572      1.0  0.22361  0.08565  0.51147  1.0000
  C   C573      1.0  0.42454  0.14715  0.62982  1.0000
  H   H885      1.0  0.33163  0.21795  0.83720  1.0000
  H   H886      1.0  0.40802  0.15869  0.56615  1.0000
  S   S233      1.0  0.24015  0.38889  0.52653  1.0000
  H   H887      1.0  0.30099  0.11855  0.95610  1.0000
  Fe  Fe114     1.0  0.22592  0.39254  0.92541  1.0000
  H   H888      1.0  0.45977  0.98318  0.51331  1.0000
  C   C574      1.0  0.42152  0.24370  0.83856  1.0000
  H   H889      1.0  0.43113  0.27655  0.82968  1.0000
  H   H890      1.0  0.32247  0.39927  0.91932  1.0000
  H   H891      1.0  0.43831  0.99799  0.66746  1.0000
  H   H892      1.0  0.44493  0.43260  0.91180  1.0000
  H   H893      1.0  0.36535  0.42353  0.93283  1.0000
  C   C575      1.0  0.27811  0.15278  0.57703  1.0000
  H   H894      1.0  0.32626  0.08778  0.98129  1.0000
  H   H895      1.0  0.33847  0.18698  0.81748  1.0000
  H   H896      1.0  0.29592  0.17809  0.83739  1.0000
  C   C576      1.0  0.35228  0.42033  0.93196  1.0000
  H   H897      1.0  0.39082  0.13079  0.58560  1.0000
  Fe  Fe115     1.0  0.22333  0.36518  0.97255  1.0000
  H   H898      1.0  0.30651  0.17291  0.78366  1.0000
  C   C577      1.0  0.21672  0.33726  0.61473  1.0000
  H   H899      1.0  0.43718  0.15545  0.62503  1.0000
  H   H900      1.0  0.41300  0.25918  0.90992  1.0000
  C   C578      1.0  0.41859  0.99008  0.60856  1.0000
  H   H901      1.0  0.32677  0.10976  0.90383  1.0000
  H   H902      1.0  0.44162  0.27310  0.86336  1.0000
  C   C579      1.0  0.32750  0.18559  0.83179  1.0000
  C   C580      1.0  0.30367  0.19156  0.83509  1.0000
  H   H903      1.0  0.32045  0.17201  0.83467  1.0000
  H   H904      1.0  0.30662  0.19690  0.86009  1.0000
  H   H905      1.0  0.37021  0.13744  0.90264  1.0000
  H   H906      1.0  0.40247  0.25960  0.82337  1.0000
  C   C581      1.0  0.32843  0.40860  0.90016  1.0000
  H   H907      1.0  0.34873  0.42135  0.84997  1.0000
  Fe  Fe116     1.0  0.38817  0.14765  0.97544  1.0000
  H   H908      1.0  0.35060  0.43749  0.87955  1.0000
  H   H909      1.0  0.33911  0.21411  0.79855  1.0000
  H   H910      1.0  0.24945  0.13287  0.98868  1.0000
  N   N53       1.0  0.31822  0.19389  0.81566  1.0000
  C   C582      1.0  0.31372  0.18655  0.78280  1.0000
  H   H911      1.0  0.33149  0.19113  0.85633  1.0000
  H   H912      1.0  0.29650  0.19780  0.82355  1.0000
  S   S234      1.0  0.22205  0.40002  0.87466  1.0000
  H   H913      1.0  0.22730  0.03477  0.80120  1.0000
  H   H914      1.0  0.39830  0.26443  0.86417  1.0000
  Fe  Fe117     1.0  0.45315  0.36845  0.80804  1.0000
  H   H915      1.0  0.32441  0.18841  0.76719  1.0000
  H   H916      1.0  0.45460  0.44559  0.94572  1.0000
  H   H917      1.0  0.35044  0.14354  0.93496  1.0000
  H   H918      1.0  0.42794  0.16879  0.58070  1.0000
  C   C583      1.0  0.30171  0.10641  0.95689  1.0000
  Fe  Fe118     1.0  0.22655  0.16948  0.65456  1.0000
  S   S235      1.0  0.43180  0.34315  0.80886  1.0000
  H   H919      1.0  0.34240  0.10587  0.88216  1.0000
  N   N54       1.0  0.34589  0.41339  0.89977  1.0000
  H   H920      1.0  0.36599  0.12909  0.86206  1.0000
  H   H921      1.0  0.26797  0.15135  0.59401  1.0000
  C   C584      1.0  0.33990  0.11455  0.89962  1.0000
  C   C585      1.0  0.34971  0.39860  0.89238  1.0000
  H   H922      1.0  0.34446  0.38877  0.91100  1.0000
  H   H923      1.0  0.41464  0.13413  0.55182  1.0000
  C   C586      1.0  0.32801  0.21191  0.81294  1.0000
  H   H924      1.0  0.24190  0.07764  0.99612  1.0000
  H   H925      1.0  0.40675  0.23773  0.89694  1.0000
  H   H926      1.0  0.32154  0.21859  0.80027  1.0000
  C   C587      1.0  0.42144  0.13611  0.57478  1.0000
  C   C588      1.0  0.22256  0.35817  0.65750  1.0000
  H   H927      1.0  0.30657  0.19243  0.77004  1.0000
  H   H928      1.0  0.33942  0.12410  0.83822  1.0000
  H   H929      1.0  0.41135  0.16723  0.60663  1.0000
  C   C589      1.0  0.36342  0.13737  0.88039  1.0000
  H   H930      1.0  0.33076  0.13863  0.92027  1.0000
  H   H931      1.0  0.34728  0.15598  0.90374  1.0000
  H   H932      1.0  0.26455  0.12467  0.54149  1.0000
  H   H933      1.0  0.43310  0.24329  0.84552  1.0000
  H   H934      1.0  0.44933  0.42339  0.94701  1.0000
  N   N55       1.0  0.28215  0.13783  0.57696  1.0000
  C   C590      1.0  0.40733  0.09511  0.53279  1.0000
  H   H935      1.0  0.36844  0.15029  0.87076  1.0000
  C   C591      1.0  0.35513  0.47236  0.51835  1.0000
  H   H936      1.0  0.42685  0.28197  0.87005  1.0000
  Fe  Fe119     1.0  0.36929  0.46951  0.93087  1.0000
  H   H937      1.0  0.27068  0.11153  0.56637  1.0000
  S   S236      1.0  0.41561  0.48178  0.92468  1.0000
  C   C592      1.0  0.45122  0.98304  0.93867  1.0000
  C   C593      1.0  0.42980  0.27254  0.85556  1.0000
  S   S237      1.0  0.44703  0.04094  0.58868  1.0000
  C   C594      1.0  0.40189  0.25563  0.84909  1.0000
  H   H938      1.0  0.23910  0.05613  0.79152  1.0000
  H   H939      1.0  0.30645  0.15119  0.56155  1.0000
  H   H940      1.0  0.46246  0.00471  0.98801  1.0000
  N   N56       1.0  0.46005  0.99403  0.65961  1.0000
  C   C595      1.0  0.21969  0.11097  0.74700  1.0000
  H   H941      1.0  0.32626  0.46971  0.54058  1.0000
  H   H942      1.0  0.34593  0.45944  0.51830  1.0000
  S   S238      1.0  0.27854  0.40948  0.99180  1.0000
  H   H943      1.0  0.45563  0.99041  0.60822  1.0000
  H   H944      1.0  0.21911  0.17702  0.73689  1.0000
  H   H945      1.0  0.31483  0.42203  0.50684  1.0000
  H   H946      1.0  0.45163  0.99573  0.93339  1.0000
  C   C596      1.0  0.21905  0.08737  0.54383  1.0000
  C   C597      1.0  0.21908  0.09606  0.79719  1.0000
  H   H947      1.0  0.21987  0.36868  0.66839  1.0000
  H   H948      1.0  0.22510  0.05572  0.72403  1.0000
  Fe  Fe120     1.0  0.21918  0.39633  0.99756  1.0000
  H   H949      1.0  0.42206  0.11600  0.50411  1.0000
  Fe  Fe121     1.0  0.21830  0.03872  0.88422  1.0000
  C   C598      1.0  0.21991  0.05947  0.74609  1.0000
  H   H950      1.0  0.21862  0.10452  0.58257  1.0000
  C   C599      1.0  0.46207  0.99192  0.99203  1.0000
  C   C600      1.0  0.21987  0.09442  0.99771  1.0000
  H   H951      1.0  0.41744  0.48196  0.71072  1.0000
  C   C601      1.0  0.45429  0.98304  0.63077  1.0000
  C   C602      1.0  0.33596  0.48236  0.54224  1.0000
  C   C603      1.0  0.45737  0.98372  0.68903  1.0000
  N   N57       1.0  0.46402  0.98389  0.96104  1.0000
  N   N58       1.0  0.21561  0.04656  0.77145  1.0000
  S   S239      1.0  0.32436  0.11497  0.50153  1.0000
  S   S240      1.0  0.22191  0.34031  0.50138  1.0000
  H   H952      1.0  0.44781  0.96027  0.13147  1.0000
  S   S241      1.0  0.22756  0.82950  0.25169  1.0000
  H   H953      1.0  0.34859  0.48428  0.46333  1.0000
  S   S242      1.0  0.23059  0.79472  0.22478  1.0000
  H   H954      1.0  0.42999  0.96389  0.13930  1.0000
  Fe  Fe122     1.0  0.23881  0.82143  0.20830  1.0000
  S   S243      1.0  0.26296  0.83584  0.18266  1.0000
  C   C604      1.0  0.40477  0.50889  0.12214  1.0000
  Fe  Fe123     1.0  0.38383  0.91920  0.17230  1.0000
  S   S244      1.0  0.36534  0.89858  0.14418  1.0000
  S   S245      1.0  0.38667  0.94623  0.17166  1.0000
  Fe  Fe124     1.0  0.39755  0.89598  0.20335  1.0000
  S   S246      1.0  0.38007  0.87347  0.17732  1.0000
  S   S247      1.0  0.41923  0.89502  0.22893  1.0000
  Fe  Fe125     1.0  0.38544  0.88996  0.13338  1.0000
  S   S248      1.0  0.38944  0.88073  0.08299  1.0000
  Fe  Fe126     1.0  0.36129  0.88377  0.19029  1.0000
  S   S249      1.0  0.33749  0.86896  0.21660  1.0000
  S   S250      1.0  0.40401  0.91169  0.15831  1.0000
  S   S251      1.0  0.37864  0.90528  0.21950  1.0000
  C   C605      1.0  0.33204  0.90668  0.23518  1.0000
  H   H955      1.0  0.43055  0.53433  0.17714  1.0000
  N   N59       1.0  0.44844  0.48872  0.35938  1.0000
  Fe  Fe127     1.0  0.40423  0.49686  0.40684  1.0000
  H   H956      1.0  0.34154  0.90156  0.23451  1.0000
  S   S252      1.0  0.41782  0.51989  0.37655  1.0000
  H   H957      1.0  0.44100  0.89041  0.17536  1.0000
  H   H958      1.0  0.44823  0.86563  0.16577  1.0000
  S   S253      1.0  0.38419  0.49540  0.44147  1.0000
  H   H959      1.0  0.41289  0.84647  0.18181  1.0000
  C   C606      1.0  0.40250  0.97528  0.13873  1.0000
  S   S254      1.0  0.44394  0.52455  0.23032  1.0000
  C   C607      1.0  0.34003  0.48290  0.48397  1.0000
  H   H960      1.0  0.45084  0.50088  0.31326  1.0000
  N   N60       1.0  0.45076  0.98173  0.16188  1.0000
  C   C608      1.0  0.42520  0.50969  0.03468  1.0000
  C   C609      1.0  0.43761  0.51101  0.05572  1.0000
  C   C610      1.0  0.44628  0.52616  0.07187  1.0000
  C   C611      1.0  0.44255  0.54014  0.06733  1.0000
  C   C612      1.0  0.43021  0.53887  0.04613  1.0000
  C   C613      1.0  0.42145  0.52367  0.03014  1.0000
  C   C614      1.0  0.42610  0.88501  0.02047  1.0000
  H   H961      1.0  0.41233  0.51344  0.09993  1.0000
  H   H962      1.0  0.42713  0.54959  0.04276  1.0000
  H   H963      1.0  0.44602  0.86677  0.12261  1.0000
  C   C615      1.0  0.42434  0.52109  0.33535  1.0000
  C   C616      1.0  0.41871  0.50739  0.31398  1.0000
  C   C617      1.0  0.42482  0.50871  0.28188  1.0000
  C   C618      1.0  0.43649  0.52376  0.27073  1.0000
  C   C619      1.0  0.44196  0.53752  0.29192  1.0000
  C   C620      1.0  0.43587  0.53618  0.32405  1.0000
  H   H964      1.0  0.40958  0.49583  0.32213  1.0000
  H   H965      1.0  0.42044  0.49802  0.26560  1.0000
  H   H966      1.0  0.39598  0.51493  0.12301  1.0000
  H   H967      1.0  0.44022  0.54688  0.34035  1.0000
  C   C621      1.0  0.40864  0.88758  0.06464  1.0000
  C   C622      1.0  0.41075  0.88076  0.03440  1.0000
  H   H968      1.0  0.41120  0.50956  0.20356  1.0000
  C   C623      1.0  0.43944  0.89592  0.03702  1.0000
  C   C624      1.0  0.43727  0.90293  0.06692  1.0000
  C   C625      1.0  0.42195  0.89897  0.08045  1.0000
  N   N61       1.0  0.41285  0.90706  0.47386  1.0000
  H   H969      1.0  0.39716  0.49315  0.17964  1.0000
  H   H970      1.0  0.39811  0.49521  0.11879  1.0000
  H   H971      1.0  0.42049  0.90445  0.10346  1.0000
  C   C626      1.0  0.42365  0.89796  0.27110  1.0000
  C   C627      1.0  0.43862  0.89892  0.28150  1.0000
  C   C628      1.0  0.44252  0.90086  0.31479  1.0000
  C   C629      1.0  0.43140  0.90169  0.33811  1.0000
  C   C630      1.0  0.41645  0.90077  0.32769  1.0000
  C   C631      1.0  0.41260  0.89900  0.29437  1.0000
  H   H972      1.0  0.44725  0.89811  0.26373  1.0000
  H   H973      1.0  0.45405  0.90150  0.32243  1.0000
  H   H974      1.0  0.40774  0.90136  0.34549  1.0000
  H   H975      1.0  0.40103  0.89822  0.28677  1.0000
  C   C632      1.0  0.31687  0.85935  0.20631  1.0000
  C   C633      1.0  0.31155  0.85836  0.17432  1.0000
  C   C634      1.0  0.29507  0.85114  0.16772  1.0000
  C   C635      1.0  0.28363  0.84458  0.19279  1.0000
  C   C636      1.0  0.28897  0.84544  0.22474  1.0000
  C   C637      1.0  0.30544  0.85281  0.23139  1.0000
  H   H976      1.0  0.32010  0.86311  0.15463  1.0000
  H   H977      1.0  0.29114  0.85050  0.14289  1.0000
  H   H978      1.0  0.28040  0.84048  0.24434  1.0000
  H   H979      1.0  0.30935  0.85339  0.25623  1.0000
  H   H980      1.0  0.41140  0.95316  0.06245  1.0000
  C   C638      1.0  0.39698  0.95780  0.13768  1.0000
  H   H981      1.0  0.43400  0.50849  0.12823  1.0000
  H   H982      1.0  0.45092  0.51366  0.34810  1.0000
  C   C639      1.0  0.40019  0.94986  0.11004  1.0000
  H   H983      1.0  0.43493  0.84777  0.14372  1.0000
  N   N62       1.0  0.33109  0.91420  0.20372  1.0000
  H   H984      1.0  0.39589  0.93639  0.10886  1.0000
  H   H985      1.0  0.45301  0.98070  0.21371  1.0000
  C   C640      1.0  0.41833  0.92063  0.44983  1.0000
  H   H986      1.0  0.22336  0.94652  0.32598  1.0000
  C   C641      1.0  0.42344  0.53095  0.15456  1.0000
  H   H987      1.0  0.35597  0.92113  0.19255  1.0000
  C   C642      1.0  0.41491  0.97689  0.08520  1.0000
  C   C643      1.0  0.41504  0.86192  0.12457  1.0000
  H   H988      1.0  0.44905  0.50287  0.40324  1.0000
  C   C644      1.0  0.34692  0.92682  0.19492  1.0000
  H   H989      1.0  0.34682  0.93274  0.17119  1.0000
  H   H990      1.0  0.31394  0.89145  0.18372  1.0000
  H   H991      1.0  0.33428  0.89443  0.17605  1.0000
  C   C645      1.0  0.43294  0.88582  0.15421  1.0000
  H   H992      1.0  0.21911  0.95824  0.39442  1.0000
  C   C646      1.0  0.31940  0.92218  0.20655  1.0000
  H   H993      1.0  0.42603  0.86455  0.20375  1.0000
  H   H994      1.0  0.32068  0.89612  0.24136  1.0000
  C   C647      1.0  0.41796  0.86034  0.18254  1.0000
  H   H995      1.0  0.39165  0.88575  0.48534  1.0000
  H   H996      1.0  0.43108  0.92880  0.45336  1.0000
  H   H997      1.0  0.45088  0.54919  0.28363  1.0000
  N   N63       1.0  0.41453  0.51272  0.15178  1.0000
  Fe  Fe128     1.0  0.46194  0.54696  0.20370  1.0000
  C   C648      1.0  0.43947  0.86162  0.14572  1.0000
  H   H998      1.0  0.40513  0.86637  0.12805  1.0000
  H   H999      1.0  0.41535  0.53783  0.15522  1.0000
  H   H1000     1.0  0.33486  0.91599  0.25547  1.0000
  H   H1001     1.0  0.40796  0.86445  0.18770  1.0000
  H   H1002     1.0  0.44051  0.50022  0.05960  1.0000
  H   H1003     1.0  0.40052  0.87181  0.02220  1.0000
  C   C649      1.0  0.32599  0.90105  0.17818  1.0000
  H   H1004     1.0  0.36977  0.50399  0.49919  1.0000
  H   H1005     1.0  0.44754  0.91138  0.07981  1.0000
  H   H1006     1.0  0.32556  0.90626  0.15388  1.0000
  C   C650      1.0  0.21913  0.93722  0.34584  1.0000
  H   H1007     1.0  0.43559  0.90508  0.47671  1.0000
  H   H1008     1.0  0.38817  0.90305  0.46893  1.0000
  H   H1009     1.0  0.43342  0.50688  0.17158  1.0000
  H   H1010     1.0  0.32294  0.93229  0.22538  1.0000
  H   H1011     1.0  0.43187  0.53577  0.13373  1.0000
  H   H1012     1.0  0.22915  0.93970  0.36286  1.0000
  S   S255      1.0  0.41851  0.49217  0.44651  1.0000
  N   N64       1.0  0.42635  0.86741  0.15176  1.0000
  C   C651      1.0  0.42584  0.50425  0.14964  1.0000
  C   C652      1.0  0.40898  0.95939  0.08377  1.0000
  S   S256      1.0  0.45703  0.56801  0.18169  1.0000
  C   C653      1.0  0.40410  0.50685  0.18084  1.0000
  H   H1013     1.0  0.42600  0.49094  0.36789  1.0000
  H   H1014     1.0  0.30736  0.91294  0.21344  1.0000
  C   C654      1.0  0.45490  0.50372  0.33887  1.0000
  S   S257      1.0  0.45906  0.89955  0.02354  1.0000
  H   H1015     1.0  0.42331  0.89062  0.15777  1.0000
  H   H1016     1.0  0.35130  0.93693  0.21365  1.0000
  H   H1017     1.0  0.41729  0.91557  0.42446  1.0000
  H   H1018     1.0  0.40957  0.84809  0.12227  1.0000
  H   H1019     1.0  0.42280  0.89200  0.44607  1.0000
  H   H1020     1.0  0.41897  0.88664  0.48830  1.0000
  S   S258      1.0  0.21718  0.81589  0.17648  1.0000
  H   H1021     1.0  0.43980  0.89161  0.13187  1.0000
  C   C655      1.0  0.39615  0.89604  0.46740  1.0000
  H   H1022     1.0  0.45197  0.96218  0.19172  1.0000
  H   H1023     1.0  0.39992  0.98148  0.15990  1.0000
  H   H1024     1.0  0.44469  0.97694  0.11129  1.0000
  S   S259      1.0  0.43539  0.90347  0.38050  1.0000
  H   H1025     1.0  0.31829  0.92780  0.18308  1.0000
  Fe  Fe129     1.0  0.39773  0.48851  0.47984  1.0000
  H   H1026     1.0  0.33466  0.49229  0.48082  1.0000
  C   C656      1.0  0.44740  0.97238  0.19267  1.0000
  S   S260      1.0  0.45281  0.55924  0.08809  1.0000
  H   H1027     1.0  0.41953  0.49048  0.14738  1.0000
  H   H1028     1.0  0.42100  0.86687  0.10088  1.0000
  H   H1029     1.0  0.21750  0.73437  0.24287  1.0000
  C   C657      1.0  0.45346  0.49334  0.39338  1.0000
  H   H1030     1.0  0.41125  0.92858  0.45170  1.0000
  H   H1031     1.0  0.39552  0.51312  0.18346  1.0000
  H   H1032     1.0  0.41147  0.52262  0.01518  1.0000
  S   S261      1.0  0.45952  0.89119  0.44621  1.0000
  H   H1033     1.0  0.45920  0.96614  0.46300  1.0000
  S   S262      1.0  0.41397  0.48999  0.01698  1.0000
  H   H1034     1.0  0.45589  0.52703  0.08778  1.0000
  H   H1035     1.0  0.39497  0.89023  0.44263  1.0000
  C   C658      1.0  0.44302  0.97022  0.13477  1.0000
  H   H1036     1.0  0.43434  0.96651  0.19788  1.0000
  Fe  Fe130     1.0  0.45885  0.90811  0.40575  1.0000
  C   C659      1.0  0.42298  0.89725  0.47111  1.0000
  Fe  Fe131     1.0  0.21768  0.80232  0.26558  1.0000
  S   S263      1.0  0.21634  0.79429  0.31838  1.0000
  H   H1037     1.0  0.21638  0.92462  0.33462  1.0000
  H   H1038     1.0  0.25968  0.78419  0.67614  1.0000
  H   H1039     1.0  0.44616  0.51204  0.93620  1.0000
  S   S264      1.0  0.39835  0.49750  0.53254  1.0000
  S   S265      1.0  0.22648  0.79660  0.73130  1.0000
  H   H1040     1.0  0.28684  0.80302  0.65695  1.0000
  Fe  Fe132     1.0  0.24119  0.82427  0.72849  1.0000
  S   S266      1.0  0.26803  0.83145  0.73610  1.0000
  S   S267      1.0  0.22894  0.82774  0.68394  1.0000
  Fe  Fe133     1.0  0.38920  0.92522  0.67570  1.0000
  S   S268      1.0  0.37520  0.90455  0.64177  1.0000
  S   S269      1.0  0.39367  0.95251  0.66928  1.0000
  Fe  Fe134     1.0  0.39109  0.90122  0.72757  1.0000
  S   S270      1.0  0.37663  0.87841  0.69749  1.0000
  S   S271      1.0  0.39954  0.90511  0.78026  1.0000
  Fe  Fe135     1.0  0.39221  0.89285  0.65564  1.0000
  S   S272      1.0  0.40155  0.88026  0.61585  1.0000
  Fe  Fe136     1.0  0.36049  0.89184  0.68569  1.0000
  S   S273      1.0  0.33360  0.88472  0.67800  1.0000
  S   S274      1.0  0.40750  0.91467  0.68644  1.0000
  S   S275      1.0  0.37375  0.91342  0.71879  1.0000
  H   H1041     1.0  0.39812  0.49459  0.73018  1.0000
  C   C660      1.0  0.45312  0.54148  0.96670  1.0000
  N   N65       1.0  0.44301  0.53535  0.93778  1.0000
  H   H1042     1.0  0.45999  0.52807  0.91114  1.0000
  H   H1043     1.0  0.42770  0.87926  0.99780  1.0000
  S   S276      1.0  0.41085  0.51478  0.86348  1.0000
  H   H1044     1.0  0.35244  0.95452  0.72443  1.0000
  H   H1045     1.0  0.24288  0.78958  0.66842  1.0000
  C   C661      1.0  0.44520  0.54937  0.91583  1.0000
  H   H1046     1.0  0.35555  0.51163  0.51655  1.0000
  C   C662      1.0  0.21602  0.93138  0.86434  1.0000
  H   H1047     1.0  0.43726  0.52875  0.71711  1.0000
  H   H1048     1.0  0.22374  0.94000  0.84564  1.0000
  C   C663      1.0  0.39847  0.88728  0.88556  1.0000
  H   H1049     1.0  0.44477  0.93185  0.57937  1.0000
  C   C664      1.0  0.41614  0.51223  0.54951  1.0000
  C   C665      1.0  0.42936  0.52117  0.53004  1.0000
  C   C666      1.0  0.44298  0.53336  0.54412  1.0000
  C   C667      1.0  0.44371  0.53653  0.57788  1.0000
  C   C668      1.0  0.43056  0.52740  0.59746  1.0000
  C   C669      1.0  0.41680  0.51542  0.58327  1.0000
  H   H1050     1.0  0.42567  0.53224  0.68574  1.0000
  H   H1051     1.0  0.45297  0.54053  0.52868  1.0000
  H   H1052     1.0  0.43079  0.53014  0.62320  1.0000
  H   H1053     1.0  0.40650  0.50877  0.59831  1.0000
  C   C670      1.0  0.42517  0.51714  0.83208  1.0000
  C   C671      1.0  0.43131  0.50492  0.82535  1.0000
  C   C672      1.0  0.44271  0.50731  0.80019  1.0000
  C   C673      1.0  0.44810  0.52192  0.78159  1.0000
  C   C674      1.0  0.44202  0.53418  0.78841  1.0000
  C   C675      1.0  0.43059  0.53178  0.81357  1.0000
  H   H1054     1.0  0.42721  0.49358  0.83937  1.0000
  H   H1055     1.0  0.44731  0.49772  0.79500  1.0000
  H   H1056     1.0  0.43541  0.49490  0.68969  1.0000
  H   H1057     1.0  0.42591  0.54131  0.81866  1.0000
  C   C676      1.0  0.41818  0.89211  0.59149  1.0000
  C   C677      1.0  0.42372  0.88408  0.56694  1.0000
  C   C678      1.0  0.43682  0.89321  0.54687  1.0000
  C   C679      1.0  0.44444  0.91047  0.55122  1.0000
  C   C680      1.0  0.43894  0.91849  0.57583  1.0000
  C   C681      1.0  0.42582  0.90938  0.59578  1.0000
  H   H1058     1.0  0.41790  0.87070  0.56364  1.0000
  H   H1059     1.0  0.36487  0.94328  0.71410  1.0000
  H   H1060     1.0  0.40733  0.89996  0.87988  1.0000
  H   H1061     1.0  0.42165  0.91570  0.61456  1.0000
  C   C682      1.0  0.41449  0.89953  0.79744  1.0000
  C   C683      1.0  0.42413  0.90983  0.82193  1.0000
  C   C684      1.0  0.43458  0.90476  0.83955  1.0000
  C   C685      1.0  0.43522  0.88913  0.83328  1.0000
  C   C686      1.0  0.42581  0.87898  0.80839  1.0000
  C   C687      1.0  0.41559  0.88419  0.79036  1.0000
  H   H1062     1.0  0.42331  0.92169  0.82762  1.0000
  H   H1063     1.0  0.44183  0.91276  0.85846  1.0000
  H   H1064     1.0  0.42625  0.86688  0.80331  1.0000
  H   H1065     1.0  0.40811  0.87606  0.77185  1.0000
  C   C688      1.0  0.31556  0.86986  0.69482  1.0000
  C   C689      1.0  0.31538  0.85849  0.71861  1.0000
  C   C690      1.0  0.30074  0.84701  0.73109  1.0000
  C   C691      1.0  0.28607  0.84673  0.72013  1.0000
  C   C692      1.0  0.28624  0.85807  0.69627  1.0000
  C   C693      1.0  0.30088  0.86953  0.68374  1.0000
  H   H1066     1.0  0.32651  0.85854  0.72742  1.0000
  H   H1067     1.0  0.30080  0.83830  0.74947  1.0000
  H   H1068     1.0  0.27511  0.85809  0.68758  1.0000
  H   H1069     1.0  0.30083  0.87823  0.66534  1.0000
  H   H1070     1.0  0.38819  0.85555  0.90500  1.0000
  C   C694      1.0  0.40483  0.96347  0.63557  1.0000
  N   N66       1.0  0.26497  0.80599  0.64682  1.0000
  C   C695      1.0  0.41787  0.96446  0.58296  1.0000
  C   C696      1.0  0.40908  0.95527  0.60962  1.0000
  C   C697      1.0  0.25934  0.81972  0.64363  1.0000
  H   H1071     1.0  0.42108  0.95807  0.56287  1.0000
  H   H1072     1.0  0.40552  0.94186  0.60999  1.0000
  H   H1073     1.0  0.26608  0.82859  0.62435  1.0000
  H   H1074     1.0  0.25768  0.80161  0.69702  1.0000
  H   H1075     1.0  0.24648  0.81486  0.63732  1.0000
  H   H1076     1.0  0.44008  0.52332  0.67582  1.0000
  H   H1077     1.0  0.24955  0.79097  0.60959  1.0000
  H   H1078     1.0  0.28932  0.82180  0.63567  1.0000
  H   H1079     1.0  0.34146  0.48356  0.56658  1.0000
  H   H1080     1.0  0.34153  0.91636  0.71816  1.0000
  H   H1081     1.0  0.26900  0.80449  0.59532  1.0000
  H   H1082     1.0  0.26081  0.82702  0.66677  1.0000
  Fe  Fe137     1.0  0.40103  0.48358  0.96851  1.0000
  C   C698      1.0  0.40308  0.89349  0.94293  1.0000
  H   H1083     1.0  0.40624  0.92151  0.51035  1.0000
  C   C699      1.0  0.46309  0.96684  0.96739  1.0000
  H   H1084     1.0  0.40167  0.51580  0.71991  1.0000
  H   H1085     1.0  0.22337  0.93236  0.88616  1.0000
  Fe  Fe138     1.0  0.46327  0.89578  0.89776  1.0000
  H   H1086     1.0  0.46387  0.97517  0.68726  1.0000
  H   H1087     1.0  0.22648  0.76696  0.94828  1.0000
  H   H1088     1.0  0.28427  0.82006  0.67819  1.0000
  H   H1089     1.0  0.43245  0.49862  0.73184  1.0000
  H   H1090     1.0  0.45010  0.55107  0.98053  1.0000
  H   H1091     1.0  0.40026  0.48784  0.67162  1.0000
  H   H1092     1.0  0.39176  0.89552  0.94580  1.0000
  C   C700      1.0  0.38931  0.86500  0.92457  1.0000
  H   H1093     1.0  0.41280  0.90580  0.93790  1.0000
  H   H1094     1.0  0.44145  0.97493  0.63356  1.0000
  N   N67       1.0  0.40205  0.88124  0.91664  1.0000
  H   H1095     1.0  0.41037  0.90444  0.52594  1.0000
  C   C701      1.0  0.36048  0.50180  0.51858  1.0000
  H   H1096     1.0  0.42724  0.89111  0.90657  1.0000
  H   H1097     1.0  0.38653  0.88803  0.88621  1.0000
  H   H1098     1.0  0.40563  0.88926  0.96679  1.0000
  C   C702      1.0  0.41399  0.91431  0.50706  1.0000
  C   C703      1.0  0.40758  0.50712  0.72569  1.0000
  H   H1099     1.0  0.37755  0.86608  0.92746  1.0000
  C   C704      1.0  0.42273  0.98190  0.58248  1.0000
  H   H1100     1.0  0.36676  0.50366  0.54219  1.0000
  C   C705      1.0  0.42629  0.49497  0.70818  1.0000
  C   C706      1.0  0.26244  0.79642  0.61585  1.0000
  C   C707      1.0  0.41741  0.87920  0.91345  1.0000
  S   S277      1.0  0.46179  0.52376  0.74910  1.0000
  S   S278      1.0  0.46040  0.92270  0.52572  1.0000
  H   H1101     1.0  0.44608  0.54549  0.77432  1.0000
  C   C708      1.0  0.25591  0.79483  0.67322  1.0000
  S   S279      1.0  0.22451  0.83052  0.76276  1.0000
  H   H1102     1.0  0.42383  0.51651  0.96335  1.0000
  S   S280      1.0  0.44654  0.88123  0.85762  1.0000
  H   H1103     1.0  0.42078  0.87503  0.93653  1.0000
  H   H1104     1.0  0.43924  0.97573  0.94934  1.0000
  H   H1105     1.0  0.41809  0.52379  0.92728  1.0000
  N   N68       1.0  0.41864  0.50650  0.69922  1.0000
  H   H1106     1.0  0.39875  0.87899  0.86465  1.0000
  H   H1107     1.0  0.43974  0.51753  0.89872  1.0000
  S   S281      1.0  0.38699  0.49567  0.94184  1.0000
  H   H1108     1.0  0.44174  0.55905  0.92811  1.0000
  H   H1109     1.0  0.26654  0.78593  0.61730  1.0000
  H   H1110     1.0  0.41701  0.86985  0.89416  1.0000
  C   C709      1.0  0.28211  0.81299  0.65464  1.0000
  Fe  Fe139     1.0  0.40070  0.49252  0.89733  1.0000
  H   H1111     1.0  0.39176  0.86002  0.94771  1.0000
  H   H1112     1.0  0.40399  0.50900  0.66095  1.0000
  H   H1113     1.0  0.45232  0.97705  0.91500  1.0000
  C   C710      1.0  0.40976  0.50049  0.66876  1.0000
  H   H1114     1.0  0.44107  0.88688  0.52826  1.0000
  H   H1115     1.0  0.46402  0.96025  0.94436  1.0000
  N   N69       1.0  0.34361  0.93629  0.68583  1.0000
  C   C711      1.0  0.33415  0.92275  0.70805  1.0000
  C   C712      1.0  0.33332  0.94422  0.67258  1.0000
  C   C713      1.0  0.35015  0.92929  0.65873  1.0000
  C   C714      1.0  0.35685  0.94888  0.70385  1.0000
  C   C715      1.0  0.42615  0.52777  0.94838  1.0000
  H   H1116     1.0  0.32411  0.91295  0.69519  1.0000
  H   H1117     1.0  0.32907  0.92751  0.72894  1.0000
  H   H1118     1.0  0.34014  0.95448  0.65568  1.0000
  H   H1119     1.0  0.32325  0.93503  0.65876  1.0000
  H   H1120     1.0  0.32816  0.94964  0.69235  1.0000
  H   H1121     1.0  0.35796  0.92329  0.66798  1.0000
  H   H1122     1.0  0.35754  0.93913  0.64158  1.0000
  H   H1123     1.0  0.34056  0.91952  0.64481  1.0000
  H   H1124     1.0  0.36442  0.95913  0.68766  1.0000
  H   H1125     1.0  0.42255  0.53672  0.96296  1.0000
  C   C716      1.0  0.44745  0.52270  0.92022  1.0000
  H   H1126     1.0  0.43771  0.54500  0.89372  1.0000
  H   H1127     1.0  0.45780  0.55546  0.90735  1.0000
  H   H1128     1.0  0.45150  0.53116  0.98390  1.0000
  H   H1129     1.0  0.41398  0.51153  0.74906  1.0000
  H   H1130     1.0  0.41782  0.49974  0.64849  1.0000
  S   S282      1.0  0.46442  0.56430  0.69212  1.0000
  C   C717      1.0  0.43093  0.52341  0.69420  1.0000
  S   S283      1.0  0.45924  0.91422  0.93251  1.0000
  S   S284      1.0  0.46062  0.55305  0.59379  1.0000
  C   C718      1.0  0.40950  0.98086  0.63483  1.0000
  H   H1131     1.0  0.44448  0.97585  0.69270  1.0000
  H   H1132     1.0  0.42641  0.92295  0.51242  1.0000
  H   H1133     1.0  0.33031  0.49164  0.54115  1.0000
  H   H1134     1.0  0.46090  0.97471  0.62685  1.0000
  H   H1135     1.0  0.45168  0.95916  0.97973  1.0000
  H   H1136     1.0  0.42897  0.51902  0.50399  1.0000
  N   N70       1.0  0.34790  0.48487  0.51578  1.0000
  Fe  Fe140     1.0  0.69888  0.13981  0.28632  1.0000
  H   H1137     1.0  0.60031  0.03218  0.28488  1.0000
  S   S285      1.0  0.67275  0.13546  0.29717  1.0000
  H   H1138     1.0  0.70855  0.13916  0.41724  1.0000
  H   H1139     1.0  0.49988  0.46865  0.20219  1.0000
  Fe  Fe141     1.0  0.58238  0.06537  0.30525  1.0000
  S   S286      1.0  0.56738  0.04821  0.26619  1.0000
  S   S287      1.0  0.60885  0.06940  0.30385  1.0000
  Fe  Fe142     1.0  0.55225  0.06520  0.34173  1.0000
  S   S288      1.0  0.53547  0.04745  0.30610  1.0000
  S   S289      1.0  0.54170  0.07751  0.37953  1.0000
  Fe  Fe143     1.0  0.55198  0.03381  0.30763  1.0000
  S   S290      1.0  0.54470  0.00577  0.30548  1.0000
  Fe  Fe144     1.0  0.55226  0.06340  0.26824  1.0000
  S   S291      1.0  0.54359  0.07367  0.22549  1.0000
  S   S292      1.0  0.56740  0.05015  0.34676  1.0000
  S   S293      1.0  0.56856  0.08197  0.30373  1.0000
  Fe  Fe145     1.0  0.47640  0.03643  0.03188  1.0000
  S   S294      1.0  0.48004  0.05713  0.06857  1.0000
  H   H1140     1.0  0.67298  0.12350  0.43761  1.0000
  Fe  Fe146     1.0  0.46963  0.03722  0.10603  1.0000
  S   S295      1.0  0.47841  0.03237  0.15465  1.0000
  H   H1141     1.0  0.57131  0.99897  0.33584  1.0000
  Fe  Fe147     1.0  0.48563  0.41013  0.33069  1.0000
  S   S296      1.0  0.47472  0.42161  0.29423  1.0000
  S   S297      1.0  0.50517  0.43010  0.35971  1.0000
  Fe  Fe148     1.0  0.47701  0.40264  0.25863  1.0000
  S   S298      1.0  0.48205  0.40528  0.20398  1.0000
  S   S299      1.0  0.48932  0.39225  0.29365  1.0000
  Fe  Fe149     1.0  0.54998  0.46762  0.08718  1.0000
  H   H1142     1.0  0.58305  0.03324  0.30437  1.0000
  S   S300      1.0  0.54600  0.45553  0.13706  1.0000
  N   N71       1.0  0.51015  0.47941  0.15620  1.0000
  H   H1143     1.0  0.48147  0.36636  0.16979  1.0000
  S   S301      1.0  0.56885  0.46839  0.04937  1.0000
  C   C719      1.0  0.49994  0.41926  0.18579  1.0000
  C   C720      1.0  0.50061  0.42157  0.15191  1.0000
  C   C721      1.0  0.51462  0.43257  0.13649  1.0000
  C   C722      1.0  0.52816  0.44123  0.15485  1.0000
  C   C723      1.0  0.52752  0.43879  0.18868  1.0000
  C   C724      1.0  0.51346  0.42797  0.20414  1.0000
  H   H1144     1.0  0.49024  0.41481  0.13748  1.0000
  H   H1145     1.0  0.51500  0.43417  0.11040  1.0000
  H   H1146     1.0  0.53796  0.44538  0.20306  1.0000
  H   H1147     1.0  0.51314  0.42625  0.23020  1.0000
  C   C725      1.0  0.51066  0.43038  0.40091  1.0000
  C   C726      1.0  0.52226  0.44508  0.41372  1.0000
  C   C727      1.0  0.52708  0.44599  0.44629  1.0000
  C   C728      1.0  0.52051  0.43207  0.46625  1.0000
  C   C729      1.0  0.50893  0.41737  0.45349  1.0000
  C   C730      1.0  0.50392  0.41655  0.42104  1.0000
  H   H1148     1.0  0.52756  0.45582  0.39826  1.0000
  H   H1149     1.0  0.53600  0.45739  0.45574  1.0000
  H   H1150     1.0  0.50380  0.40652  0.46875  1.0000
  H   H1151     1.0  0.49501  0.40515  0.41147  1.0000
  C   C731      1.0  0.49434  0.45897  0.45276  1.0000
  H   H1152     1.0  0.52671  0.04217  0.02443  1.0000
  H   H1153     1.0  0.61492  0.04203  0.33612  1.0000
  H   H1154     1.0  0.53881  0.01479  0.37153  1.0000
  C   C732      1.0  0.53499  0.04899  0.04422  1.0000
  C   C733      1.0  0.52961  0.06569  0.41164  1.0000
  C   C734      1.0  0.52902  0.04978  0.41855  1.0000
  C   C735      1.0  0.51979  0.04094  0.44506  1.0000
  C   C736      1.0  0.51076  0.04772  0.46441  1.0000
  C   C737      1.0  0.51108  0.06350  0.45707  1.0000
  C   C738      1.0  0.52059  0.07251  0.43093  1.0000
  H   H1155     1.0  0.53598  0.04446  0.40399  1.0000
  C   C739      1.0  0.53387  0.99384  0.33864  1.0000
  H   H1156     1.0  0.60743  0.03099  0.37344  1.0000
  H   H1157     1.0  0.52108  0.08487  0.42589  1.0000
  C   C740      1.0  0.52574  0.06187  0.20521  1.0000
  C   C741      1.0  0.52065  0.06919  0.17991  1.0000
  C   C742      1.0  0.50624  0.06031  0.16392  1.0000
  C   C743      1.0  0.49680  0.04403  0.17323  1.0000
  C   C744      1.0  0.50186  0.03677  0.19868  1.0000
  C   C745      1.0  0.51631  0.04560  0.21449  1.0000
  H   H1158     1.0  0.52779  0.08188  0.17297  1.0000
  H   H1159     1.0  0.50226  0.06619  0.14494  1.0000
  H   H1160     1.0  0.49460  0.02424  0.20625  1.0000
  H   H1161     1.0  0.52010  0.03984  0.23395  1.0000
  C   C746      1.0  0.65512  0.11690  0.29741  1.0000
  C   C747      1.0  0.65554  0.10099  0.29478  1.0000
  C   C748      1.0  0.64127  0.08665  0.29667  1.0000
  C   C749      1.0  0.62639  0.08799  0.30090  1.0000
  C   C750      1.0  0.62598  0.10391  0.30342  1.0000
  C   C751      1.0  0.64026  0.11824  0.30188  1.0000
  H   H1162     1.0  0.66684  0.09971  0.29138  1.0000
  H   H1163     1.0  0.64177  0.07442  0.29464  1.0000
  H   H1164     1.0  0.61468  0.10519  0.30677  1.0000
  H   H1165     1.0  0.63977  0.13047  0.30405  1.0000
  H   H1166     1.0  0.58170  0.01417  0.28503  1.0000
  H   H1167     1.0  0.51177  0.10541  0.32633  1.0000
  H   H1168     1.0  0.46807  0.43892  0.48464  1.0000
  H   H1169     1.0  0.48891  0.45788  0.16707  1.0000
  N   N72       1.0  0.49031  0.46010  0.48756  1.0000
  H   H1170     1.0  0.71424  0.11511  0.10685  1.0000
  H   H1171     1.0  0.52473  0.99750  0.41840  1.0000
  H   H1172     1.0  0.50308  0.98969  0.46161  1.0000
  H   H1173     1.0  0.53905  0.03993  0.05600  1.0000
  C   C752      1.0  0.69990  0.12860  0.40306  1.0000
  C   C753      1.0  0.60387  0.03446  0.34986  1.0000
  C   C754      1.0  0.48569  0.36145  0.23248  1.0000
  H   H1174     1.0  0.49535  0.06768  0.33595  1.0000
  H   H1175     1.0  0.50473  0.03567  0.06445  1.0000
  N   N73       1.0  0.47276  0.35061  0.21136  1.0000
  H   H1176     1.0  0.54279  0.05713  0.10705  1.0000
  C   C755      1.0  0.53310  0.00138  0.36864  1.0000
  H   H1177     1.0  0.54919  0.07575  0.08316  1.0000
  H   H1178     1.0  0.53290  0.47909  0.16854  1.0000
  H   H1179     1.0  0.51230  0.10479  0.28257  1.0000
  H   H1180     1.0  0.53297  0.07140  0.11190  1.0000
  N   N74       1.0  0.52716  0.05651  0.06800  1.0000
  C   C756      1.0  0.50928  0.07285  0.27632  1.0000
  H   H1181     1.0  0.54939  0.41488  0.48904  1.0000
  H   H1182     1.0  0.53647  0.09977  0.32738  1.0000
  C   C757      1.0  0.67526  0.11821  0.37340  1.0000
  H   H1183     1.0  0.56169  0.45216  0.49556  1.0000
  H   H1184     1.0  0.46759  0.48073  0.34765  1.0000
  H   H1185     1.0  0.61400  0.01569  0.30972  1.0000
  H   H1186     1.0  0.49608  0.06674  0.27513  1.0000
  H   H1187     1.0  0.50667  0.04839  0.10011  1.0000
  H   H1188     1.0  0.67083  0.10636  0.38715  1.0000
  H   H1189     1.0  0.71218  0.13185  0.13057  1.0000
  H   H1190     1.0  0.51694  0.03446  0.09718  1.0000
  S   S302      1.0  0.71056  0.13981  0.23745  1.0000
  C   C758      1.0  0.60287  0.00887  0.32393  1.0000
  C   C759      1.0  0.53203  0.09151  0.30566  1.0000
  C   C760      1.0  0.47815  0.35310  0.17696  1.0000
  H   H1191     1.0  0.53719  0.08186  0.30658  1.0000
  H   H1192     1.0  0.47876  0.32914  0.21696  1.0000
  H   H1193     1.0  0.48208  0.35968  0.25867  1.0000
  S   S303      1.0  0.49954  0.03609  0.49770  1.0000
  N   N75       1.0  0.57268  0.43463  0.48703  1.0000
  H   H1194     1.0  0.50426  0.06889  0.47193  1.0000
  H   H1195     1.0  0.49662  0.35870  0.22941  1.0000
  N   N76       1.0  0.68610  0.13230  0.39307  1.0000
  H   H1196     1.0  0.68171  0.15080  0.36520  1.0000
  H   H1197     1.0  0.69617  0.11722  0.41818  1.0000
  H   H1198     1.0  0.51331  0.06371  0.33664  1.0000
  H   H1199     1.0  0.49066  0.44573  0.44437  1.0000
  H   H1200     1.0  0.70953  0.11253  0.14966  1.0000
  H   H1201     1.0  0.48879  0.34994  0.17261  1.0000
  H   H1202     1.0  0.59581  0.45359  0.49681  1.0000
  H   H1203     1.0  0.69811  0.14595  0.35115  1.0000
  S   S304      1.0  0.53134  0.46608  0.05067  1.0000
  H   H1204     1.0  0.51297  0.06174  0.03199  1.0000
  C   C761      1.0  0.57922  0.01017  0.34964  1.0000
  H   H1205     1.0  0.59747  0.04289  0.35530  1.0000
  N   N77       1.0  0.59389  0.01960  0.33085  1.0000
  C   C762      1.0  0.46814  0.98924  0.15575  1.0000
  H   H1206     1.0  0.53700  0.09892  0.28337  1.0000
  H   H1207     1.0  0.58192  0.00599  0.37335  1.0000
  H   H1208     1.0  0.70662  0.12654  0.38156  1.0000
  H   H1209     1.0  0.51369  0.07998  0.25347  1.0000
  C   C763      1.0  0.58959  0.02495  0.29983  1.0000
  C   C764      1.0  0.56642  0.44680  0.47509  1.0000
  H   H1210     1.0  0.47101  0.99651  0.13282  1.0000
  H   H1211     1.0  0.56843  0.42074  0.44194  1.0000
  H   H1212     1.0  0.49910  0.46707  0.11192  1.0000
  H   H1213     1.0  0.59568  0.99762  0.30940  1.0000
  H   H1214     1.0  0.49405  0.43787  0.49980  1.0000
  H   H1215     1.0  0.60634  0.00459  0.34678  1.0000
  H   H1216     1.0  0.50739  0.46518  0.44815  1.0000
  C   C765      1.0  0.50857  0.07374  0.33513  1.0000
  C   C766      1.0  0.53855  0.06560  0.09360  1.0000
  C   C767      1.0  0.69177  0.14761  0.37344  1.0000
  H   H1217     1.0  0.51758  0.46522  0.12078  1.0000
  H   H1218     1.0  0.51246  0.08155  0.35762  1.0000
  C   C768      1.0  0.51329  0.04318  0.08310  1.0000
  C   C769      1.0  0.50108  0.46487  0.17655  1.0000
  H   H1219     1.0  0.51985  0.02888  0.45078  1.0000
  C   C770      1.0  0.52181  0.06824  0.05106  1.0000
  H   H1220     1.0  0.49476  0.09159  0.30441  1.0000
  H   H1221     1.0  0.66705  0.13772  0.41542  1.0000
  H   H1222     1.0  0.51405  0.06281  0.27617  1.0000
  N   N78       1.0  0.51445  0.08376  0.30544  1.0000
  C   C771      1.0  0.50801  0.09698  0.30464  1.0000
  H   H1223     1.0  0.57208  0.01790  0.35489  1.0000
  H   H1224     1.0  0.68535  0.14541  0.43757  1.0000
  H   H1225     1.0  0.53192  0.07824  0.03872  1.0000
  H   H1226     1.0  0.49489  0.00544  0.45989  1.0000
  C   C772      1.0  0.51111  0.47380  0.12229  1.0000
  H   H1227     1.0  0.50323  0.00232  0.49698  1.0000
  C   C773      1.0  0.67749  0.13484  0.42226  1.0000
  H   H1228     1.0  0.70024  0.15850  0.38709  1.0000
  H   H1229     1.0  0.68129  0.11616  0.35079  1.0000
  H   H1230     1.0  0.47436  0.99807  0.17570  1.0000
  H   H1231     1.0  0.58789  0.43705  0.44505  1.0000
  H   H1232     1.0  0.58312  0.41802  0.46713  1.0000
  N   N79       1.0  0.48031  0.98342  0.48568  1.0000
  S   S305      1.0  0.71249  0.12676  0.31088  1.0000
  C   C774      1.0  0.49609  0.99571  0.47560  1.0000
  H   H1233     1.0  0.51609  0.07440  0.06828  1.0000
  H   H1234     1.0  0.48899  0.37490  0.22692  1.0000
  H   H1235     1.0  0.57580  0.45737  0.46242  1.0000
  H   H1236     1.0  0.50710  0.45593  0.17722  1.0000
  H   H1237     1.0  0.47172  0.99314  0.00927  1.0000
  H   H1238     1.0  0.48837  0.46501  0.43703  1.0000
  H   H1239     1.0  0.66472  0.12063  0.36544  1.0000
  C   C775      1.0  0.52506  0.99154  0.39516  1.0000
  C   C776      1.0  0.57830  0.42728  0.45905  1.0000
  H   H1240     1.0  0.46906  0.98528  0.44136  1.0000
  H   H1241     1.0  0.55644  0.44085  0.45792  1.0000
  Fe  Fe150     1.0  0.55051  0.46874  0.01302  1.0000
  H   H1242     1.0  0.54553  0.05867  0.03235  1.0000
  H   H1243     1.0  0.47024  0.00209  0.49140  1.0000
  S   S306      1.0  0.46787  0.01692  0.07028  1.0000
  C   C777      1.0  0.46847  0.33297  0.22023  1.0000
  H   H1244     1.0  0.46865  0.34517  0.16030  1.0000
  C   C778      1.0  0.47284  0.45231  0.49233  1.0000
  C   C779      1.0  0.49619  0.47782  0.49800  1.0000
  H   H1245     1.0  0.46663  0.45864  0.47788  1.0000
  Fe  Fe151     1.0  0.69571  0.13089  0.78076  1.0000
  C   C780      1.0  0.68356  0.13801  0.91923  1.0000
  S   S307      1.0  0.66978  0.12695  0.77126  1.0000
  S   S308      1.0  0.55558  0.48083  0.51513  1.0000
  C   C781      1.0  0.70698  0.15815  0.66924  1.0000
  Fe  Fe152     1.0  0.57874  0.06223  0.81706  1.0000
  S   S309      1.0  0.56705  0.04350  0.77730  1.0000
  S   S310      1.0  0.60550  0.07118  0.82833  1.0000
  Fe  Fe153     1.0  0.54612  0.06064  0.84322  1.0000
  S   S311      1.0  0.53221  0.04204  0.80529  1.0000
  S   S312      1.0  0.53307  0.07188  0.87801  1.0000
  Fe  Fe154     1.0  0.54900  0.02940  0.81543  1.0000
  S   S313      1.0  0.54039  0.00119  0.81555  1.0000
  Fe  Fe155     1.0  0.55108  0.05751  0.77018  1.0000
  S   S314      1.0  0.54626  0.06471  0.71954  1.0000
  S   S315      1.0  0.56161  0.04688  0.85605  1.0000
  S   S316      1.0  0.56402  0.07737  0.80738  1.0000
  C   C782      1.0  0.49796  0.45126  0.50718  1.0000
  C   C783      1.0  0.53104  0.08566  0.77401  1.0000
  H   H1246     1.0  0.70451  0.17791  0.71844  1.0000
  H   H1247     1.0  0.67918  0.10558  0.86737  1.0000
  S   S317      1.0  0.47831  0.04611  0.65519  1.0000
  H   H1248     1.0  0.48163  0.98794  0.92280  1.0000
  Fe  Fe156     1.0  0.48000  0.39266  0.85106  1.0000
  S   S318      1.0  0.48646  0.41359  0.81569  1.0000
  S   S319      1.0  0.49043  0.39538  0.90180  1.0000
  Fe  Fe157     1.0  0.48337  0.39416  0.77673  1.0000
  S   S320      1.0  0.50005  0.39739  0.73288  1.0000
  S   S321      1.0  0.47922  0.37337  0.81262  1.0000
  S   S322      1.0  0.48304  0.06482  0.56099  1.0000
  Fe  Fe158     1.0  0.47264  0.04626  0.60124  1.0000
  S   S323      1.0  0.54034  0.46560  0.66107  1.0000
  Fe  Fe159     1.0  0.54051  0.45601  0.53609  1.0000
  S   S324      1.0  0.54638  0.45888  0.96064  1.0000
  S   S325      1.0  0.55874  0.45633  0.57264  1.0000
  C   C784      1.0  0.51035  0.41651  0.71262  1.0000
  C   C785      1.0  0.51590  0.41618  0.68049  1.0000
  C   C786      1.0  0.52480  0.43109  0.66410  1.0000
  C   C787      1.0  0.52863  0.44648  0.68007  1.0000
  C   C788      1.0  0.52323  0.44681  0.71235  1.0000
  C   C789      1.0  0.51394  0.43194  0.72840  1.0000
  H   H1249     1.0  0.51325  0.40430  0.66815  1.0000
  H   H1250     1.0  0.52893  0.43062  0.63934  1.0000
  H   H1251     1.0  0.52627  0.45864  0.72506  1.0000
  H   H1252     1.0  0.50983  0.43238  0.75317  1.0000
  C   C790      1.0  0.50512  0.41374  0.91826  1.0000
  C   C791      1.0  0.50840  0.41452  0.95166  1.0000
  C   C792      1.0  0.52053  0.42858  0.96537  1.0000
  C   C793      1.0  0.52974  0.44184  0.94557  1.0000
  C   C794      1.0  0.52627  0.44117  0.91224  1.0000
  C   C795      1.0  0.51385  0.42732  0.89874  1.0000
  H   H1253     1.0  0.50170  0.40407  0.96698  1.0000
  Fe  Fe160     1.0  0.57346  0.48211  0.55354  1.0000
  H   H1254     1.0  0.53330  0.45141  0.89680  1.0000
  H   H1255     1.0  0.51121  0.42705  0.87319  1.0000
  H   H1256     1.0  0.52152  0.39135  0.78062  1.0000
  C   C796      1.0  0.52399  0.99712  0.87418  1.0000
  H   H1257     1.0  0.53889  0.38262  0.81575  1.0000
  H   H1258     1.0  0.53027  0.01040  0.87810  1.0000
  H   H1259     1.0  0.48256  0.45032  0.95798  1.0000
  C   C797      1.0  0.52204  0.06014  0.91132  1.0000
  C   C798      1.0  0.52257  0.04475  0.91896  1.0000
  C   C799      1.0  0.51395  0.03586  0.94602  1.0000
  C   C800      1.0  0.50454  0.04213  0.96538  1.0000
  C   C801      1.0  0.50387  0.05745  0.95764  1.0000
  C   C802      1.0  0.51267  0.06645  0.93078  1.0000
  H   H1260     1.0  0.52976  0.03978  0.90416  1.0000
  H   H1261     1.0  0.51460  0.02406  0.95188  1.0000
  H   H1262     1.0  0.52063  0.10867  0.75304  1.0000
  H   H1263     1.0  0.51221  0.07836  0.92501  1.0000
  C   C803      1.0  0.52732  0.05829  0.70113  1.0000
  C   C804      1.0  0.52632  0.06326  0.66917  1.0000
  C   C805      1.0  0.51144  0.05920  0.65433  1.0000
  C   C806      1.0  0.49738  0.05044  0.67164  1.0000
  C   C807      1.0  0.49838  0.04536  0.70354  1.0000
  C   C808      1.0  0.51327  0.04903  0.71803  1.0000
  H   H1264     1.0  0.53713  0.07037  0.65584  1.0000
  H   H1265     1.0  0.51086  0.06322  0.62980  1.0000
  H   H1266     1.0  0.48757  0.03856  0.71713  1.0000
  H   H1267     1.0  0.51388  0.04490  0.74243  1.0000
  C   C809      1.0  0.65202  0.11090  0.78627  1.0000
  C   C810      1.0  0.65239  0.09847  0.80697  1.0000
  C   C811      1.0  0.63805  0.08640  0.81932  1.0000
  C   C812      1.0  0.62312  0.08636  0.81072  1.0000
  C   C813      1.0  0.62275  0.09864  0.78958  1.0000
  C   C814      1.0  0.63711  0.11086  0.77761  1.0000
  H   H1268     1.0  0.66370  0.09809  0.81341  1.0000
  H   H1269     1.0  0.63848  0.07689  0.83542  1.0000
  H   H1270     1.0  0.61141  0.09882  0.78276  1.0000
  H   H1271     1.0  0.63661  0.12036  0.76157  1.0000
  H   H1272     1.0  0.68203  0.16200  0.64211  1.0000
  N   N80       1.0  0.51626  0.08778  0.78426  1.0000
  H   H1273     1.0  0.68495  0.16415  0.73258  1.0000
  H   H1274     1.0  0.52994  0.07257  0.77711  1.0000
  H   H1275     1.0  0.55151  0.42857  0.82226  1.0000
  H   H1276     1.0  0.67379  0.16686  0.67924  1.0000
  C   C815      1.0  0.69585  0.16470  0.71895  1.0000
  C   C816      1.0  0.52650  0.98965  0.84525  1.0000
  H   H1277     1.0  0.54141  0.09377  0.78850  1.0000
  C   C817      1.0  0.68226  0.13737  0.86069  1.0000
  C   C818      1.0  0.51897  0.39481  0.84510  1.0000
  H   H1278     1.0  0.55509  0.40232  0.80962  1.0000
  H   H1279     1.0  0.67761  0.13397  0.66356  1.0000
  H   H1280     1.0  0.56404  0.41168  0.51379  1.0000
  H   H1281     1.0  0.50522  0.07871  0.73814  1.0000
  H   H1282     1.0  0.47856  0.99798  0.52749  1.0000
  H   H1283     1.0  0.67740  0.14731  0.86031  1.0000
  C   C819      1.0  0.65965  0.11964  0.89236  1.0000
  C   C820      1.0  0.50100  0.47522  0.69301  1.0000
  H   H1284     1.0  0.50733  0.10738  0.78689  1.0000
  H   H1285     1.0  0.48879  0.46816  0.68380  1.0000
  C   C821      1.0  0.68498  0.16712  0.66726  1.0000
  H   H1286     1.0  0.50781  0.46704  0.68941  1.0000
  C   C822      1.0  0.47967  0.99378  0.94603  1.0000
  H   H1287     1.0  0.50070  0.06320  0.76905  1.0000
  H   H1288     1.0  0.59121  0.43445  0.51857  1.0000
  C   C823      1.0  0.58607  0.44319  0.50916  1.0000
  H   H1289     1.0  0.70137  0.15775  0.73334  1.0000
  H   H1290     1.0  0.68004  0.13080  0.94215  1.0000
  H   H1291     1.0  0.49362  0.47917  0.52430  1.0000
  H   H1292     1.0  0.53398  0.08870  0.74785  1.0000
  H   H1293     1.0  0.52292  0.09198  0.83461  1.0000
  C   C824      1.0  0.46811  0.42147  0.89746  1.0000
  Fe  Fe161     1.0  0.48195  0.04283  0.52931  1.0000
  H   H1294     1.0  0.49158  0.07819  0.77090  1.0000
  N   N81       1.0  0.53296  0.40404  0.82439  1.0000
  C   C825      1.0  0.54438  0.39571  0.82505  1.0000
  H   H1295     1.0  0.54844  0.39529  0.85027  1.0000
  H   H1296     1.0  0.68007  0.10597  0.91101  1.0000
  C   C826      1.0  0.51822  0.10526  0.77918  1.0000
  C   C827      1.0  0.52776  0.40422  0.79063  1.0000
  H   H1297     1.0  0.50991  0.40045  0.84426  1.0000
  H   H1298     1.0  0.48201  0.01245  0.67709  1.0000
  H   H1299     1.0  0.69685  0.14385  0.91828  1.0000
  H   H1300     1.0  0.51926  0.41059  0.78923  1.0000
  H   H1301     1.0  0.67916  0.14832  0.92082  1.0000
  H   H1302     1.0  0.49998  0.47718  0.71969  1.0000
  S   S326      1.0  0.71187  0.13013  0.73893  1.0000
  C   C828      1.0  0.50284  0.07651  0.76474  1.0000
  H   H1303     1.0  0.65456  0.11154  0.87073  1.0000
  H   H1304     1.0  0.67810  0.12957  0.83835  1.0000
  H   H1305     1.0  0.49512  0.45170  0.53358  1.0000
  H   H1306     1.0  0.68573  0.13224  0.70204  1.0000
  H   H1307     1.0  0.48079  0.00671  0.94070  1.0000
  H   H1308     1.0  0.54415  0.42172  0.86270  1.0000
  S   S327      1.0  0.52772  0.46636  0.57205  1.0000
  N   N82       1.0  0.67724  0.12722  0.89036  1.0000
  H   H1309     1.0  0.53793  0.41086  0.77391  1.0000
  H   H1310     1.0  0.69688  0.11924  0.88745  1.0000
  H   H1311     1.0  0.69327  0.18042  0.66530  1.0000
  C   C829      1.0  0.68360  0.11390  0.88902  1.0000
  H   H1312     1.0  0.69547  0.14356  0.85891  1.0000
  H   H1313     1.0  0.47784  0.42820  0.95873  1.0000
  H   H1314     1.0  0.48961  0.99485  0.96242  1.0000
  C   C830      1.0  0.48133  0.43922  0.94257  1.0000
  H   H1315     1.0  0.48430  0.99624  0.65223  1.0000
  C   C831      1.0  0.47180  0.99196  0.50532  1.0000
  H   H1316     1.0  0.49335  0.44121  0.93233  1.0000
  C   C832      1.0  0.68076  0.13991  0.68803  1.0000
  H   H1317     1.0  0.51304  0.38156  0.83705  1.0000
  H   H1318     1.0  0.51222  0.99308  0.92115  1.0000
  H   H1319     1.0  0.65444  0.12933  0.89330  1.0000
  H   H1320     1.0  0.70473  0.15278  0.64418  1.0000
  N   N83       1.0  0.69214  0.15745  0.68584  1.0000
  H   H1321     1.0  0.65539  0.11177  0.91431  1.0000
  H   H1322     1.0  0.52837  0.11407  0.79339  1.0000
  C   C833      1.0  0.51303  0.08369  0.81911  1.0000
  H   H1323     1.0  0.50187  0.08493  0.82784  1.0000
  H   H1324     1.0  0.51181  0.07065  0.82386  1.0000
  S   S328      1.0  0.49425  0.03058  0.99951  1.0000
  C   C834      1.0  0.47725  0.00418  0.65556  1.0000
  H   H1325     1.0  0.53246  0.42811  0.83558  1.0000
  H   H1326     1.0  0.52220  0.39486  0.87112  1.0000
  C   C835      1.0  0.54064  0.42136  0.83679  1.0000
  Fe  Fe162     1.0  0.54702  0.46883  0.60701  1.0000
  H   H1327     1.0  0.48685  0.45298  0.88315  1.0000
  H   H1328     1.0  0.55546  0.42638  0.52623  1.0000
  H   H1329     1.0  0.66953  0.13891  0.70094  1.0000
  H   H1330     1.0  0.52316  0.42888  0.99099  1.0000
  S   S329      1.0  0.47361  0.02505  0.57090  1.0000
  C   C836      1.0  0.47511  0.45113  0.89470  1.0000
  N   N84       1.0  0.46963  0.43659  0.91649  1.0000
  C   C837      1.0  0.51371  0.98728  0.89845  1.0000
  H   H1331     1.0  0.49665  0.06241  0.97236  1.0000
  H   H1332     1.0  0.47965  0.01248  0.63413  1.0000
  H   H1333     1.0  0.47960  0.42273  0.88553  1.0000
  S   S330      1.0  0.70637  0.11855  0.81535  1.0000
  H   H1334     1.0  0.47633  0.46280  0.90809  1.0000
  H   H1335     1.0  0.71280  0.15111  0.68278  1.0000
  S   S331      1.0  0.52657  0.43247  0.50708  1.0000
  S   S332      1.0  0.71190  0.15667  0.79698  1.0000
  H   H1336     1.0  0.58221  0.44884  0.53058  1.0000
  H   H1337     1.0  0.51116  0.45693  0.50433  1.0000
  C   C838      1.0  0.55989  0.42128  0.50477  1.0000
  H   H1338     1.0  0.49868  0.48067  0.62988  1.0000
  H   H1339     1.0  0.51803  0.48045  0.63685  1.0000
  H   H1340     1.0  0.46936  0.45288  0.51834  1.0000
  H   H1341     1.0  0.46659  0.44941  0.87455  1.0000
  Fe  Fe163     1.0  0.69909  0.90566  0.07750  1.0000
  H   H1342     1.0  0.65228  0.84802  0.02182  1.0000
  S   S333      1.0  0.67681  0.90699  0.05557  1.0000
  S   S334      1.0  0.55988  0.49678  0.01345  1.0000
  Fe  Fe164     1.0  0.54203  0.49405  0.05337  1.0000
  S   S335      1.0  0.70213  0.88140  0.08094  1.0000
  S   S336      1.0  0.69636  0.78910  0.37526  1.0000
  S   S337      1.0  0.69779  0.82140  0.33496  1.0000
  H   H1343     1.0  0.69409  0.75603  0.31270  1.0000
  Fe  Fe165     1.0  0.68655  0.79367  0.32868  1.0000
  S   S338      1.0  0.65958  0.78077  0.32904  1.0000
  S   S339      1.0  0.67410  0.53341  0.01833  1.0000
  C   C839      1.0  0.56071  0.78846  0.25769  1.0000
  C   C840      1.0  0.63315  0.53815  0.05230  1.0000
  S   S340      1.0  0.60094  0.51881  0.05558  1.0000
  H   H1344     1.0  0.67660  0.71855  0.30785  1.0000
  S   S341      1.0  0.52621  0.50862  0.05087  1.0000
  H   H1345     1.0  0.58869  0.54514  0.07570  1.0000
  H   H1346     1.0  0.52994  0.71519  0.06064  1.0000
  H   H1347     1.0  0.60036  0.54895  0.02052  1.0000
  H   H1348     1.0  0.52835  0.78190  0.30693  1.0000
  C   C841      1.0  0.52926  0.87623  0.48744  1.0000
  C   C842      1.0  0.65071  0.85973  0.02414  1.0000
  H   H1349     1.0  0.69062  0.72973  0.33859  1.0000
  H   H1350     1.0  0.52926  0.91712  0.46243  1.0000
  H   H1351     1.0  0.52477  0.92470  0.37547  1.0000
  Fe  Fe166     1.0  0.56877  0.81480  0.43983  1.0000
  S   S342      1.0  0.54670  0.81404  0.46739  1.0000
  S   S343      1.0  0.57385  0.80780  0.38824  1.0000
  H   H1352     1.0  0.70528  0.85400  0.37167  1.0000
  C   C843      1.0  0.64709  0.89011  0.02976  1.0000
  C   C844      1.0  0.54811  0.70995  0.10619  1.0000
  S   S344      1.0  0.56677  0.77865  0.02511  1.0000
  S   S345      1.0  0.58241  0.84209  0.45115  1.0000
  H   H1353     1.0  0.63956  0.83082  0.45225  1.0000
  Fe  Fe167     1.0  0.49118  0.93520  0.42542  1.0000
  S   S346      1.0  0.48419  0.91401  0.38887  1.0000
  S   S347      1.0  0.50806  0.96236  0.42618  1.0000
  H   H1354     1.0  0.49063  0.48494  0.48397  1.0000
  Fe  Fe168     1.0  0.48549  0.89836  0.43160  1.0000
  S   S348      1.0  0.49751  0.87974  0.42138  1.0000
  S   S349      1.0  0.57584  0.82776  0.02114  1.0000
  S   S350      1.0  0.49407  0.92011  0.46671  1.0000
  H   H1355     1.0  0.56295  0.78435  0.23286  1.0000
  Fe  Fe169     1.0  0.49440  0.55752  0.16855  1.0000
  S   S351      1.0  0.49169  0.57897  0.14324  1.0000
  S   S352      1.0  0.51745  0.55327  0.16767  1.0000
  Fe  Fe170     1.0  0.48275  0.58439  0.19185  1.0000
  S   S353      1.0  0.49157  0.60964  0.21904  1.0000
  S   S354      1.0  0.48673  0.56365  0.21771  1.0000
  Fe  Fe171     1.0  0.55928  0.73246  0.27036  1.0000
  S   S355      1.0  0.57655  0.75399  0.24248  1.0000
  S   S356      1.0  0.55154  0.73571  0.32225  1.0000
  Fe  Fe172     1.0  0.55327  0.70770  0.21241  1.0000
  S   S357      1.0  0.57044  0.72787  0.18059  1.0000
  S   S358      1.0  0.54151  0.68305  0.18368  1.0000
  Fe  Fe173     1.0  0.58639  0.73534  0.22403  1.0000
  S   S359      1.0  0.61281  0.74205  0.21566  1.0000
  Fe  Fe174     1.0  0.55928  0.74482  0.20154  1.0000
  S   S360      1.0  0.55163  0.76328  0.17541  1.0000
  S   S361      1.0  0.57024  0.71407  0.25455  1.0000
  S   S362      1.0  0.54101  0.72444  0.23064  1.0000
  C   C845      1.0  0.50498  0.63012  0.20815  1.0000
  C   C846      1.0  0.51185  0.63388  0.17699  1.0000
  C   C847      1.0  0.52299  0.65011  0.17010  1.0000
  C   C848      1.0  0.52743  0.66282  0.19414  1.0000
  C   C849      1.0  0.52056  0.65907  0.22526  1.0000
  C   C850      1.0  0.50940  0.64285  0.23214  1.0000
  H   H1356     1.0  0.50851  0.62434  0.15813  1.0000
  H   H1357     1.0  0.52817  0.65284  0.14590  1.0000
  H   H1358     1.0  0.52379  0.66867  0.24403  1.0000
  H   H1359     1.0  0.50419  0.64013  0.25634  1.0000
  C   C851      1.0  0.56864  0.78723  0.37289  1.0000
  C   C852      1.0  0.57651  0.78471  0.34473  1.0000
  C   C853      1.0  0.57181  0.76883  0.32985  1.0000
  C   C854      1.0  0.55893  0.75537  0.34253  1.0000
  C   C855      1.0  0.55132  0.75778  0.37122  1.0000
  C   C856      1.0  0.55619  0.77363  0.38647  1.0000
  H   H1360     1.0  0.58618  0.79512  0.33410  1.0000
  H   H1361     1.0  0.57808  0.76705  0.30841  1.0000
  H   H1362     1.0  0.54143  0.74741  0.38138  1.0000
  H   H1363     1.0  0.55001  0.77542  0.40812  1.0000
  C   C857      1.0  0.55659  0.76808  0.13400  1.0000
  C   C858      1.0  0.55170  0.77966  0.11894  1.0000
  C   C859      1.0  0.55499  0.78330  0.08568  1.0000
  C   C860      1.0  0.56301  0.77519  0.06719  1.0000
  C   C861      1.0  0.56799  0.76371  0.08233  1.0000
  C   C862      1.0  0.56500  0.76034  0.11570  1.0000
  H   H1364     1.0  0.54518  0.78571  0.13293  1.0000
  H   H1365     1.0  0.55101  0.79210  0.07419  1.0000
  H   H1366     1.0  0.57430  0.75747  0.06818  1.0000
  H   H1367     1.0  0.56914  0.75171  0.12722  1.0000
  H   H1368     1.0  0.50832  0.50219  0.14140  1.0000
  C   C863      1.0  0.52911  0.85829  0.44166  1.0000
  C   C864      1.0  0.51755  0.86286  0.42675  1.0000
  C   C865      1.0  0.51173  0.87411  0.44204  1.0000
  C   C866      1.0  0.51753  0.88061  0.47273  1.0000
  S   S363      1.0  0.70519  0.58000  0.05578  1.0000
  H   H1369     1.0  0.53345  0.84968  0.42947  1.0000
  H   H1370     1.0  0.51310  0.85765  0.40310  1.0000
  C   C867      1.0  0.50200  0.49122  0.15696  1.0000
  H   H1371     1.0  0.64743  0.72233  0.34044  1.0000
  C   C868      1.0  0.62120  0.52241  0.04520  1.0000
  C   C869      1.0  0.63476  0.87606  0.01646  1.0000
  H   H1372     1.0  0.71248  0.87777  0.31349  1.0000
  C   C870      1.0  0.67681  0.61046  0.46951  1.0000
  H   H1373     1.0  0.52055  0.68680  0.08507  1.0000
  H   H1374     1.0  0.67977  0.74537  0.28214  1.0000
  H   H1375     1.0  0.61320  0.80800  0.45645  1.0000
  H   H1376     1.0  0.51299  0.88900  0.48517  1.0000
  C   C871      1.0  0.53789  0.76278  0.26565  1.0000
  H   H1377     1.0  0.63091  0.82920  0.36362  1.0000
  C   C872      1.0  0.52409  0.52097  0.08369  1.0000
  C   C873      1.0  0.53482  0.52569  0.10940  1.0000
  C   C874      1.0  0.53277  0.53571  0.13505  1.0000
  C   C875      1.0  0.51990  0.54086  0.13524  1.0000
  C   C876      1.0  0.50917  0.53606  0.10960  1.0000
  C   C877      1.0  0.51134  0.52625  0.08381  1.0000
  H   H1378     1.0  0.54469  0.52167  0.10948  1.0000
  H   H1379     1.0  0.54110  0.53940  0.15488  1.0000
  H   H1380     1.0  0.49927  0.54003  0.10946  1.0000
  H   H1381     1.0  0.50303  0.52266  0.06392  1.0000
  C   C878      1.0  0.53082  0.71728  0.14332  1.0000
  C   C879      1.0  0.51744  0.97414  0.39173  1.0000
  C   C880      1.0  0.51807  0.96658  0.36164  1.0000
  H   H1382     1.0  0.53275  0.70977  0.16316  1.0000
  H   H1383     1.0  0.51222  0.95319  0.35874  1.0000
  C   C881      1.0  0.64701  0.77074  0.29642  1.0000
  C   C882      1.0  0.65298  0.76830  0.26593  1.0000
  C   C883      1.0  0.64239  0.75947  0.24126  1.0000
  C   C884      1.0  0.62583  0.75322  0.24684  1.0000
  C   C885      1.0  0.61991  0.75577  0.27728  1.0000
  C   C886      1.0  0.63047  0.76441  0.30199  1.0000
  H   H1384     1.0  0.66569  0.77321  0.26131  1.0000
  H   H1385     1.0  0.64701  0.75757  0.21770  1.0000
  H   H1386     1.0  0.60719  0.75094  0.28188  1.0000
  H   H1387     1.0  0.62577  0.76617  0.32557  1.0000
  C   C887      1.0  0.54118  0.78679  0.29976  1.0000
  H   H1388     1.0  0.62405  0.79511  0.39368  1.0000
  H   H1389     1.0  0.70559  0.87480  0.37265  1.0000
  C   C888      1.0  0.67776  0.72486  0.33205  1.0000
  H   H1390     1.0  0.69119  0.84517  0.47484  1.0000
  C   C889      1.0  0.71091  0.86266  0.19877  1.0000
  C   C890      1.0  0.70138  0.84886  0.21732  1.0000
  H   H1391     1.0  0.70062  0.83135  0.25463  1.0000
  H   H1392     1.0  0.68866  0.84337  0.21348  1.0000
  C   C891      1.0  0.66116  0.88894  0.04071  1.0000
  C   C892      1.0  0.66277  0.87359  0.03823  1.0000
  H   H1393     1.0  0.60446  0.82042  0.43633  1.0000
  S   S364      1.0  0.70168  0.87022  0.16891  1.0000
  S   S365      1.0  0.46594  0.93060  0.43864  1.0000
  H   H1394     1.0  0.68834  0.61433  0.45572  1.0000
  H   H1395     1.0  0.67338  0.87240  0.04681  1.0000
  H   H1396     1.0  0.56869  0.54415  0.08257  1.0000
  H   H1397     1.0  0.53847  0.80043  0.24321  1.0000
  H   H1398     1.0  0.55084  0.70255  0.12527  1.0000
  H   H1399     1.0  0.52211  0.68479  0.12814  1.0000
  H   H1400     1.0  0.68655  0.75201  0.37111  1.0000
  H   H1401     1.0  0.53628  0.78262  0.21773  1.0000
  H   H1402     1.0  0.56790  0.78459  0.27481  1.0000
  H   H1403     1.0  0.52518  0.75678  0.27338  1.0000
  C   C893      1.0  0.47105  0.97575  0.45638  1.0000
  H   H1404     1.0  0.66235  0.57908  0.44570  1.0000
  H   H1405     1.0  0.60145  0.80006  0.42051  1.0000
  H   H1406     1.0  0.52662  0.94235  0.44157  1.0000
  H   H1407     1.0  0.64327  0.81182  0.39057  1.0000
  H   H1408     1.0  0.64573  0.90194  0.03160  1.0000
  H   H1409     1.0  0.51892  0.71782  0.14764  1.0000
  H   H1410     1.0  0.64810  0.58834  0.48912  1.0000
  H   H1411     1.0  0.61672  0.49814  0.02430  1.0000
  H   H1412     1.0  0.55627  0.92139  0.39111  1.0000
  H   H1413     1.0  0.54180  0.90834  0.44156  1.0000
  S   S366      1.0  0.46999  0.53908  0.15616  1.0000
  N   N85       1.0  0.53199  0.71003  0.11099  1.0000
  H   H1414     1.0  0.55250  0.54548  0.03607  1.0000
  C   C894      1.0  0.65484  0.73181  0.32275  1.0000
  H   H1415     1.0  0.54736  0.78232  0.31817  1.0000
  C   C895      1.0  0.68116  0.75088  0.30711  1.0000
  H   H1416     1.0  0.57533  0.57097  0.05441  1.0000
  H   H1417     1.0  0.66731  0.60925  0.45185  1.0000
  H   H1418     1.0  0.69798  0.59988  0.49623  1.0000
  Fe  Fe175     1.0  0.56109  0.84062  0.48223  1.0000
  H   H1419     1.0  0.58403  0.53101  0.00679  1.0000
  N   N86       1.0  0.67341  0.59468  0.48684  1.0000
  H   H1420     1.0  0.50137  0.49602  0.18206  1.0000
  H   H1421     1.0  0.67109  0.71529  0.35028  1.0000
  H   H1422     1.0  0.55051  0.92796  0.46300  1.0000
  S   S367      1.0  0.70734  0.91400  0.12872  1.0000
  H   H1423     1.0  0.56507  0.94101  0.41241  1.0000
  H   H1424     1.0  0.48866  0.96355  0.49092  1.0000
  Fe  Fe176     1.0  0.57685  0.49644  0.05205  1.0000
  H   H1425     1.0  0.65294  0.72594  0.29805  1.0000
  C   C896      1.0  0.70406  0.85084  0.47450  1.0000
  Fe  Fe177     1.0  0.71214  0.89038  0.13056  1.0000
  H   H1426     1.0  0.55632  0.52913  0.01527  1.0000
  N   N87       1.0  0.53619  0.60360  0.21465  1.0000
  C   C897      1.0  0.55101  0.60065  0.20928  1.0000
  C   C898      1.0  0.52801  0.60185  0.18332  1.0000
  C   C899      1.0  0.53999  0.62060  0.22817  1.0000
  C   C900      1.0  0.52565  0.59122  0.23776  1.0000
  H   H1427     1.0  0.55920  0.60979  0.19192  1.0000
  H   H1428     1.0  0.54841  0.58789  0.19899  1.0000
  H   H1429     1.0  0.55747  0.60175  0.23244  1.0000
  H   H1430     1.0  0.51648  0.60333  0.18670  1.0000
  H   H1431     1.0  0.53527  0.61139  0.16557  1.0000
  H   H1432     1.0  0.52534  0.58932  0.17203  1.0000
  H   H1433     1.0  0.52895  0.62284  0.23382  1.0000
  H   H1434     1.0  0.54721  0.63038  0.21074  1.0000
  H   H1435     1.0  0.54669  0.62259  0.25123  1.0000
  H   H1436     1.0  0.51436  0.59319  0.24239  1.0000
  H   H1437     1.0  0.53141  0.59208  0.26168  1.0000
  H   H1438     1.0  0.52239  0.57825  0.22813  1.0000
  N   N88       1.0  0.60908  0.81639  0.08395  1.0000
  C   C901      1.0  0.62039  0.81171  0.10267  1.0000
  C   C902      1.0  0.59362  0.81100  0.10155  1.0000
  C   C903      1.0  0.60683  0.80816  0.05153  1.0000
  C   C904      1.0  0.61549  0.83469  0.08005  1.0000
  H   H1439     1.0  0.63219  0.81562  0.08998  1.0000
  H   H1440     1.0  0.61591  0.79796  0.10608  1.0000
  H   H1441     1.0  0.62240  0.81773  0.12725  1.0000
  H   H1442     1.0  0.58464  0.81381  0.08746  1.0000
  H   H1443     1.0  0.58870  0.79732  0.10583  1.0000
  H   H1444     1.0  0.59473  0.81732  0.12571  1.0000
  H   H1445     1.0  0.59838  0.81141  0.03673  1.0000
  H   H1446     1.0  0.60187  0.79431  0.05341  1.0000
  H   H1447     1.0  0.61823  0.81209  0.03733  1.0000
  H   H1448     1.0  0.62736  0.83920  0.06769  1.0000
  H   H1449     1.0  0.61697  0.84137  0.10391  1.0000
  H   H1450     1.0  0.60758  0.83865  0.06494  1.0000
  H   H1451     1.0  0.71136  0.83839  0.08120  1.0000
  S   S368      1.0  0.55922  0.49555  0.09228  1.0000
  N   N89       1.0  0.57727  0.54903  0.03307  1.0000
  H   H1452     1.0  0.54778  0.95336  0.44104  1.0000
  C   C905      1.0  0.55448  0.93300  0.39831  1.0000
  H   H1453     1.0  0.52696  0.97052  0.31204  1.0000
  C   C906      1.0  0.61036  0.81143  0.43208  1.0000
  H   H1454     1.0  0.55743  0.72280  0.10739  1.0000
  H   H1455     1.0  0.63579  0.80285  0.42948  1.0000
  H   H1456     1.0  0.54939  0.70442  0.08216  1.0000
  C   C907      1.0  0.54037  0.92029  0.44746  1.0000
  H   H1457     1.0  0.50775  0.69225  0.11300  1.0000
  C   C908      1.0  0.52897  0.72016  0.08545  1.0000
  S   S369      1.0  0.70528  0.56905  0.47866  1.0000
  S   S370      1.0  0.70691  0.79213  0.29830  1.0000
  C   C909      1.0  0.53516  0.86507  0.47203  1.0000
  H   H1458     1.0  0.52695  0.90641  0.39090  1.0000
  Fe  Fe178     1.0  0.70874  0.81681  0.38015  1.0000
  H   H1459     1.0  0.66937  0.75692  0.36445  1.0000
  H   H1460     1.0  0.61165  0.81245  0.36711  1.0000
  H   H1461     1.0  0.53987  0.73020  0.14594  1.0000
  H   H1462     1.0  0.65013  0.74192  0.32254  1.0000
  N   N90       1.0  0.62482  0.81887  0.41152  1.0000
  H   H1463     1.0  0.52156  0.78116  0.24869  1.0000
  H   H1464     1.0  0.67773  0.62083  0.48680  1.0000
  N   N91       1.0  0.53962  0.92915  0.41760  1.0000
  H   H1465     1.0  0.53768  0.73335  0.08653  1.0000
  H   H1466     1.0  0.55426  0.93968  0.37560  1.0000
  H   H1467     1.0  0.54486  0.75826  0.28212  1.0000
  C   C910      1.0  0.52641  0.97641  0.33525  1.0000
  C   C911      1.0  0.63615  0.83391  0.42809  1.0000
  C   C912      1.0  0.63230  0.80662  0.40606  1.0000
  H   H1468     1.0  0.56544  0.80233  0.25810  1.0000
  C   C913      1.0  0.67221  0.58127  0.46300  1.0000
  H   H1469     1.0  0.51687  0.72041  0.08819  1.0000
  C   C914      1.0  0.53456  0.78661  0.24304  1.0000
  C   C915      1.0  0.52006  0.69272  0.10913  1.0000
  H   H1470     1.0  0.71210  0.85694  0.31214  1.0000
  H   H1471     1.0  0.70486  0.86312  0.02051  1.0000
  C   C916      1.0  0.53762  0.94481  0.42658  1.0000
  H   H1472     1.0  0.51462  0.91514  0.41210  1.0000
  H   H1473     1.0  0.54591  0.80064  0.30188  1.0000
  C   C917      1.0  0.64934  0.54174  0.04445  1.0000
  N   N92       1.0  0.54359  0.78117  0.26656  1.0000
  H   H1474     1.0  0.61452  0.83266  0.38335  1.0000
  C   C918      1.0  0.62034  0.82353  0.37995  1.0000
  C   C919      1.0  0.67379  0.74659  0.36397  1.0000
  Fe  Fe179     1.0  0.59119  0.83292  0.49440  1.0000
  H   H1475     1.0  0.64726  0.83990  0.41344  1.0000
  Fe  Fe180     1.0  0.46819  0.91433  0.47799  1.0000
  C   C920      1.0  0.57665  0.54114  0.06485  1.0000
  N   N93       1.0  0.67186  0.73851  0.33147  1.0000
  H   H1476     1.0  0.65833  0.55387  0.05021  1.0000
  H   H1477     1.0  0.63081  0.84335  0.43284  1.0000
  Fe  Fe181     1.0  0.69757  0.55603  0.02621  1.0000
  C   C921      1.0  0.52595  0.91843  0.39804  1.0000
  H   H1478     1.0  0.52627  0.49211  0.19452  1.0000
  H   H1479     1.0  0.53655  0.95165  0.40470  1.0000
  C   C922      1.0  0.64189  0.51391  0.02201  1.0000
  S   S371      1.0  0.70197  0.82923  0.42398  1.0000
  H   H1480     1.0  0.66988  0.56923  0.47535  1.0000
  H   H1481     1.0  0.67728  0.76154  0.30655  1.0000
  H   H1482     1.0  0.53905  0.75806  0.24077  1.0000
  H   H1483     1.0  0.62989  0.54764  0.06415  1.0000
  H   H1484     1.0  0.68344  0.58436  0.44847  1.0000
  H   H1485     1.0  0.47742  0.96962  0.44066  1.0000
  S   S372      1.0  0.57814  0.80571  0.48211  1.0000
  C   C923      1.0  0.56110  0.54289  0.01933  1.0000
  H   H1486     1.0  0.53364  0.49871  0.15405  1.0000
  C   C924      1.0  0.58325  0.56733  0.03761  1.0000
  H   H1487     1.0  0.59540  0.57228  0.04813  1.0000
  H   H1488     1.0  0.57211  0.52736  0.06217  1.0000
  C   C925      1.0  0.58811  0.54475  0.01061  1.0000
  C   C926      1.0  0.71273  0.84529  0.45169  1.0000
  H   H1489     1.0  0.66707  0.73762  0.38309  1.0000
  C   C927      1.0  0.70813  0.84201  0.24066  1.0000
  H   H1490     1.0  0.48963  0.48524  0.14780  1.0000
  H   H1491     1.0  0.51762  0.48452  0.10615  1.0000
  Fe  Fe182     1.0  0.46639  0.56089  0.13486  1.0000
  H   H1492     1.0  0.64516  0.50439  0.01033  1.0000
  C   C928      1.0  0.62570  0.51030  0.02994  1.0000
  H   H1493     1.0  0.46814  0.50909  0.33847  1.0000
  H   H1494     1.0  0.58396  0.57371  0.01407  1.0000
  C   C929      1.0  0.65385  0.52962  0.02923  1.0000
  C   C930      1.0  0.63663  0.86085  0.01336  1.0000
  C   C931      1.0  0.52644  0.48773  0.16894  1.0000
  H   H1495     1.0  0.62397  0.87709  0.00817  1.0000
  C   C932      1.0  0.71188  0.86359  0.49710  1.0000
  H   H1496     1.0  0.51882  0.82748  0.49142  1.0000
  H   H1497     1.0  0.47335  0.97958  0.15366  1.0000
  C   C933      1.0  0.71315  0.86741  0.37467  1.0000
  S   S373      1.0  0.54984  0.85994  0.49212  1.0000
  H   H1498     1.0  0.46664  0.49861  0.39536  1.0000
  H   H1499     1.0  0.69794  0.90256  0.00722  1.0000
  H   H1500     1.0  0.50935  0.48408  0.49460  1.0000
  Fe  Fe183     1.0  0.69516  0.90217  0.57874  1.0000
  N   N94       1.0  0.69415  0.89439  0.95734  1.0000
  S   S374      1.0  0.67133  0.90230  0.56331  1.0000
  H   H1501     1.0  0.70918  0.53479  0.89329  1.0000
  S   S375      1.0  0.70298  0.91100  0.62967  1.0000
  S   S376      1.0  0.69979  0.87871  0.58272  1.0000
  H   H1502     1.0  0.63823  0.80312  0.86195  1.0000
  S   S377      1.0  0.69103  0.81279  0.83210  1.0000
  H   H1503     1.0  0.67826  0.71518  0.89669  1.0000
  Fe  Fe184     1.0  0.68592  0.78593  0.84161  1.0000
  S   S378      1.0  0.66033  0.76758  0.84621  1.0000
  H   H1504     1.0  0.53112  0.51238  0.67717  1.0000
  C   C934      1.0  0.64605  0.51669  0.52424  1.0000
  H   H1505     1.0  0.52180  0.70341  0.58935  1.0000
  H   H1506     1.0  0.60707  0.76967  0.90889  1.0000
  C   C935      1.0  0.68646  0.59690  0.50952  1.0000
  S   S379      1.0  0.53111  0.50799  0.54326  1.0000
  H   H1507     1.0  0.50621  0.83468  0.57493  1.0000
  H   H1508     1.0  0.53869  0.82741  0.53016  1.0000
  H   H1509     1.0  0.70080  0.52582  0.63868  1.0000
  H   H1510     1.0  0.52870  0.94458  0.86497  1.0000
  S   S380      1.0  0.66508  0.55045  0.53523  1.0000
  C   C936      1.0  0.50576  0.97000  0.89376  1.0000
  C   C937      1.0  0.53076  0.82806  0.55055  1.0000
  H   H1511     1.0  0.68523  0.80513  0.66357  1.0000
  H   H1512     1.0  0.53114  0.69116  0.60842  1.0000
  Fe  Fe185     1.0  0.57366  0.81556  0.92883  1.0000
  S   S381      1.0  0.55237  0.80605  0.96227  1.0000
  S   S382      1.0  0.57339  0.81063  0.87430  1.0000
  H   H1513     1.0  0.68838  0.50603  0.62106  1.0000
  C   C938      1.0  0.61797  0.77652  0.89409  1.0000
  S   S383      1.0  0.70563  0.54004  0.52905  1.0000
  S   S384      1.0  0.54222  0.78876  0.54782  1.0000
  S   S385      1.0  0.58201  0.84233  0.94606  1.0000
  H   H1514     1.0  0.64999  0.84557  0.51582  1.0000
  Fe  Fe186     1.0  0.48525  0.92960  0.92393  1.0000
  S   S386      1.0  0.48872  0.91211  0.88627  1.0000
  S   S387      1.0  0.49401  0.95787  0.92575  1.0000
  H   H1515     1.0  0.63881  0.89540  0.54714  1.0000
  Fe  Fe187     1.0  0.49510  0.89929  0.92793  1.0000
  S   S388      1.0  0.51830  0.89466  0.92184  1.0000
  Fe  Fe188     1.0  0.54416  0.49131  0.55408  1.0000
  S   S389      1.0  0.49344  0.91816  0.96448  1.0000
  H   H1516     1.0  0.55205  0.85101  0.89100  1.0000
  Fe  Fe189     1.0  0.50263  0.55603  0.67057  1.0000
  S   S390      1.0  0.49722  0.57602  0.64615  1.0000
  S   S391      1.0  0.52555  0.55192  0.66426  1.0000
  Fe  Fe190     1.0  0.49026  0.58237  0.69590  1.0000
  S   S392      1.0  0.50030  0.60803  0.72166  1.0000
  S   S393      1.0  0.49742  0.56342  0.72060  1.0000
  Fe  Fe191     1.0  0.56437  0.73331  0.76233  1.0000
  S   S394      1.0  0.58636  0.75143  0.73804  1.0000
  S   S395      1.0  0.55687  0.73802  0.81351  1.0000
  Fe  Fe192     1.0  0.55743  0.70692  0.70776  1.0000
  S   S396      1.0  0.57928  0.72333  0.67997  1.0000
  S   S397      1.0  0.54256  0.68315  0.67870  1.0000
  Fe  Fe193     1.0  0.59213  0.72901  0.72725  1.0000
  S   S398      1.0  0.61787  0.73152  0.72581  1.0000
  Fe  Fe194     1.0  0.57210  0.74473  0.69209  1.0000
  S   S399      1.0  0.57888  0.76429  0.65238  1.0000
  S   S400      1.0  0.57105  0.71089  0.75455  1.0000
  S   S401      1.0  0.54932  0.72826  0.71722  1.0000
  C   C939      1.0  0.51194  0.62882  0.70895  1.0000
  C   C940      1.0  0.51339  0.63360  0.67632  1.0000
  C   C941      1.0  0.52281  0.65022  0.66761  1.0000
  C   C942      1.0  0.53087  0.66235  0.69131  1.0000
  C   C943      1.0  0.52942  0.65755  0.72391  1.0000
  C   C944      1.0  0.51999  0.64094  0.73262  1.0000
  H   H1517     1.0  0.50710  0.62454  0.65784  1.0000
  H   H1518     1.0  0.52373  0.65374  0.64232  1.0000
  H   H1519     1.0  0.53544  0.66668  0.74250  1.0000
  H   H1520     1.0  0.51886  0.63749  0.75798  1.0000
  C   C945      1.0  0.56828  0.79032  0.85768  1.0000
  C   C946      1.0  0.57062  0.78838  0.82417  1.0000
  C   C947      1.0  0.56707  0.77243  0.81022  1.0000
  C   C948      1.0  0.56100  0.75826  0.82968  1.0000
  C   C949      1.0  0.55850  0.76021  0.86315  1.0000
  C   C950      1.0  0.56224  0.77617  0.87718  1.0000
  H   H1521     1.0  0.57527  0.79927  0.80891  1.0000
  H   H1522     1.0  0.56898  0.77107  0.78440  1.0000
  H   H1523     1.0  0.55377  0.74929  0.87834  1.0000
  H   H1524     1.0  0.56036  0.77750  0.90301  1.0000
  C   C951      1.0  0.56810  0.77103  0.62449  1.0000
  C   C952      1.0  0.57668  0.78180  0.59961  1.0000
  C   C953      1.0  0.56885  0.78731  0.57621  1.0000
  C   C954      1.0  0.55228  0.78205  0.57733  1.0000
  C   C955      1.0  0.54361  0.77128  0.60224  1.0000
  C   C956      1.0  0.55150  0.76585  0.62590  1.0000
  H   H1525     1.0  0.58952  0.78592  0.59838  1.0000
  H   H1526     1.0  0.57567  0.79565  0.55727  1.0000
  H   H1527     1.0  0.53080  0.76728  0.60344  1.0000
  H   H1528     1.0  0.54478  0.75788  0.64537  1.0000
  C   C957      1.0  0.53531  0.85715  0.97162  1.0000
  C   C958      1.0  0.54492  0.86842  0.94859  1.0000
  C   C959      1.0  0.53949  0.87971  0.93357  1.0000
  C   C960      1.0  0.52443  0.87999  0.94143  1.0000
  C   C961      1.0  0.51483  0.86873  0.96445  1.0000
  H   H1529     1.0  0.53331  0.96877  0.92319  1.0000
  H   H1530     1.0  0.55666  0.86866  0.94279  1.0000
  H   H1531     1.0  0.54708  0.88842  0.91599  1.0000
  S   S402      1.0  0.69897  0.79125  0.88863  1.0000
  H   H1532     1.0  0.70501  0.86768  0.51451  1.0000
  C   C962      1.0  0.61734  0.50426  0.53732  1.0000
  C   C963      1.0  0.67737  0.89283  0.95841  1.0000
  Fe  Fe195     1.0  0.55772  0.80746  0.51101  1.0000
  C   C964      1.0  0.64690  0.53238  0.53523  1.0000
  C   C965      1.0  0.63286  0.53388  0.54718  1.0000
  C   C966      1.0  0.61820  0.51996  0.54822  1.0000
  C   C967      1.0  0.51836  0.97241  0.84040  1.0000
  H   H1533     1.0  0.50869  0.82576  0.88761  1.0000
  C   C968      1.0  0.52486  0.50027  0.68955  1.0000
  H   H1534     1.0  0.60756  0.52138  0.55750  1.0000
  C   C969      1.0  0.53001  0.52093  0.57600  1.0000
  C   C970      1.0  0.54167  0.52592  0.59995  1.0000
  C   C971      1.0  0.54037  0.53579  0.62649  1.0000
  C   C972      1.0  0.52726  0.54044  0.62961  1.0000
  C   C973      1.0  0.51559  0.53549  0.60567  1.0000
  C   C974      1.0  0.51706  0.52589  0.57873  1.0000
  H   H1535     1.0  0.55177  0.52233  0.59786  1.0000
  H   H1536     1.0  0.54947  0.53967  0.64483  1.0000
  H   H1537     1.0  0.50547  0.53910  0.60780  1.0000
  H   H1538     1.0  0.50803  0.52212  0.56023  1.0000
  H   H1539     1.0  0.59664  0.79092  0.89310  1.0000
  H   H1540     1.0  0.53358  0.82194  0.57177  1.0000
  C   C975      1.0  0.50785  0.96264  0.86440  1.0000
  H   H1541     1.0  0.49757  0.79545  0.52658  1.0000
  H   H1542     1.0  0.50149  0.94941  0.86022  1.0000
  C   C976      1.0  0.64889  0.75779  0.81221  1.0000
  C   C977      1.0  0.63225  0.75095  0.81558  1.0000
  C   C978      1.0  0.62263  0.74327  0.78897  1.0000
  C   C979      1.0  0.62965  0.74171  0.75916  1.0000
  C   C980      1.0  0.64633  0.74804  0.75605  1.0000
  C   C981      1.0  0.65596  0.75631  0.78240  1.0000
  H   H1543     1.0  0.62679  0.75146  0.83895  1.0000
  H   H1544     1.0  0.60979  0.73812  0.79170  1.0000
  H   H1545     1.0  0.65175  0.74646  0.73319  1.0000
  H   H1546     1.0  0.66879  0.76112  0.78004  1.0000
  S   S403      1.0  0.70763  0.57616  0.55644  1.0000
  H   H1547     1.0  0.48950  0.97568  0.52732  1.0000
  C   C982      1.0  0.70198  0.84908  0.97555  1.0000
  C   C983      1.0  0.50364  0.82136  0.56868  1.0000
  S   S404      1.0  0.62204  0.84276  0.99609  1.0000
  C   C984      1.0  0.68440  0.78277  0.71002  1.0000
  H   H1548     1.0  0.56100  0.54869  0.99551  1.0000
  H   H1549     1.0  0.51606  0.49957  0.62719  1.0000
  H   H1550     1.0  0.55085  0.95020  0.95750  1.0000
  C   C985      1.0  0.65662  0.88469  0.54463  1.0000
  C   C986      1.0  0.65970  0.87061  0.53551  1.0000
  H   H1551     1.0  0.52960  0.94380  0.95512  1.0000
  H   H1552     1.0  0.50497  0.51375  0.66785  1.0000
  H   H1553     1.0  0.69773  0.83833  0.77169  1.0000
  C   C987      1.0  0.64127  0.88452  0.54027  1.0000
  C   C988      1.0  0.69234  0.51978  0.61869  1.0000
  C   C989      1.0  0.51045  0.48781  0.64092  1.0000
  S   S405      1.0  0.59920  0.48613  0.53818  1.0000
  H   H1554     1.0  0.65962  0.52417  0.65209  1.0000
  H   H1555     1.0  0.49773  0.50424  0.70638  1.0000
  C   C990      1.0  0.69829  0.85372  0.73052  1.0000
  C   C991      1.0  0.49924  0.50151  0.68019  1.0000
  S   S406      1.0  0.56310  0.49471  0.59098  1.0000
  H   H1556     1.0  0.54259  0.82399  0.83746  1.0000
  C   C992      1.0  0.70354  0.84330  0.74881  1.0000
  H   H1557     1.0  0.67152  0.73948  0.88176  1.0000
  H   H1558     1.0  0.69679  0.78856  0.71941  1.0000
  H   H1559     1.0  0.63093  0.49073  0.51679  1.0000
  H   H1560     1.0  0.66931  0.88046  0.96788  1.0000
  S   S407      1.0  0.70702  0.78528  0.81288  1.0000
  Fe  Fe196     1.0  0.70534  0.81823  0.87802  1.0000
  C   C993      1.0  0.64749  0.85642  0.52266  1.0000
  N   N95       1.0  0.54211  0.94985  0.90915  1.0000
  H   H1561     1.0  0.61632  0.80688  0.89394  1.0000
  C   C994      1.0  0.52027  0.85744  0.97944  1.0000
  H   H1562     1.0  0.59918  0.77806  0.82431  1.0000
  H   H1563     1.0  0.52610  0.92656  0.88878  1.0000
  H   H1564     1.0  0.50558  0.81533  0.59095  1.0000
  C   C995      1.0  0.60244  0.77222  0.84535  1.0000
  H   H1565     1.0  0.62318  0.76738  0.88586  1.0000
  C   C996      1.0  0.54031  0.94315  0.94244  1.0000
  H   H1566     1.0  0.70805  0.88141  0.93602  1.0000
  Fe  Fe197     1.0  0.46758  0.90152  0.97080  1.0000
  C   C997      1.0  0.63140  0.50276  0.52539  1.0000
  H   H1567     1.0  0.53799  0.80501  0.88475  1.0000
  C   C998      1.0  0.54378  0.96748  0.91069  1.0000
  H   H1568     1.0  0.55530  0.93548  0.89130  1.0000
  H   H1569     1.0  0.68843  0.80665  0.75458  1.0000
  C   C999      1.0  0.68466  0.52649  0.93647  1.0000
  H   H1570     1.0  0.66524  0.50651  0.65402  1.0000
  H   H1571     1.0  0.51232  0.79553  0.55517  1.0000
  H   H1572     1.0  0.65280  0.77606  0.71472  1.0000
  Fe  Fe198     1.0  0.56120  0.83261  0.98137  1.0000
  H   H1573     1.0  0.56734  0.95592  0.90668  1.0000
  C   C1000     1.0  0.68466  0.54340  0.61613  1.0000
  H   H1574     1.0  0.62676  0.78572  0.91047  1.0000
  H   H1575     1.0  0.53409  0.84154  0.55652  1.0000
  C   C1001     1.0  0.52786  0.93998  0.89031  1.0000
  H   H1576     1.0  0.70452  0.75985  0.90261  1.0000
  H   H1577     1.0  0.62667  0.79982  0.82560  1.0000
  N   N96       1.0  0.67872  0.52509  0.61947  1.0000
  C   C1002     1.0  0.48238  0.97031  0.50522  1.0000
  C   C1003     1.0  0.66993  0.52027  0.65073  1.0000
  Fe  Fe199     1.0  0.59591  0.83538  0.98405  1.0000
  H   H1578     1.0  0.55460  0.97544  0.92412  1.0000
  S   S408      1.0  0.54130  0.84233  0.99103  1.0000
  H   H1579     1.0  0.68730  0.53902  0.94772  1.0000
  C   C1004     1.0  0.70700  0.74228  0.84841  1.0000
  H   H1580     1.0  0.69181  0.88054  0.00105  1.0000
  C   C1005     1.0  0.68124  0.74243  0.86309  1.0000
  N   N97       1.0  0.65305  0.87137  0.64522  1.0000
  C   C1006     1.0  0.66194  0.86494  0.62182  1.0000
  C   C1007     1.0  0.64766  0.85997  0.67310  1.0000
  C   C1008     1.0  0.63916  0.87248  0.62896  1.0000
  C   C1009     1.0  0.66356  0.88815  0.65688  1.0000
  H   H1581     1.0  0.65424  0.85271  0.61103  1.0000
  H   H1582     1.0  0.67217  0.86334  0.63349  1.0000
  H   H1583     1.0  0.66691  0.87371  0.60146  1.0000
  H   H1584     1.0  0.64092  0.86443  0.69134  1.0000
  H   H1585     1.0  0.63978  0.84718  0.66506  1.0000
  H   H1586     1.0  0.65800  0.85903  0.68574  1.0000
  H   H1587     1.0  0.63191  0.87687  0.64606  1.0000
  H   H1588     1.0  0.63128  0.86021  0.61852  1.0000
  H   H1589     1.0  0.64302  0.88145  0.60850  1.0000
  H   H1590     1.0  0.67435  0.88787  0.66873  1.0000
  H   H1591     1.0  0.65735  0.89337  0.67488  1.0000
  H   H1592     1.0  0.66771  0.89710  0.63638  1.0000
  N   N98       1.0  0.51388  0.81989  0.54135  1.0000
  C   C1010     1.0  0.71213  0.53408  0.91920  1.0000
  H   H1593     1.0  0.50325  0.86878  0.97087  1.0000
  H   H1594     1.0  0.69838  0.81463  0.69632  1.0000
  Fe  Fe200     1.0  0.47248  0.54507  0.71328  1.0000
  H   H1595     1.0  0.69107  0.50487  0.89647  1.0000
  C   C1011     1.0  0.70949  0.84567  0.94769  1.0000
  H   H1596     1.0  0.61723  0.87024  0.52438  1.0000
  H   H1597     1.0  0.53879  0.92977  0.94204  1.0000
  H   H1598     1.0  0.66337  0.50319  0.59354  1.0000
  H   H1599     1.0  0.69248  0.88212  0.91065  1.0000
  H   H1600     1.0  0.68845  0.85673  0.73960  1.0000
  H   H1601     1.0  0.67436  0.51762  0.95051  1.0000
  C   C1012     1.0  0.52070  0.83315  0.89741  1.0000
  H   H1602     1.0  0.68921  0.84285  0.97865  1.0000
  H   H1603     1.0  0.67149  0.87063  0.53834  1.0000
  H   H1604     1.0  0.47301  0.96707  0.98307  1.0000
  N   N99       1.0  0.53284  0.82722  0.88400  1.0000
  C   C1013     1.0  0.52870  0.80967  0.89331  1.0000
  N   N100      1.0  0.67655  0.79485  0.71079  1.0000
  H   H1605     1.0  0.70255  0.73635  0.82442  1.0000
  C   C1014     1.0  0.65824  0.59007  0.50540  1.0000
  H   H1606     1.0  0.52366  0.84651  0.89167  1.0000
  H   H1607     1.0  0.52759  0.80829  0.92024  1.0000
  H   H1608     1.0  0.55807  0.83364  0.88750  1.0000
  H   H1609     1.0  0.51715  0.80130  0.88282  1.0000
  C   C1015     1.0  0.54857  0.83765  0.89722  1.0000
  H   H1610     1.0  0.67587  0.73609  0.83993  1.0000
  N   N101      1.0  0.54702  0.60757  0.68182  1.0000
  C   C1016     1.0  0.53420  0.59933  0.70584  1.0000
  C   C1017     1.0  0.56243  0.61477  0.69860  1.0000
  C   C1018     1.0  0.54380  0.62101  0.66579  1.0000
  C   C1019     1.0  0.54756  0.59518  0.65710  1.0000
  H   H1611     1.0  0.53346  0.60821  0.72516  1.0000
  H   H1612     1.0  0.53589  0.58875  0.71781  1.0000
  H   H1613     1.0  0.52240  0.59418  0.69405  1.0000
  H   H1614     1.0  0.56234  0.62422  0.71732  1.0000
  H   H1615     1.0  0.56513  0.60495  0.71118  1.0000
  H   H1616     1.0  0.57239  0.62107  0.68117  1.0000
  H   H1617     1.0  0.55316  0.62753  0.64737  1.0000
  H   H1618     1.0  0.54329  0.63057  0.68381  1.0000
  H   H1619     1.0  0.53215  0.61597  0.65316  1.0000
  H   H1620     1.0  0.55679  0.60097  0.63799  1.0000
  H   H1621     1.0  0.53590  0.58910  0.64475  1.0000
  H   H1622     1.0  0.55026  0.58500  0.66829  1.0000
  N   N102      1.0  0.54641  0.71683  0.60101  1.0000
  C   C1020     1.0  0.54259  0.72215  0.63337  1.0000
  C   C1021     1.0  0.56116  0.71357  0.60290  1.0000
  C   C1022     1.0  0.54879  0.73019  0.57727  1.0000
  C   C1023     1.0  0.53313  0.70140  0.59076  1.0000
  H   H1623     1.0  0.53189  0.72536  0.63279  1.0000
  H   H1624     1.0  0.55264  0.73331  0.64255  1.0000
  H   H1625     1.0  0.56432  0.70930  0.57904  1.0000
  H   H1626     1.0  0.57143  0.72504  0.61037  1.0000
  H   H1627     1.0  0.55987  0.70376  0.62111  1.0000
  H   H1628     1.0  0.55136  0.72649  0.55238  1.0000
  H   H1629     1.0  0.55900  0.74184  0.58413  1.0000
  H   H1630     1.0  0.53811  0.73343  0.57596  1.0000
  H   H1631     1.0  0.53556  0.69693  0.56645  1.0000
  S   S409      1.0  0.57140  0.83389  0.52699  1.0000
  H   H1632     1.0  0.52183  0.82068  0.83722  1.0000
  H   H1633     1.0  0.68077  0.52684  0.91113  1.0000
  H   H1634     1.0  0.51697  0.94068  0.90191  1.0000
  H   H1635     1.0  0.63437  0.78463  0.83771  1.0000
  C   C1024     1.0  0.53350  0.82841  0.84813  1.0000
  C   C1025     1.0  0.70571  0.86034  0.70069  1.0000
  H   H1636     1.0  0.68516  0.77816  0.68482  1.0000
  C   C1026     1.0  0.60771  0.79705  0.87831  1.0000
  C   C1027     1.0  0.62902  0.87028  0.52747  1.0000
  H   H1637     1.0  0.65750  0.52070  0.59232  1.0000
  H   H1638     1.0  0.69760  0.71524  0.88633  1.0000
  H   H1639     1.0  0.71388  0.51823  0.97331  1.0000
  H   H1640     1.0  0.54464  0.97277  0.88587  1.0000
  C   C1028     1.0  0.66797  0.51703  0.59227  1.0000
  H   H1641     1.0  0.68566  0.75609  0.85888  1.0000
  C   C1029     1.0  0.63210  0.85615  0.51871  1.0000
  H   H1642     1.0  0.54853  0.83689  0.92421  1.0000
  S   S410      1.0  0.58906  0.80948  0.96334  1.0000
  H   H1643     1.0  0.68440  0.49548  0.93550  1.0000
  C   C1030     1.0  0.55633  0.94868  0.89305  1.0000
  H   H1644     1.0  0.71138  0.74379  0.91201  1.0000
  H   H1645     1.0  0.63330  0.54589  0.55584  1.0000
  H   H1646     1.0  0.65537  0.57812  0.51854  1.0000
  H   H1647     1.0  0.52417  0.50300  0.71598  1.0000
  H   H1648     1.0  0.51376  0.84158  0.51725  1.0000
  H   H1649     1.0  0.67476  0.54792  0.61591  1.0000
  C   C1031     1.0  0.68804  0.71926  0.87811  1.0000
  H   H1650     1.0  0.70605  0.53371  0.98356  1.0000
  Fe  Fe201     1.0  0.71324  0.81302  0.80692  1.0000
  Fe  Fe202     1.0  0.69151  0.55609  0.52340  1.0000
  H   H1651     1.0  0.70483  0.50111  0.92277  1.0000
  H   H1652     1.0  0.60455  0.80341  0.85793  1.0000
  H   H1653     1.0  0.68770  0.86845  0.94479  1.0000
  H   H1654     1.0  0.60695  0.76287  0.83526  1.0000
  H   H1655     1.0  0.51980  0.83215  0.92445  1.0000
  S   S411      1.0  0.69750  0.83261  0.91699  1.0000
  S   S412      1.0  0.69796  0.87260  0.67787  1.0000
  N   N103      1.0  0.69423  0.73750  0.87357  1.0000
  H   H1656     1.0  0.65665  0.51528  0.51471  1.0000
  H   H1657     1.0  0.59126  0.76523  0.85917  1.0000
  H   H1658     1.0  0.67577  0.90248  0.97482  1.0000
  H   H1659     1.0  0.67416  0.52073  0.56828  1.0000
  H   H1660     1.0  0.55796  0.95366  0.86786  1.0000
  S   S413      1.0  0.71058  0.56883  0.98070  1.0000
  H   H1661     1.0  0.52016  0.96663  0.81790  1.0000
  C   C1032     1.0  0.62903  0.79350  0.84699  1.0000
  C   C1033     1.0  0.69566  0.88105  0.93625  1.0000
  H   H1662     1.0  0.68327  0.71241  0.85501  1.0000
  H   H1663     1.0  0.65879  0.59978  0.52397  1.0000
  H   H1664     1.0  0.53668  0.84151  0.84030  1.0000
  C   C1034     1.0  0.51018  0.80207  0.53384  1.0000
  H   H1665     1.0  0.68096  0.81918  0.69145  1.0000
  H   H1666     1.0  0.65394  0.79557  0.69880  1.0000
  S   S414      1.0  0.47829  0.53627  0.66452  1.0000
  H   H1667     1.0  0.48716  0.49520  0.66982  1.0000
  H   H1668     1.0  0.67101  0.81060  0.74601  1.0000
  C   C1035     1.0  0.69454  0.50505  0.92232  1.0000
  H   H1669     1.0  0.71222  0.75603  0.84494  1.0000
  N   N104      1.0  0.61429  0.78482  0.86617  1.0000
  H   H1670     1.0  0.67782  0.77176  0.72530  1.0000
  H   H1671     1.0  0.54020  0.71215  0.65161  1.0000
  H   H1672     1.0  0.58894  0.55046  0.98632  1.0000
  Fe  Fe203     1.0  0.47203  0.55659  0.64366  1.0000
  H   H1673     1.0  0.65980  0.78162  0.67380  1.0000
  C   C1036     1.0  0.67622  0.80093  0.74458  1.0000
  C   C1037     1.0  0.70069  0.74609  0.90463  1.0000
  Fe  Fe204     1.0  0.70897  0.88823  0.63274  1.0000
  C   C1038     1.0  0.68561  0.80905  0.68959  1.0000
  N   N105      1.0  0.69863  0.52176  0.93734  1.0000
  H   H1674     1.0  0.69291  0.55000  0.63610  1.0000
  Fe  Fe205     1.0  0.56862  0.80215  0.99896  1.0000
  H   H1675     1.0  0.67776  0.52620  0.67170  1.0000
  S   S415      1.0  0.46972  0.88162  0.93701  1.0000
  H   H1676     1.0  0.66914  0.79062  0.76110  1.0000
  H   H1677     1.0  0.68812  0.60723  0.52735  1.0000
  H   H1678     1.0  0.69169  0.74208  0.92473  1.0000
  C   C1039     1.0  0.66007  0.78668  0.69900  1.0000
  H   H1679     1.0  0.51788  0.80054  0.51361  1.0000
  H   H1680     1.0  0.47072  0.96081  0.51340  1.0000
  H   H1681     1.0  0.69148  0.54735  0.59299  1.0000
  H   H1682     1.0  0.69933  0.52339  0.59552  1.0000
  H   H1683     1.0  0.53249  0.49290  0.68656  1.0000
  H   H1684     1.0  0.68411  0.58539  0.52363  1.0000
  N   N106      1.0  0.50887  0.49121  0.67594  1.0000
  C   C1040     1.0  0.69919  0.89285  0.99059  1.0000
  H   H1685     1.0  0.53373  0.88146  0.51106  1.0000
  H   H1686     1.0  0.49080  0.81533  0.56257  1.0000
  C   C1041     1.0  0.70317  0.52138  0.97152  1.0000
  H   H1687     1.0  0.69328  0.51226  0.98608  1.0000
  C   C1042     1.0  0.51105  0.82811  0.51235  1.0000
  H   H1688     1.0  0.67316  0.89418  0.93385  1.0000
  H   H1689     1.0  0.51273  0.84886  0.99730  1.0000
  H   H1690     1.0  0.70361  0.92117  0.96004  1.0000
  H   H1691     1.0  0.71188  0.89423  0.99102  1.0000
  H   H1692     1.0  0.46597  0.54717  0.95980  1.0000
  H   H1693     1.0  0.70094  0.91258  0.91934  1.0000
  C   C1043     1.0  0.70440  0.91087  0.94439  1.0000
  H   H1694     1.0  0.49847  0.82225  0.50438  1.0000
  C   C1044     1.0  0.71081  0.86068  0.99918  1.0000
  S   S416      1.0  0.61725  0.83785  0.50273  1.0000
  Fe  Fe206     1.0  0.79025  0.05371  0.13220  1.0000
  S   S417      1.0  0.78919  0.07512  0.10353  1.0000
  S   S418      1.0  0.76888  0.02923  0.12119  1.0000
  Fe  Fe207     1.0  0.82159  0.07662  0.16265  1.0000
  S   S419      1.0  0.82294  0.09913  0.13512  1.0000
  S   S420      1.0  0.84146  0.07905  0.19747  1.0000
  Fe  Fe208     1.0  0.79702  0.09090  0.14833  1.0000
  S   S421      1.0  0.79025  0.11304  0.15886  1.0000
  Fe  Fe209     1.0  0.81512  0.08209  0.09175  1.0000
  S   S422      1.0  0.81944  0.08983  0.03854  1.0000
  S   S423      1.0  0.79595  0.06924  0.17882  1.0000
  S   S424      1.0  0.81591  0.05978  0.11770  1.0000
  Fe  Fe210     1.0  0.88112  0.14560  0.34289  1.0000
  S   S425      1.0  0.89816  0.13439  0.35939  1.0000
  S   S426      1.0  0.86145  0.13710  0.30534  1.0000
  Fe  Fe211     1.0  0.89179  0.17277  0.39645  1.0000
  S   S427      1.0  0.90913  0.16315  0.41786  1.0000
  S   S428      1.0  0.88956  0.19700  0.41133  1.0000
  Fe  Fe212     1.0  0.91632  0.16080  0.36570  1.0000
  S   S429      1.0  0.94140  0.17099  0.34246  1.0000
  Fe  Fe213     1.0  0.88953  0.13776  0.41001  1.0000
  S   S430      1.0  0.88109  0.11530  0.44327  1.0000
  S   S431      1.0  0.89974  0.17161  0.34486  1.0000
  S   S432      1.0  0.87177  0.14778  0.39314  1.0000
  C   C1045     1.0  0.88505  0.25880  0.01136  1.0000
  S   S433      1.0  0.74537  0.15306  0.27605  1.0000
  S   S434      1.0  0.73779  0.18614  0.21871  1.0000
  H   H1695     1.0  0.84973  0.26351  0.00966  1.0000
  H   H1696     1.0  0.86793  0.24211  0.06277  1.0000
  Fe  Fe214     1.0  0.73102  0.15231  0.32191  1.0000
  S   S435      1.0  0.73899  0.15540  0.37474  1.0000
  C   C1046     1.0  0.77526  0.00083  0.13434  1.0000
  H   H1697     1.0  0.88204  0.28652  0.03689  1.0000
  S   S436      1.0  0.89955  0.44423  0.37166  1.0000
  C   C1047     1.0  0.94364  0.43683  0.03973  1.0000
  S   S437      1.0  0.89743  0.46857  0.21875  1.0000
  H   H1698     1.0  0.85009  0.24540  0.05424  1.0000
  Fe  Fe215     1.0  0.79201  0.20148  0.05799  1.0000
  S   S438      1.0  0.78871  0.22288  0.03320  1.0000
  S   S439      1.0  0.77840  0.18157  0.09443  1.0000
  S   S440      1.0  0.79862  0.19112  0.01196  1.0000
  N   N107      1.0  0.87060  0.26026  0.02579  1.0000
  H   H1699     1.0  0.80805  0.05298  0.04312  1.0000
  Fe  Fe216     1.0  0.81498  0.23766  0.04236  1.0000
  S   S441      1.0  0.82679  0.26224  0.07098  1.0000
  C   C1048     1.0  0.71668  0.12161  0.13094  1.0000
  S   S442      1.0  0.78879  0.22011  0.44479  1.0000
  S   S443      1.0  0.81730  0.21674  0.07047  1.0000
  C   C1049     1.0  0.80205  0.17672  0.39282  1.0000
  Fe  Fe217     1.0  0.88396  0.38984  0.10801  1.0000
  S   S444      1.0  0.89089  0.36751  0.10514  1.0000
  S   S445      1.0  0.87495  0.39532  0.15730  1.0000
  Fe  Fe218     1.0  0.89566  0.40054  0.03828  1.0000
  H   H1700     1.0  0.78649  0.00921  0.14412  1.0000
  C   C1050     1.0  0.86657  0.11315  0.47412  1.0000
  Fe  Fe219     1.0  0.88019  0.36309  0.05520  1.0000
  Fe  Fe220     1.0  0.89873  0.46662  0.34480  1.0000
  Fe  Fe221     1.0  0.91335  0.38517  0.08120  1.0000
  S   S446      1.0  0.93778  0.38545  0.09225  1.0000
  S   S447      1.0  0.87163  0.38442  0.05941  1.0000
  S   S448      1.0  0.90707  0.40750  0.08740  1.0000
  H   H1701     1.0  0.72985  0.12762  0.19012  1.0000
  H   H1702     1.0  0.93938  0.41875  0.10949  1.0000
  C   C1051     1.0  0.83725  0.28337  0.05880  1.0000
  C   C1052     1.0  0.84509  0.29550  0.08260  1.0000
  C   C1053     1.0  0.85390  0.31230  0.07413  1.0000
  C   C1054     1.0  0.85498  0.31721  0.04163  1.0000
  H   H1703     1.0  0.92853  0.47923  0.37747  1.0000
  H   H1704     1.0  0.94997  0.40907  0.03782  1.0000
  H   H1705     1.0  0.84439  0.29193  0.10783  1.0000
  H   H1706     1.0  0.85982  0.32147  0.09272  1.0000
  H   H1707     1.0  0.82997  0.07357  0.39638  1.0000
  C   C1055     1.0  0.84263  0.07858  0.38800  1.0000
  C   C1056     1.0  0.89162  0.44805  0.20260  1.0000
  C   C1057     1.0  0.89431  0.44588  0.16933  1.0000
  C   C1058     1.0  0.88937  0.42981  0.15518  1.0000
  C   C1059     1.0  0.88140  0.41575  0.17411  1.0000
  C   C1060     1.0  0.87865  0.41792  0.20740  1.0000
  C   C1061     1.0  0.88387  0.43399  0.22170  1.0000
  H   H1708     1.0  0.90021  0.45670  0.15434  1.0000
  H   H1709     1.0  0.89145  0.42834  0.12949  1.0000
  H   H1710     1.0  0.87242  0.40711  0.22219  1.0000
  H   H1711     1.0  0.88164  0.43550  0.24731  1.0000
  C   C1062     1.0  0.89754  0.43970  0.41382  1.0000
  C   C1063     1.0  0.89953  0.42531  0.42434  1.0000
  C   C1064     1.0  0.89811  0.42118  0.45757  1.0000
  H   H1712     1.0  0.79071  0.29050  0.47788  1.0000
  C   C1065     1.0  0.89281  0.44588  0.47016  1.0000
  C   C1066     1.0  0.89429  0.45005  0.43692  1.0000
  H   H1713     1.0  0.90202  0.41721  0.40663  1.0000
  C   C1067     1.0  0.83587  0.08736  0.33684  1.0000
  H   H1714     1.0  0.82088  0.14978  0.03275  1.0000
  H   H1715     1.0  0.89273  0.46115  0.42917  1.0000
  C   C1068     1.0  0.74972  0.18556  0.18477  1.0000
  C   C1069     1.0  0.74952  0.19440  0.15665  1.0000
  C   C1070     1.0  0.75864  0.19372  0.12895  1.0000
  C   C1071     1.0  0.76818  0.18439  0.12948  1.0000
  C   C1072     1.0  0.76862  0.17585  0.15782  1.0000
  C   C1073     1.0  0.75949  0.17651  0.18544  1.0000
  H   H1716     1.0  0.74192  0.20139  0.15604  1.0000
  H   H1717     1.0  0.75786  0.19995  0.10689  1.0000
  H   H1718     1.0  0.77594  0.16855  0.15836  1.0000
  H   H1719     1.0  0.75991  0.16989  0.20721  1.0000
  C   C1074     1.0  0.77519  0.20199  0.42520  1.0000
  C   C1075     1.0  0.77105  0.20280  0.39269  1.0000
  C   C1076     1.0  0.76015  0.18861  0.37663  1.0000
  C   C1077     1.0  0.75322  0.17350  0.39310  1.0000
  C   C1078     1.0  0.75747  0.17268  0.42552  1.0000
  C   C1079     1.0  0.76842  0.18682  0.44147  1.0000
  H   H1720     1.0  0.77621  0.21448  0.37988  1.0000
  H   H1721     1.0  0.75696  0.18942  0.35169  1.0000
  H   H1722     1.0  0.75213  0.16107  0.43849  1.0000
  H   H1723     1.0  0.77135  0.18602  0.46657  1.0000
  C   C1080     1.0  0.87473  0.19515  0.44100  1.0000
  C   C1081     1.0  0.87014  0.20862  0.44742  1.0000
  C   C1082     1.0  0.85843  0.20739  0.47132  1.0000
  H   H1724     1.0  0.89013  0.45388  0.48782  1.0000
  H   H1725     1.0  0.82318  0.20673  0.41282  1.0000
  C   C1083     1.0  0.86755  0.18042  0.45849  1.0000
  H   H1726     1.0  0.87571  0.22005  0.43399  1.0000
  H   H1727     1.0  0.88264  0.27297  0.06894  1.0000
  H   H1728     1.0  0.83025  0.10207  0.39155  1.0000
  H   H1729     1.0  0.87109  0.17002  0.45388  1.0000
  H   H1730     1.0  0.95958  0.23331  0.34762  1.0000
  H   H1731     1.0  0.85065  0.48008  0.18407  1.0000
  H   H1732     1.0  0.83620  0.13220  0.04185  1.0000
  C   C1084     1.0  0.80134  0.02259  0.06760  1.0000
  C   C1085     1.0  0.84729  0.09549  0.22682  1.0000
  C   C1086     1.0  0.86081  0.09844  0.24582  1.0000
  C   C1087     1.0  0.86561  0.11138  0.26948  1.0000
  C   C1088     1.0  0.85676  0.12133  0.27462  1.0000
  C   C1089     1.0  0.84324  0.11833  0.25566  1.0000
  C   C1090     1.0  0.83856  0.10555  0.23182  1.0000
  H   H1733     1.0  0.86769  0.09079  0.24194  1.0000
  H   H1734     1.0  0.87619  0.11368  0.28349  1.0000
  H   H1735     1.0  0.83629  0.12592  0.25945  1.0000
  H   H1736     1.0  0.82811  0.10339  0.21747  1.0000
  C   C1091     1.0  0.85601  0.17926  0.48261  1.0000
  Fe  Fe222     1.0  0.72953  0.16420  0.25306  1.0000
  C   C1092     1.0  0.84286  0.10630  0.38303  1.0000
  C   C1093     1.0  0.84325  0.47734  0.20682  1.0000
  H   H1737     1.0  0.85505  0.21786  0.47638  1.0000
  H   H1738     1.0  0.74917  0.14162  0.17688  1.0000
  C   C1094     1.0  0.74298  0.14024  0.11338  1.0000
  H   H1739     1.0  0.79085  0.17794  0.40145  1.0000
  H   H1740     1.0  0.85313  0.10026  0.05547  1.0000
  H   H1741     1.0  0.87791  0.11562  0.02376  1.0000
  C   C1095     1.0  0.77403  0.11054  0.18535  1.0000
  C   C1096     1.0  0.77260  0.12475  0.19954  1.0000
  C   C1097     1.0  0.75912  0.12332  0.21856  1.0000
  C   C1098     1.0  0.74678  0.10773  0.22274  1.0000
  C   C1099     1.0  0.74836  0.09348  0.20906  1.0000
  C   C1100     1.0  0.76199  0.09486  0.19058  1.0000
  H   H1742     1.0  0.78191  0.13691  0.19567  1.0000
  H   H1743     1.0  0.75812  0.13433  0.22935  1.0000
  H   H1744     1.0  0.73888  0.08136  0.21234  1.0000
  H   H1745     1.0  0.76299  0.08384  0.17968  1.0000
  H   H1746     1.0  0.77036  0.01679  0.05683  1.0000
  C   C1101     1.0  0.76450  0.00730  0.12262  1.0000
  S   S449      1.0  0.90348  0.37913  0.03093  1.0000
  N   N108      1.0  0.92170  0.40422  0.19851  1.0000
  C   C1102     1.0  0.90535  0.39180  0.20388  1.0000
  C   C1103     1.0  0.92116  0.41802  0.17874  1.0000
  C   C1104     1.0  0.93127  0.39611  0.18119  1.0000
  C   C1105     1.0  0.92900  0.41096  0.23017  1.0000
  H   H1747     1.0  0.89753  0.39759  0.21557  1.0000
  H   H1748     1.0  0.90518  0.38147  0.21958  1.0000
  Fe  Fe223     1.0  0.89904  0.47544  0.27256  1.0000
  C   C1106     1.0  0.96096  0.18245  0.35731  1.0000
  H   H1749     1.0  0.93332  0.42719  0.17265  1.0000
  H   H1750     1.0  0.91487  0.41327  0.15549  1.0000
  H   H1751     1.0  0.94382  0.40496  0.17738  1.0000
  H   H1752     1.0  0.92629  0.39130  0.15678  1.0000
  H   H1753     1.0  0.93157  0.38533  0.19489  1.0000
  H   H1754     1.0  0.92192  0.41702  0.24391  1.0000
  H   H1755     1.0  0.94129  0.42052  0.22679  1.0000
  H   H1756     1.0  0.92977  0.40094  0.24564  1.0000
  C   C1107     1.0  0.87519  0.27447  0.04911  1.0000
  Fe  Fe224     1.0  0.82364  0.20778  0.02311  1.0000
  C   C1108     1.0  0.96308  0.43215  0.12733  1.0000
  C   C1109     1.0  0.77753  0.01513  0.03575  1.0000
  H   H1757     1.0  0.85067  0.16789  0.49636  1.0000
  H   H1758     1.0  0.87099  0.10263  0.37682  1.0000
  C   C1110     1.0  0.95833  0.46995  0.40875  1.0000
  C   C1111     1.0  0.86646  0.11343  0.01335  1.0000
  H   H1759     1.0  0.80765  0.11278  0.08652  1.0000
  H   H1760     1.0  0.85056  0.11085  0.40476  1.0000
  H   H1761     1.0  0.77205  0.01743  0.01341  1.0000
  C   C1112     1.0  0.83754  0.10139  0.01779  1.0000
  H   H1762     1.0  0.82607  0.20018  0.45256  1.0000
  H   H1763     1.0  0.81101  0.15560  0.06639  1.0000
  H   H1764     1.0  0.80288  0.01162  0.00667  1.0000
  H   H1765     1.0  0.92271  0.20095  0.40950  1.0000
  H   H1766     1.0  0.83200  0.46650  0.20165  1.0000
  Fe  Fe225     1.0  0.79900  0.21793  0.49357  1.0000
  H   H1767     1.0  0.89950  0.40999  0.46528  1.0000
  H   H1768     1.0  0.79549  0.16920  0.45591  1.0000
  C   C1113     1.0  0.95076  0.41816  0.11419  1.0000
  C   C1114     1.0  0.78643  0.22702  0.17633  1.0000
  H   H1769     1.0  0.83213  0.27925  0.00772  1.0000
  H   H1770     1.0  0.92501  0.22947  0.40142  1.0000
  H   H1771     1.0  0.95064  0.44297  0.06156  1.0000
  C   C1115     1.0  0.89464  0.43140  0.48065  1.0000
  C   C1116     1.0  0.74987  0.99604  0.11040  1.0000
  H   H1772     1.0  0.83721  0.18070  0.42638  1.0000
  H   H1773     1.0  0.95102  0.46068  0.42700  1.0000
  C   C1117     1.0  0.93498  0.20425  0.39938  1.0000
  C   C1118     1.0  0.92834  0.21269  0.34805  1.0000
  H   H1774     1.0  0.79056  0.04757  0.01891  1.0000
  H   H1775     1.0  0.79665  0.24005  0.09862  1.0000
  H   H1776     1.0  0.86548  0.13715  0.46676  1.0000
  H   H1777     1.0  0.83694  0.12448  0.08152  1.0000
  H   H1778     1.0  0.77735  0.23234  0.11791  1.0000
  S   S450      1.0  0.91792  0.47501  0.30597  1.0000
  H   H1779     1.0  0.84506  0.06820  0.37586  1.0000
  C   C1119     1.0  0.86296  0.09895  0.35549  1.0000
  H   H1780     1.0  0.86609  0.11009  0.33985  1.0000
  H   H1781     1.0  0.81846  0.23949  0.17424  1.0000
  H   H1782     1.0  0.92941  0.20172  0.33516  1.0000
  H   H1783     1.0  0.93538  0.19283  0.38749  1.0000
  H   H1784     1.0  0.82573  0.16555  0.39701  1.0000
  H   H1785     1.0  0.80681  0.19912  0.44117  1.0000
  H   H1786     1.0  0.83407  0.18731  0.38705  1.0000
  N   N109      1.0  0.79443  0.02657  0.03827  1.0000
  H   H1787     1.0  0.84523  0.11716  0.36681  1.0000
  N   N110      1.0  0.79898  0.27159  0.49226  1.0000
  H   H1788     1.0  0.79664  0.12552  0.07962  1.0000
  C   C1120     1.0  0.73636  0.13646  0.17059  1.0000
  H   H1789     1.0  0.81614  0.03317  0.01019  1.0000
  C   C1121     1.0  0.77139  0.98342  0.13380  1.0000
  N   N111      1.0  0.94832  0.47179  0.38246  1.0000
  N   N112      1.0  0.73383  0.12811  0.13836  1.0000
  H   H1790     1.0  0.94330  0.20748  0.42017  1.0000
  H   H1791     1.0  0.80003  0.00930  0.06757  1.0000
  H   H1792     1.0  0.81500  0.17056  0.46660  1.0000
  H   H1793     1.0  0.82058  0.24306  0.13114  1.0000
  H   H1794     1.0  0.77448  0.22777  0.17651  1.0000
  N   N113      1.0  0.81364  0.18013  0.41939  1.0000
  H   H1795     1.0  0.81219  0.14522  0.12193  1.0000
  H   H1796     1.0  0.84792  0.46777  0.28478  1.0000
  C   C1122     1.0  0.85570  0.45918  0.22565  1.0000
  H   H1797     1.0  0.93235  0.44597  0.38287  1.0000
  H   H1798     1.0  0.81423  0.03057  0.06970  1.0000
  C   C1123     1.0  0.95979  0.42072  0.02953  1.0000
  H   H1799     1.0  0.94044  0.24327  0.37546  1.0000
  H   H1800     1.0  0.84754  0.14625  0.07310  1.0000
  S   S451      1.0  0.84197  0.19641  0.02424  1.0000
  H   H1801     1.0  0.74112  0.13452  0.08857  1.0000
  H   H1802     1.0  0.93268  0.45650  0.34579  1.0000
  N   N114      1.0  0.95347  0.43236  0.01516  1.0000
  H   H1803     1.0  0.79157  0.23095  0.20089  1.0000
  H   H1804     1.0  0.78448  0.21362  0.17296  1.0000
  H   H1805     1.0  0.86328  0.46126  0.20318  1.0000
  C   C1124     1.0  0.82828  0.17834  0.40687  1.0000
  H   H1806     1.0  0.79536  0.02471  0.09013  1.0000
  H   H1807     1.0  0.79873  0.16385  0.38270  1.0000
  N   N115      1.0  0.82212  0.13862  0.07834  1.0000
  C   C1125     1.0  0.82154  0.15265  0.05934  1.0000
  C   C1126     1.0  0.82293  0.14299  0.11342  1.0000
  C   C1127     1.0  0.83634  0.13529  0.06831  1.0000
  C   C1128     1.0  0.80764  0.12353  0.07229  1.0000
  C   C1129     1.0  0.95318  0.40344  0.10769  1.0000
  C   C1130     1.0  0.96409  0.18596  0.39045  1.0000
  C   C1131     1.0  0.93621  0.47753  0.39663  1.0000
  S   S452      1.0  0.86601  0.33815  0.02911  1.0000
  H   H1808     1.0  0.84479  0.44779  0.22157  1.0000
  H   H1809     1.0  0.74140  0.00083  0.10132  1.0000
  C   C1132     1.0  0.85143  0.19271  0.48910  1.0000
  H   H1810     1.0  0.93843  0.44539  0.02962  1.0000
  H   H1811     1.0  0.73745  0.10737  0.11503  1.0000
  C   C1133     1.0  0.94031  0.45552  0.36581  1.0000
  C   C1134     1.0  0.80106  0.28680  0.47401  1.0000
  Fe  Fe226     1.0  0.72563  0.12867  0.26326  1.0000
  C   C1135     1.0  0.93748  0.23261  0.39235  1.0000
  C   C1136     1.0  0.78942  0.23192  0.11846  1.0000
  H   H1812     1.0  0.83361  0.15439  0.11897  1.0000
  H   H1813     1.0  0.83829  0.07751  0.32261  1.0000
  H   H1814     1.0  0.81385  0.26365  0.46021  1.0000
  S   S453      1.0  0.87949  0.46509  0.30975  1.0000
  H   H1815     1.0  0.83235  0.16422  0.06317  1.0000
  H   H1816     1.0  0.80693  0.18558  0.37243  1.0000
  H   H1817     1.0  0.82300  0.08235  0.34365  1.0000
  H   H1818     1.0  0.78812  0.25698  0.15593  1.0000
  H   H1819     1.0  0.83803  0.09794  0.32002  1.0000
  C   C1137     1.0  0.81763  0.19730  0.43200  1.0000
  C   C1138     1.0  0.83829  0.28828  0.02633  1.0000
  H   H1820     1.0  0.75223  0.11862  0.14426  1.0000
  C   C1139     1.0  0.73931  0.11414  0.13881  1.0000
  H   H1821     1.0  0.82346  0.13274  0.12854  1.0000
  C   C1140     1.0  0.84714  0.30505  0.01786  1.0000
  N   N116      1.0  0.93917  0.21805  0.37603  1.0000
  H   H1822     1.0  0.80352  0.15509  0.43751  1.0000
  H   H1823     1.0  0.85018  0.08242  0.41011  1.0000
  H   H1824     1.0  0.82419  0.27760  0.49275  1.0000
  C   C1141     1.0  0.85242  0.10471  0.03139  1.0000
  H   H1825     1.0  0.95454  0.18101  0.40822  1.0000
  C   C1142     1.0  0.79549  0.04398  0.04070  1.0000
  H   H1826     1.0  0.86575  0.08935  0.34124  1.0000
  H   H1827     1.0  0.78870  0.04581  0.06232  1.0000
  H   H1828     1.0  0.89973  0.38610  0.18042  1.0000
  H   H1829     1.0  0.78813  0.21893  0.11237  1.0000
  H   H1830     1.0  0.80675  0.11962  0.04618  1.0000
  C   C1143     1.0  0.80337  0.02460  0.00908  1.0000
  H   H1831     1.0  0.77615  0.00182  0.03544  1.0000
  H   H1832     1.0  0.91566  0.20899  0.35606  1.0000
  C   C1144     1.0  0.79955  0.25509  0.15615  1.0000
  C   C1145     1.0  0.80659  0.16819  0.44601  1.0000
  N   N117      1.0  0.79694  0.23737  0.15042  1.0000
  C   C1146     1.0  0.81239  0.23546  0.15052  1.0000
  H   H1833     1.0  0.80522  0.25971  0.18005  1.0000
  H   H1834     1.0  0.81083  0.22222  0.14606  1.0000
  S   S454      1.0  0.72873  0.10579  0.24238  1.0000
  C   C1147     1.0  0.86107  0.24470  0.04299  1.0000
  H   H1835     1.0  0.80231  0.28487  0.44737  1.0000
  H   H1836     1.0  0.80747  0.26319  0.13691  1.0000
  H   H1837     1.0  0.73217  0.14695  0.17146  1.0000
  N   N118      1.0  0.84605  0.09277  0.36582  1.0000
  H   H1838     1.0  0.73954  0.15124  0.11313  1.0000
  H   H1839     1.0  0.91465  0.42491  0.19175  1.0000
  H   H1840     1.0  0.96428  0.22577  0.38488  1.0000
  H   H1841     1.0  0.73285  0.10492  0.15788  1.0000
  H   H1842     1.0  0.86251  0.45643  0.24534  1.0000
  H   H1843     1.0  0.83032  0.45974  0.26051  1.0000
  H   H1844     1.0  0.85731  0.23369  0.02615  1.0000
  H   H1845     1.0  0.81193  0.29753  0.48186  1.0000
  H   H1846     1.0  0.86491  0.08867  0.48764  1.0000
  H   H1847     1.0  0.94546  0.23691  0.41365  1.0000
  C   C1148     1.0  0.81292  0.26713  0.48618  1.0000
  H   H1848     1.0  0.93346  0.42557  0.04796  1.0000
  H   H1849     1.0  0.93104  0.22279  0.32995  1.0000
  H   H1850     1.0  0.92816  0.46833  0.41411  1.0000
  C   C1149     1.0  0.86058  0.09849  0.49254  1.0000
  H   H1851     1.0  0.86451  0.27569  0.06076  1.0000
  H   H1852     1.0  0.89261  0.25676  0.03038  1.0000
  H   H1853     1.0  0.75601  0.14511  0.11804  1.0000
  S   S455      1.0  0.71673  0.16542  0.29994  1.0000
  H   H1854     1.0  0.96108  0.44345  0.13263  1.0000
  C   C1150     1.0  0.84179  0.47055  0.26386  1.0000
  C   C1151     1.0  0.95578  0.22253  0.36436  1.0000
  S   S456      1.0  0.90501  0.42218  0.00281  1.0000
  N   N119      1.0  0.85184  0.47387  0.23398  1.0000
  C   C1152     1.0  0.86090  0.12576  0.48059  1.0000
  H   H1855     1.0  0.78256  0.24597  0.49435  1.0000
  H   H1856     1.0  0.94903  0.45068  0.35502  1.0000
  H   H1857     1.0  0.77359  0.26052  0.48561  1.0000
  H   H1858     1.0  0.78510  0.25485  0.45488  1.0000
  C   C1153     1.0  0.78441  0.25769  0.48132  1.0000
  H   H1859     1.0  0.95718  0.21196  0.35069  1.0000
  S   S457      1.0  0.82545  0.23151  0.49983  1.0000
  H   H1860     1.0  0.83907  0.48159  0.27136  1.0000
  H   H1861     1.0  0.96449  0.48202  0.42189  1.0000
  Fe  Fe227     1.0  0.79185  0.05260  0.61459  1.0000
  S   S458      1.0  0.78962  0.07514  0.59155  1.0000
  S   S459      1.0  0.77568  0.02733  0.59206  1.0000
  Fe  Fe228     1.0  0.81813  0.07472  0.65957  1.0000
  S   S460      1.0  0.81761  0.09803  0.63965  1.0000
  S   S461      1.0  0.83591  0.07702  0.69937  1.0000
  Fe  Fe229     1.0  0.79115  0.08551  0.64224  1.0000
  S   S462      1.0  0.78230  0.10576  0.65620  1.0000
  Fe  Fe230     1.0  0.81630  0.08653  0.59011  1.0000
  S   S463      1.0  0.82917  0.10757  0.55489  1.0000
  S   S464      1.0  0.79144  0.06246  0.66602  1.0000
  S   S465      1.0  0.81880  0.06354  0.60957  1.0000
  Fe  Fe231     1.0  0.87789  0.14671  0.84075  1.0000
  S   S466      1.0  0.89414  0.13636  0.86473  1.0000
  S   S467      1.0  0.86113  0.13926  0.79731  1.0000
  Fe  Fe232     1.0  0.88777  0.17681  0.88639  1.0000
  S   S468      1.0  0.90490  0.16931  0.91398  1.0000
  S   S469      1.0  0.88268  0.19997  0.89608  1.0000
  Fe  Fe233     1.0  0.91275  0.16278  0.86525  1.0000
  S   S470      1.0  0.93846  0.16561  0.85303  1.0000
  Fe  Fe234     1.0  0.88557  0.14354  0.91249  1.0000
  S   S471      1.0  0.88373  0.12931  0.95943  1.0000
  S   S472      1.0  0.89713  0.17250  0.83748  1.0000
  S   S473      1.0  0.86779  0.15170  0.88872  1.0000
  Fe  Fe235     1.0  0.72871  0.15509  0.75718  1.0000
  S   S474      1.0  0.74209  0.14481  0.79027  1.0000
  S   S475      1.0  0.73893  0.17801  0.72538  1.0000
  H   H1862     1.0  0.95326  0.14423  0.97943  1.0000
  S   S476      1.0  0.72935  0.09710  0.76429  1.0000
  Fe  Fe236     1.0  0.72386  0.14435  0.82851  1.0000
  S   S477      1.0  0.72801  0.14995  0.88269  1.0000
  Fe  Fe237     1.0  0.88500  0.46282  0.85469  1.0000
  S   S478      1.0  0.90882  0.46501  0.83508  1.0000
  S   S479      1.0  0.87083  0.43947  0.88306  1.0000
  H   H1863     1.0  0.92299  0.31835  0.60414  1.0000
  S   S480      1.0  0.90966  0.46765  0.74112  1.0000
  S   S481      1.0  0.87714  0.47084  0.80821  1.0000
  Fe  Fe238     1.0  0.79370  0.20395  0.56346  1.0000
  S   S482      1.0  0.79201  0.22672  0.54107  1.0000
  S   S483      1.0  0.77706  0.18151  0.59192  1.0000
  H   H1864     1.0  0.79597  0.26351  0.54204  1.0000
  H   H1865     1.0  0.84778  0.30871  0.99268  1.0000
  H   H1866     1.0  0.90577  0.34108  0.62446  1.0000
  Fe  Fe239     1.0  0.81864  0.23948  0.54865  1.0000
  S   S484      1.0  0.82726  0.26620  0.57030  1.0000
  H   H1867     1.0  0.88195  0.24807  0.99384  1.0000
  S   S485      1.0  0.78860  0.21081  0.93589  1.0000
  S   S486      1.0  0.81963  0.21714  0.57487  1.0000
  C   C1154     1.0  0.88028  0.39448  0.81096  1.0000
  Fe  Fe240     1.0  0.88957  0.39332  0.61820  1.0000
  S   S487      1.0  0.89932  0.37321  0.61034  1.0000
  S   S488      1.0  0.87820  0.39843  0.66493  1.0000
  H   H1868     1.0  0.89623  0.31925  0.61414  1.0000
  H   H1869     1.0  0.77930  0.00881  0.64891  1.0000
  H   H1870     1.0  0.91514  0.44899  0.95773  1.0000
  Fe  Fe241     1.0  0.88578  0.36726  0.56332  1.0000
  S   S489      1.0  0.87579  0.34111  0.53892  1.0000
  Fe  Fe242     1.0  0.91880  0.39282  0.58194  1.0000
  S   S490      1.0  0.94454  0.39532  0.58245  1.0000
  S   S491      1.0  0.87435  0.38587  0.57350  1.0000
  S   S492      1.0  0.91015  0.41321  0.59344  1.0000
  H   H1871     1.0  0.83512  0.29733  0.60516  1.0000
  H   H1872     1.0  0.94059  0.41527  0.63759  1.0000
  C   C1155     1.0  0.84132  0.28680  0.56153  1.0000
  C   C1156     1.0  0.84247  0.29998  0.58328  1.0000
  C   C1157     1.0  0.85300  0.31659  0.57709  1.0000
  C   C1158     1.0  0.86244  0.32034  0.54871  1.0000
  H   H1873     1.0  0.86727  0.43617  0.55250  1.0000
  H   H1874     1.0  0.78736  0.27837  0.53314  1.0000
  S   S493      1.0  0.89228  0.42660  0.52270  1.0000
  H   H1875     1.0  0.85364  0.32650  0.59409  1.0000
  H   H1876     1.0  0.89662  0.41730  0.76739  1.0000
  H   H1877     1.0  0.87581  0.39113  0.78571  1.0000
  C   C1159     1.0  0.90075  0.44811  0.72111  1.0000
  C   C1160     1.0  0.90937  0.44382  0.69625  1.0000
  C   C1161     1.0  0.90270  0.42853  0.67930  1.0000
  C   C1162     1.0  0.88723  0.41744  0.68677  1.0000
  C   C1163     1.0  0.87857  0.42170  0.71170  1.0000
  C   C1164     1.0  0.88529  0.43702  0.72876  1.0000
  H   H1878     1.0  0.92134  0.45235  0.69017  1.0000
  H   H1879     1.0  0.90958  0.42535  0.66051  1.0000
  H   H1880     1.0  0.86655  0.41322  0.71752  1.0000
  H   H1881     1.0  0.87846  0.44039  0.74742  1.0000
  C   C1165     1.0  0.88015  0.43483  0.91686  1.0000
  C   C1166     1.0  0.87203  0.42042  0.93513  1.0000
  C   C1167     1.0  0.87940  0.41630  0.96160  1.0000
  C   C1168     1.0  0.89499  0.42659  0.96993  1.0000
  C   C1169     1.0  0.90311  0.44091  0.95146  1.0000
  C   C1170     1.0  0.89576  0.44503  0.92509  1.0000
  H   H1882     1.0  0.85996  0.41244  0.92893  1.0000
  Fe  Fe243     1.0  0.79731  0.21337  0.98785  1.0000
  H   H1883     1.0  0.95475  0.16293  0.91633  1.0000
  H   H1884     1.0  0.90216  0.45617  0.91131  1.0000
  C   C1171     1.0  0.75013  0.17886  0.68915  1.0000
  C   C1172     1.0  0.75820  0.19435  0.67423  1.0000
  C   C1173     1.0  0.76674  0.19546  0.64473  1.0000
  C   C1174     1.0  0.76703  0.18101  0.62961  1.0000
  C   C1175     1.0  0.75883  0.16550  0.64442  1.0000
  C   C1176     1.0  0.75054  0.16443  0.67419  1.0000
  H   H1885     1.0  0.75790  0.20558  0.68563  1.0000
  H   H1886     1.0  0.77296  0.20746  0.63358  1.0000
  H   H1887     1.0  0.75882  0.15421  0.63278  1.0000
  H   H1888     1.0  0.74435  0.15242  0.68535  1.0000
  C   C1177     1.0  0.77165  0.19381  0.92172  1.0000
  C   C1178     1.0  0.76822  0.19247  0.88833  1.0000
  C   C1179     1.0  0.75508  0.17897  0.87597  1.0000
  C   C1180     1.0  0.74508  0.16677  0.89700  1.0000
  C   C1181     1.0  0.74854  0.16808  0.93039  1.0000
  C   C1182     1.0  0.76183  0.18146  0.94269  1.0000
  H   H1889     1.0  0.77573  0.20197  0.87191  1.0000
  H   H1890     1.0  0.75252  0.17816  0.85025  1.0000
  H   H1891     1.0  0.74089  0.15871  0.94684  1.0000
  H   H1892     1.0  0.76434  0.18232  0.96842  1.0000
  C   C1183     1.0  0.87174  0.19921  0.93210  1.0000
  C   C1184     1.0  0.86494  0.21105  0.93780  1.0000
  C   C1185     1.0  0.85562  0.21021  0.96593  1.0000
  H   H1893     1.0  0.95382  0.13636  0.93882  1.0000
  C   C1186     1.0  0.95800  0.40862  0.61104  1.0000
  C   C1187     1.0  0.86947  0.18674  0.95488  1.0000
  H   H1894     1.0  0.86673  0.22070  0.92014  1.0000
  H   H1895     1.0  0.85020  0.21920  0.96994  1.0000
  H   H1896     1.0  0.80861  0.28491  0.53668  1.0000
  H   H1897     1.0  0.87474  0.17761  0.95065  1.0000
  H   H1898     1.0  0.95051  0.42066  0.96770  1.0000
  C   C1188     1.0  0.95729  0.18240  0.85854  1.0000
  H   H1899     1.0  0.94833  0.19891  0.88412  1.0000
  C   C1189     1.0  0.87453  0.41937  0.81096  1.0000
  C   C1190     1.0  0.84376  0.09471  0.72559  1.0000
  C   C1191     1.0  0.85236  0.09398  0.75315  1.0000
  C   C1192     1.0  0.85826  0.10767  0.77503  1.0000
  C   C1193     1.0  0.85568  0.12225  0.76932  1.0000
  C   C1194     1.0  0.84750  0.12312  0.74124  1.0000
  C   C1195     1.0  0.84154  0.10944  0.71956  1.0000
  H   H1900     1.0  0.85423  0.08267  0.75796  1.0000
  H   H1901     1.0  0.86452  0.10683  0.79657  1.0000
  H   H1902     1.0  0.84556  0.13440  0.73657  1.0000
  H   H1903     1.0  0.83505  0.11026  0.69850  1.0000
  C   C1196     1.0  0.85634  0.42000  0.62809  1.0000
  C   C1197     1.0  0.84939  0.12374  0.50531  1.0000
  C   C1198     1.0  0.94662  0.16352  0.93658  1.0000
  H   H1904     1.0  0.84754  0.42496  0.56861  1.0000
  H   H1905     1.0  0.91786  0.12472  0.92654  1.0000
  H   H1906     1.0  0.92899  0.35298  0.54691  1.0000
  H   H1907     1.0  0.82540  0.10477  0.97572  1.0000
  C   C1199     1.0  0.75573  0.99425  0.58312  1.0000
  H   H1908     1.0  0.89048  0.44308  0.58756  1.0000
  C   C1200     1.0  0.92542  0.14799  0.97391  1.0000
  C   C1201     1.0  0.76671  0.10268  0.68449  1.0000
  C   C1202     1.0  0.76365  0.11659  0.69536  1.0000
  C   C1203     1.0  0.75193  0.11488  0.71932  1.0000
  C   C1204     1.0  0.74322  0.09924  0.73257  1.0000
  C   C1205     1.0  0.74608  0.08525  0.72132  1.0000
  C   C1206     1.0  0.75780  0.08696  0.69723  1.0000
  H   H1909     1.0  0.77047  0.12878  0.68554  1.0000
  H   H1910     1.0  0.74975  0.12570  0.72783  1.0000
  H   H1911     1.0  0.73926  0.07311  0.73140  1.0000
  H   H1912     1.0  0.75997  0.07614  0.68864  1.0000
  H   H1913     1.0  0.85046  0.28058  0.51660  1.0000
  C   C1207     1.0  0.76686  0.00590  0.60388  1.0000
  S   S494      1.0  0.90596  0.38611  0.53430  1.0000
  N   N120      1.0  0.86834  0.11246  0.61983  1.0000
  C   C1208     1.0  0.87842  0.11816  0.59026  1.0000
  C   C1209     1.0  0.87833  0.11257  0.64782  1.0000
  C   C1210     1.0  0.85659  0.09533  0.61429  1.0000
  C   C1211     1.0  0.85992  0.12372  0.62697  1.0000
  H   H1914     1.0  0.87113  0.11829  0.56886  1.0000
  H   H1915     1.0  0.88479  0.10982  0.58381  1.0000
  H   H1916     1.0  0.88751  0.13103  0.59354  1.0000
  H   H1917     1.0  0.88724  0.12534  0.65308  1.0000
  H   H1918     1.0  0.87094  0.10811  0.67037  1.0000
  H   H1919     1.0  0.88490  0.10424  0.64327  1.0000
  H   H1920     1.0  0.84887  0.09059  0.63621  1.0000
  H   H1921     1.0  0.86248  0.08646  0.60865  1.0000
  H   H1922     1.0  0.84872  0.09478  0.59358  1.0000
  H   H1923     1.0  0.85197  0.12364  0.60664  1.0000
  H   H1924     1.0  0.86841  0.13682  0.63077  1.0000
  H   H1925     1.0  0.85238  0.11990  0.64938  1.0000
  C   C1212     1.0  0.86135  0.30715  0.52700  1.0000
  H   H1926     1.0  0.89688  0.32364  0.54038  1.0000
  H   H1927     1.0  0.89091  0.33431  0.59366  1.0000
  H   H1928     1.0  0.91597  0.32263  0.53302  1.0000
  H   H1929     1.0  0.93235  0.34026  0.61374  1.0000
  C   C1213     1.0  0.95885  0.19721  0.87503  1.0000
  H   H1930     1.0  0.86753  0.27508  0.98715  1.0000
  Fe  Fe244     1.0  0.72384  0.11988  0.77491  1.0000
  H   H1931     1.0  0.90971  0.35355  0.55405  1.0000
  Fe  Fe245     1.0  0.82419  0.20830  0.52529  1.0000
  H   H1932     1.0  0.93661  0.33240  0.57551  1.0000
  C   C1214     1.0  0.90111  0.33205  0.60393  1.0000
  H   H1933     1.0  0.85018  0.12049  0.94440  1.0000
  H   H1934     1.0  0.88292  0.41095  0.86808  1.0000
  H   H1935     1.0  0.93807  0.12480  0.96661  1.0000
  N   N121      1.0  0.79750  0.10098  0.76077  1.0000
  C   C1215     1.0  0.80368  0.11714  0.74385  1.0000
  C   C1216     1.0  0.78193  0.09851  0.77624  1.0000
  C   C1217     1.0  0.80880  0.10088  0.78599  1.0000
  C   C1218     1.0  0.79552  0.08737  0.73691  1.0000
  H   H1936     1.0  0.81524  0.11930  0.73136  1.0000
  H   H1937     1.0  0.80554  0.12775  0.76108  1.0000
  H   H1938     1.0  0.79531  0.11761  0.72486  1.0000
  H   H1939     1.0  0.77330  0.09906  0.75804  1.0000
  H   H1940     1.0  0.77652  0.08616  0.78820  1.0000
  H   H1941     1.0  0.78304  0.10832  0.79494  1.0000
  H   H1942     1.0  0.81114  0.11138  0.80374  1.0000
  H   H1943     1.0  0.82050  0.10211  0.77511  1.0000
  H   H1944     1.0  0.80425  0.08902  0.79978  1.0000
  H   H1945     1.0  0.78738  0.08734  0.71710  1.0000
  H   H1946     1.0  0.79051  0.07491  0.74852  1.0000
  H   H1947     1.0  0.80710  0.08866  0.72523  1.0000
  H   H1948     1.0  0.87223  0.45848  0.59439  1.0000
  H   H1949     1.0  0.86450  0.41424  0.82884  1.0000
  H   H1950     1.0  0.85233  0.44779  0.61011  1.0000
  C   C1219     1.0  0.86484  0.44873  0.61172  1.0000
  C   C1220     1.0  0.95299  0.41696  0.63564  1.0000
  H   H1951     1.0  0.83693  0.18025  0.92800  1.0000
  H   H1952     1.0  0.81953  0.16138  0.92828  1.0000
  N   N122      1.0  0.88702  0.41276  0.81623  1.0000
  Fe  Fe246     1.0  0.90186  0.47463  0.79020  1.0000
  N   N123      1.0  0.86605  0.43254  0.60432  1.0000
  C   C1221     1.0  0.85088  0.11622  0.96864  1.0000
  H   H1953     1.0  0.84516  0.13364  0.51026  1.0000
  H   H1954     1.0  0.92449  0.36057  0.58511  1.0000
  H   H1955     1.0  0.85694  0.40759  0.62296  1.0000
  C   C1222     1.0  0.94573  0.13760  0.95855  1.0000
  H   H1956     1.0  0.96008  0.43385  0.67693  1.0000
  N   N124      1.0  0.93603  0.14664  0.94716  1.0000
  H   H1957     1.0  0.95410  0.17098  0.95679  1.0000
  H   H1958     1.0  0.93384  0.13616  0.89865  1.0000
  C   C1223     1.0  0.79762  0.27476  0.52749  1.0000
  C   C1224     1.0  0.90041  0.42054  0.79305  1.0000
  C   C1225     1.0  0.89277  0.41658  0.84999  1.0000
  H   H1959     1.0  0.91035  0.41639  0.79721  1.0000
  H   H1960     1.0  0.90529  0.43441  0.79520  1.0000
  H   H1961     1.0  0.89776  0.43025  0.85503  1.0000
  H   H1962     1.0  0.90222  0.41183  0.85503  1.0000
  H   H1963     1.0  0.87012  0.38826  0.82805  1.0000
  N   N125      1.0  0.79856  0.14504  0.58817  1.0000
  C   C1226     1.0  0.78805  0.14399  0.56060  1.0000
  C   C1227     1.0  0.80328  0.13052  0.58698  1.0000
  C   C1228     1.0  0.78995  0.14502  0.61912  1.0000
  C   C1229     1.0  0.81291  0.16065  0.58594  1.0000
  H   H1964     1.0  0.78420  0.15473  0.56095  1.0000
  H   H1965     1.0  0.77709  0.13237  0.56153  1.0000
  H   H1966     1.0  0.79421  0.14409  0.53686  1.0000
  H   H1967     1.0  0.81102  0.13074  0.60771  1.0000
  H   H1968     1.0  0.79270  0.11853  0.58847  1.0000
  H   H1969     1.0  0.80993  0.13013  0.56410  1.0000
  H   H1970     1.0  0.79725  0.14511  0.64053  1.0000
  H   H1971     1.0  0.77873  0.13370  0.62108  1.0000
  H   H1972     1.0  0.78671  0.15613  0.62134  1.0000
  H   H1973     1.0  0.81979  0.16106  0.56299  1.0000
  H   H1974     1.0  0.82102  0.16201  0.60660  1.0000
  H   H1975     1.0  0.80970  0.17183  0.58627  1.0000
  N   N126      1.0  0.81637  0.18230  0.90692  1.0000
  C   C1230     1.0  0.82119  0.17904  0.87371  1.0000
  C   C1231     1.0  0.79883  0.17453  0.91046  1.0000
  C   C1232     1.0  0.82172  0.20050  0.91247  1.0000
  C   C1233     1.0  0.82374  0.17517  0.93100  1.0000
  H   H1976     1.0  0.83439  0.18471  0.87032  1.0000
  H   H1977     1.0  0.81591  0.18433  0.85490  1.0000
  H   H1978     1.0  0.81732  0.16542  0.86863  1.0000
  H   H1979     1.0  0.79479  0.17713  0.93501  1.0000
  H   H1980     1.0  0.79291  0.17949  0.89234  1.0000
  H   H1981     1.0  0.79427  0.16076  0.90692  1.0000
  H   H1982     1.0  0.81588  0.20617  0.89552  1.0000
  H   H1983     1.0  0.83483  0.20688  0.90895  1.0000
  H   H1984     1.0  0.81866  0.20343  0.93760  1.0000
  H   H1985     1.0  0.82098  0.17805  0.95642  1.0000
  C   C1234     1.0  0.90687  0.32164  0.55228  1.0000
  Fe  Fe247     1.0  0.89553  0.40501  0.54812  1.0000
  H   H1986     1.0  0.86955  0.41629  0.78611  1.0000
  H   H1987     1.0  0.88788  0.43940  0.63068  1.0000
  C   C1235     1.0  0.77079  0.00010  0.63264  1.0000
  C   C1236     1.0  0.91944  0.35097  0.56566  1.0000
  H   H1988     1.0  0.86066  0.42363  0.65335  1.0000
  H   H1989     1.0  0.90207  0.30863  0.56141  1.0000
  C   C1237     1.0  0.85099  0.29051  0.53344  1.0000
  C   C1238     1.0  0.92630  0.13741  0.91947  1.0000
  S   S495      1.0  0.83677  0.19050  0.51931  1.0000
  H   H1990     1.0  0.86906  0.45323  0.63674  1.0000
  C   C1239     1.0  0.84334  0.10908  0.52367  1.0000
  H   H1991     1.0  0.88936  0.38905  0.81483  1.0000
  H   H1992     1.0  0.87928  0.43320  0.81401  1.0000
  H   H1993     1.0  0.86153  0.41498  0.56441  1.0000
  C   C1240     1.0  0.84897  0.09642  0.51720  1.0000
  N   N127      1.0  0.91359  0.33392  0.57889  1.0000
  C   C1241     1.0  0.92697  0.33107  0.59373  1.0000
  H   H1994     1.0  0.75253  0.99855  0.56087  1.0000
  C   C1242     1.0  0.86050  0.18616  0.98338  1.0000
  H   H1995     1.0  0.86858  0.30983  0.50498  1.0000
  C   C1243     1.0  0.86028  0.42693  0.57107  1.0000
  H   H1996     1.0  0.91905  0.14406  0.91016  1.0000
  H   H1997     1.0  0.84360  0.41831  0.62763  1.0000
  H   H1998     1.0  0.84436  0.08504  0.53107  1.0000
  S   S496      1.0  0.79843  0.19435  0.51482  1.0000
  H   H1999     1.0  0.88398  0.42229  0.60265  1.0000
  H   H2000     1.0  0.85783  0.25291  0.98094  1.0000
  C   C1244     1.0  0.83685  0.10728  0.98646  1.0000
  H   H2001     1.0  0.79846  0.02749  0.98648  1.0000
  H   H2002     1.0  0.87301  0.40524  0.97563  1.0000
  C   C1245     1.0  0.88285  0.43448  0.60642  1.0000
  H   H2003     1.0  0.93966  0.17059  0.92728  1.0000
  H   H2004     1.0  0.91706  0.13546  0.98210  1.0000
  C   C1246     1.0  0.86577  0.11915  0.98184  1.0000
  H   H2005     1.0  0.91789  0.15471  0.96605  1.0000
  H   H2006     1.0  0.93332  0.41266  0.99419  1.0000
  S   S497      1.0  0.82330  0.22958  0.99543  1.0000
  C   C1247     1.0  0.85346  0.19778  0.98879  1.0000
  C   C1248     1.0  0.96405  0.42743  0.65798  1.0000
  H   H2007     1.0  0.93834  0.43254  0.97576  1.0000
  C   C1249     1.0  0.86102  0.26305  0.99969  1.0000
  C   C1250     1.0  0.94355  0.42422  0.98688  1.0000
  C   C1251     1.0  0.76377  0.98295  0.64031  1.0000
  H   H2008     1.0  0.89245  0.27028  0.99795  1.0000
  H   H2009     1.0  0.96244  0.45668  0.99377  1.0000
  H   H2010     1.0  0.93229  0.15483  0.99535  1.0000
  H   H2011     1.0  0.71591  0.17121  0.66756  1.0000
  H   H2012     1.0  0.85890  0.17655  0.00104  1.0000
  H   H2013     1.0  0.81214  0.25635  0.50115  1.0000
  S   S498      1.0  0.73721  0.90268  0.11149  1.0000
  H   H2014     1.0  0.89819  0.61486  0.26282  1.0000
  C   C1252     1.0  0.88765  0.60795  0.24761  1.0000
  S   S499      1.0  0.75265  0.95028  0.12174  1.0000
  H   H2015     1.0  0.96544  0.49624  0.37092  1.0000
  C   C1253     1.0  0.75790  0.54760  0.29369  1.0000
  Fe  Fe248     1.0  0.88328  0.72671  0.16946  1.0000
  S   S500      1.0  0.90008  0.71429  0.18055  1.0000
  S   S501      1.0  0.87553  0.73977  0.21104  1.0000
  Fe  Fe249     1.0  0.88474  0.72037  0.09642  1.0000
  S   S502      1.0  0.90218  0.70791  0.10277  1.0000
  S   S503      1.0  0.87729  0.72078  0.04382  1.0000
  Fe  Fe250     1.0  0.88608  0.69483  0.14436  1.0000
  S   S504      1.0  0.87965  0.66701  0.14853  1.0000
  Fe  Fe251     1.0  0.91502  0.72864  0.13816  1.0000
  S   S505      1.0  0.94181  0.73957  0.15040  1.0000
  S   S506      1.0  0.86796  0.70605  0.13625  1.0000
  S   S507      1.0  0.89880  0.74222  0.12885  1.0000
  Fe  Fe252     1.0  0.81001  0.70486  0.35681  1.0000
  S   S508      1.0  0.81367  0.72680  0.39072  1.0000
  S   S509      1.0  0.82320  0.69775  0.31509  1.0000
  Fe  Fe253     1.0  0.77800  0.68395  0.38874  1.0000
  S   S510      1.0  0.77864  0.70436  0.42400  1.0000
  S   S511      1.0  0.76134  0.65687  0.38319  1.0000
  Fe  Fe254     1.0  0.78765  0.72186  0.38149  1.0000
  S   S512      1.0  0.78271  0.74487  0.36648  1.0000
  Fe  Fe255     1.0  0.80435  0.70793  0.43086  1.0000
  H   H2016     1.0  0.72844  0.84879  0.35013  1.0000
  S   S513      1.0  0.78479  0.70093  0.34567  1.0000
  S   S514      1.0  0.80295  0.68663  0.39778  1.0000
  H   H2017     1.0  0.79945  0.76146  0.30161  1.0000
  H   H2018     1.0  0.82965  0.75129  0.25254  1.0000
  C   C1254     1.0  0.81563  0.74183  0.31097  1.0000
  H   H2019     1.0  0.86439  0.49999  0.24504  1.0000
  H   H2020     1.0  0.77978  0.97860  0.14315  1.0000
  H   H2021     1.0  0.79714  0.62242  0.34415  1.0000
  Fe  Fe256     1.0  0.72689  0.57499  0.06911  1.0000
  S   S515      1.0  0.73956  0.58354  0.11736  1.0000
  H   H2022     1.0  0.84339  0.72149  0.45502  1.0000
  H   H2023     1.0  0.80918  0.74387  0.33286  1.0000
  Fe  Fe257     1.0  0.72675  0.89539  0.06172  1.0000
  C   C1255     1.0  0.74600  0.97863  0.10987  1.0000
  H   H2024     1.0  0.88482  0.59435  0.25044  1.0000
  Fe  Fe258     1.0  0.82414  0.56537  0.27446  1.0000
  S   S516      1.0  0.82496  0.58773  0.30433  1.0000
  S   S517      1.0  0.84634  0.55875  0.27361  1.0000
  Fe  Fe259     1.0  0.79397  0.56363  0.24019  1.0000
  S   S518      1.0  0.79293  0.58584  0.26696  1.0000
  S   S519      1.0  0.77468  0.54886  0.20459  1.0000
  Fe  Fe260     1.0  0.81926  0.59761  0.25856  1.0000
  S   S520      1.0  0.82986  0.62577  0.25583  1.0000
  Fe  Fe261     1.0  0.79851  0.57477  0.31142  1.0000
  S   S521      1.0  0.78752  0.58252  0.35579  1.0000
  S   S522      1.0  0.82003  0.57629  0.22755  1.0000
  S   S523      1.0  0.79787  0.55130  0.28539  1.0000
  Fe  Fe262     1.0  0.88482  0.49205  0.32347  1.0000
  S   S524      1.0  0.90354  0.50226  0.28448  1.0000
  S   S525      1.0  0.86263  0.49848  0.32845  1.0000
  Fe  Fe263     1.0  0.92085  0.50089  0.32141  1.0000
  S   S526      1.0  0.94618  0.52018  0.31985  1.0000
  H   H2025     1.0  0.80301  0.69783  0.03753  1.0000
  S   S527      1.0  0.81118  0.70678  0.48366  1.0000
  H   H2026     1.0  0.95117  0.48674  0.33976  1.0000
  H   H2027     1.0  0.82080  0.64847  0.35409  1.0000
  H   H2028     1.0  0.94203  0.51759  0.39036  1.0000
  C   C1256     1.0  0.85040  0.54164  0.28862  1.0000
  C   C1257     1.0  0.86554  0.54116  0.28255  1.0000
  C   C1258     1.0  0.86949  0.52809  0.29436  1.0000
  C   C1259     1.0  0.85834  0.51528  0.31258  1.0000
  C   C1260     1.0  0.84316  0.51565  0.31838  1.0000
  C   C1261     1.0  0.83919  0.52871  0.30650  1.0000
  H   H2029     1.0  0.87434  0.55105  0.26877  1.0000
  H   H2030     1.0  0.88122  0.52804  0.28969  1.0000
  H   H2031     1.0  0.83442  0.50585  0.33247  1.0000
  H   H2032     1.0  0.82752  0.52886  0.31149  1.0000
  C   C1262     1.0  0.74918  0.57353  0.14105  1.0000
  C   C1263     1.0  0.74529  0.55631  0.13911  1.0000
  C   C1264     1.0  0.75328  0.54892  0.15855  1.0000
  C   C1265     1.0  0.76521  0.55866  0.18000  1.0000
  C   C1266     1.0  0.76913  0.57588  0.18182  1.0000
  C   C1267     1.0  0.76104  0.58323  0.16265  1.0000
  H   H2033     1.0  0.73592  0.54866  0.12310  1.0000
  H   H2034     1.0  0.75010  0.53557  0.15719  1.0000
  H   H2035     1.0  0.77835  0.58354  0.19808  1.0000
  H   H2036     1.0  0.76407  0.59655  0.16437  1.0000
  C   C1268     1.0  0.74452  0.55269  0.42058  1.0000
  C   C1269     1.0  0.75157  0.57009  0.42278  1.0000
  C   C1270     1.0  0.76474  0.57896  0.40276  1.0000
  C   C1271     1.0  0.77106  0.57055  0.38050  1.0000
  C   C1272     1.0  0.76411  0.55312  0.37844  1.0000
  C   C1273     1.0  0.75079  0.54424  0.39821  1.0000
  H   H2037     1.0  0.74684  0.57672  0.43987  1.0000
  H   H2038     1.0  0.77007  0.59243  0.40463  1.0000
  H   H2039     1.0  0.76917  0.54646  0.36217  1.0000
  H   H2040     1.0  0.74549  0.53076  0.39669  1.0000
  C   C1274     1.0  0.76552  0.75006  0.36388  1.0000
  C   C1275     1.0  0.76762  0.76652  0.35606  1.0000
  C   C1276     1.0  0.75447  0.77125  0.35317  1.0000
  C   C1277     1.0  0.73892  0.75953  0.35781  1.0000
  C   C1278     1.0  0.73682  0.74304  0.36546  1.0000
  C   C1279     1.0  0.74998  0.73834  0.36859  1.0000
  H   H2041     1.0  0.77954  0.77575  0.35241  1.0000
  H   H2042     1.0  0.75636  0.78397  0.34728  1.0000
  H   H2043     1.0  0.81854  0.72921  0.25233  1.0000
  H   H2044     1.0  0.74809  0.72564  0.37458  1.0000
  C   C1280     1.0  0.75254  0.64552  0.41843  1.0000
  C   C1281     1.0  0.75070  0.65364  0.44703  1.0000
  H   H2045     1.0  0.77822  0.55149  0.01738  1.0000
  C   C1282     1.0  0.73847  0.62687  0.47428  1.0000
  C   C1283     1.0  0.80340  0.65006  0.28265  1.0000
  C   C1284     1.0  0.74726  0.62804  0.41780  1.0000
  H   H2046     1.0  0.75459  0.66709  0.44763  1.0000
  H   H2047     1.0  0.74576  0.86549  0.33554  1.0000
  N   N128      1.0  0.80358  0.64506  0.31678  1.0000
  C   C1285     1.0  0.85866  0.72025  0.03079  1.0000
  C   C1286     1.0  0.85000  0.72790  0.04865  1.0000
  C   C1287     1.0  0.83634  0.72910  0.03524  1.0000
  C   C1288     1.0  0.73412  0.86274  0.22724  1.0000
  H   H2048     1.0  0.74865  0.62169  0.39573  1.0000
  H   H2049     1.0  0.80296  0.67803  0.04912  1.0000
  H   H2050     1.0  0.85417  0.73343  0.07224  1.0000
  H   H2051     1.0  0.82998  0.73546  0.04886  1.0000
  C   C1289     1.0  0.85941  0.72354  0.49461  1.0000
  H   H2052     1.0  0.91764  0.75039  0.18514  1.0000
  C   C1290     1.0  0.86111  0.72799  0.24006  1.0000
  C   C1291     1.0  0.85311  0.71073  0.23651  1.0000
  C   C1292     1.0  0.84159  0.70173  0.25980  1.0000
  C   C1293     1.0  0.83797  0.70984  0.28692  1.0000
  C   C1294     1.0  0.84619  0.72707  0.29083  1.0000
  C   C1295     1.0  0.85761  0.73612  0.26732  1.0000
  H   H2053     1.0  0.85574  0.70431  0.21572  1.0000
  H   H2054     1.0  0.83545  0.68838  0.25668  1.0000
  H   H2055     1.0  0.84404  0.73336  0.31226  1.0000
  H   H2056     1.0  0.86392  0.74944  0.27046  1.0000
  C   C1296     1.0  0.86490  0.65578  0.17709  1.0000
  C   C1297     1.0  0.86052  0.66388  0.20301  1.0000
  C   C1298     1.0  0.84948  0.65451  0.22663  1.0000
  C   C1299     1.0  0.84259  0.63703  0.22419  1.0000
  C   C1300     1.0  0.84653  0.62896  0.19765  1.0000
  C   C1301     1.0  0.85786  0.63832  0.17443  1.0000
  H   H2057     1.0  0.86589  0.67735  0.20518  1.0000
  H   H2058     1.0  0.84642  0.66085  0.24703  1.0000
  H   H2059     1.0  0.84091  0.61555  0.19503  1.0000
  H   H2060     1.0  0.86111  0.63205  0.15417  1.0000
  C   C1302     1.0  0.75866  0.55734  0.06126  1.0000
  H   H2061     1.0  0.92929  0.78415  0.24768  1.0000
  H   H2062     1.0  0.90466  0.75824  0.24996  1.0000
  H   H2063     1.0  0.94982  0.76148  0.09308  1.0000
  C   C1303     1.0  0.73723  0.86557  0.47413  1.0000
  H   H2064     1.0  0.79209  0.71748  0.27952  1.0000
  H   H2065     1.0  0.80826  0.66390  0.28046  1.0000
  C   C1304     1.0  0.73854  0.83549  0.09874  1.0000
  C   C1305     1.0  0.80667  0.75987  0.28041  1.0000
  N   N129      1.0  0.77593  0.56697  0.05706  1.0000
  H   H2066     1.0  0.89118  0.61108  0.22169  1.0000
  S   S528      1.0  0.73091  0.81648  0.35484  1.0000
  C   C1306     1.0  0.82014  0.65200  0.32846  1.0000
  H   H2067     1.0  0.78152  0.54508  0.05698  1.0000
  H   H2068     1.0  0.72490  0.73383  0.36916  1.0000
  H   H2069     1.0  0.73478  0.88045  0.19027  1.0000
  H   H2070     1.0  0.74683  0.86819  0.23108  1.0000
  C   C1307     1.0  0.75673  0.97215  0.12166  1.0000
  H   H2071     1.0  0.78150  0.65183  0.02932  1.0000
  H   H2072     1.0  0.80449  0.62132  0.30374  1.0000
  C   C1308     1.0  0.72938  0.85276  0.45141  1.0000
  H   H2073     1.0  0.76733  0.68661  0.02723  1.0000
  H   H2074     1.0  0.76705  0.65287  0.00147  1.0000
  H   H2075     1.0  0.73467  0.97020  0.10056  1.0000
  N   N130      1.0  0.87387  0.61215  0.25717  1.0000
  C   C1309     1.0  0.86949  0.60765  0.29157  1.0000
  C   C1310     1.0  0.87796  0.63022  0.25310  1.0000
  C   C1311     1.0  0.86026  0.60266  0.23635  1.0000
  H   H2076     1.0  0.85932  0.61098  0.29971  1.0000
  H   H2077     1.0  0.87959  0.61422  0.30805  1.0000
  H   H2078     1.0  0.86580  0.59397  0.29522  1.0000
  H   H2079     1.0  0.86779  0.63375  0.26049  1.0000
  H   H2080     1.0  0.88091  0.63399  0.22722  1.0000
  H   H2081     1.0  0.84958  0.60526  0.24353  1.0000
  H   H2082     1.0  0.85699  0.58897  0.23829  1.0000
  H   H2083     1.0  0.74171  0.89243  0.38065  1.0000
  H   H2084     1.0  0.79611  0.58016  0.08718  1.0000
  C   C1312     1.0  0.72268  0.84865  0.07385  1.0000
  H   H2085     1.0  0.74813  0.83682  0.11625  1.0000
  H   H2086     1.0  0.75257  0.56528  0.07164  1.0000
  C   C1313     1.0  0.95976  0.52485  0.35203  1.0000
  H   H2087     1.0  0.90550  0.73869  0.23823  1.0000
  H   H2088     1.0  0.75811  0.57838  0.28554  1.0000
  C   C1314     1.0  0.72456  0.84884  0.24557  1.0000
  H   H2089     1.0  0.75297  0.55219  0.03765  1.0000
  H   H2090     1.0  0.88833  0.63785  0.26808  1.0000
  Fe  Fe264     1.0  0.71902  0.81976  0.30901  1.0000
  C   C1315     1.0  0.73607  0.55329  0.31777  1.0000
  H   H2091     1.0  0.96187  0.52464  0.43468  1.0000
  H   H2092     1.0  0.94779  0.78306  0.23414  1.0000
  H   H2093     1.0  0.81181  0.74250  0.22904  1.0000
  N   N131      1.0  0.78505  0.67666  0.01456  1.0000
  C   C1316     1.0  0.96007  0.75407  0.13355  1.0000
  H   H2094     1.0  0.78300  0.67047  0.47658  1.0000
  H   H2095     1.0  0.87511  0.49092  0.21845  1.0000
  N   N132      1.0  0.73549  0.85099  0.09722  1.0000
  H   H2096     1.0  0.73973  0.57181  0.26374  1.0000
  C   C1317     1.0  0.73057  0.85497  0.12978  1.0000
  H   H2097     1.0  0.73887  0.53783  0.24202  1.0000
  C   C1318     1.0  0.73586  0.86222  0.35389  1.0000
  C   C1319     1.0  0.77525  0.68621  0.00649  1.0000
  S   S529      1.0  0.74168  0.58857  0.02637  1.0000
  C   C1320     1.0  0.73300  0.53899  0.26559  1.0000
  H   H2098     1.0  0.79800  0.66545  0.33588  1.0000
  H   H2099     1.0  0.77334  0.58999  0.04715  1.0000
  H   H2100     1.0  0.87005  0.72917  0.47973  1.0000
  C   C1321     1.0  0.72733  0.86969  0.20406  1.0000
  H   H2101     1.0  0.76392  0.54592  0.27083  1.0000
  H   H2102     1.0  0.75619  0.54664  0.07786  1.0000
  H   H2103     1.0  0.93097  0.73720  0.21961  1.0000
  H   H2104     1.0  0.71768  0.86903  0.39999  1.0000
  C   C1322     1.0  0.74036  0.61872  0.44574  1.0000
  H   H2105     1.0  0.76692  0.55753  0.30840  1.0000
  H   H2106     1.0  0.81080  0.64537  0.26649  1.0000
  H   H2107     1.0  0.76626  0.65892  0.04322  1.0000
  N   N133      1.0  0.72633  0.87254  0.35038  1.0000
  H   H2108     1.0  0.72601  0.84578  0.04887  1.0000
  Fe  Fe265     1.0  0.72074  0.55454  0.48688  1.0000
  S   S530      1.0  0.72776  0.54122  0.44501  1.0000
  H   H2109     1.0  0.73191  0.54138  0.33141  1.0000
  H   H2110     1.0  0.75424  0.53577  0.30743  1.0000
  C   C1323     1.0  0.86672  0.48850  0.23969  1.0000
  C   C1324     1.0  0.79511  0.68465  0.04276  1.0000
  C   C1325     1.0  0.83119  0.72261  0.00402  1.0000
  S   S531      1.0  0.90259  0.49270  0.36220  1.0000
  C   C1326     1.0  0.73660  0.89028  0.35579  1.0000
  S   S532      1.0  0.71826  0.55011  0.04344  1.0000
  H   H2111     1.0  0.72246  0.54188  0.25975  1.0000
  H   H2112     1.0  0.91465  0.74878  0.27533  1.0000
  C   C1327     1.0  0.95843  0.48414  0.35878  1.0000
  H   H2113     1.0  0.94178  0.48963  0.40984  1.0000
  H   H2114     1.0  0.74670  0.89452  0.33791  1.0000
  H   H2115     1.0  0.87297  0.48649  0.26101  1.0000
  H   H2116     1.0  0.72768  0.82479  0.10677  1.0000
  H   H2117     1.0  0.73618  0.84848  0.43419  1.0000
  H   H2118     1.0  0.78098  0.56246  0.10613  1.0000
  H   H2119     1.0  0.74104  0.86363  0.37859  1.0000
  C   C1328     1.0  0.95464  0.52235  0.38453  1.0000
  H   H2120     1.0  0.84012  0.48832  0.21246  1.0000
  C   C1329     1.0  0.84432  0.71925  0.48055  1.0000
  C   C1330     1.0  0.79166  0.73012  0.27959  1.0000
  H   H2121     1.0  0.80088  0.76153  0.25793  1.0000
  H   H2122     1.0  0.78528  0.73106  0.25742  1.0000
  H   H2123     1.0  0.78429  0.73096  0.30111  1.0000
  S   S533      1.0  0.73852  0.88461  0.02319  1.0000
  H   H2124     1.0  0.86296  0.60593  0.21025  1.0000
  H   H2125     1.0  0.76022  0.86684  0.10315  1.0000
  C   C1331     1.0  0.78338  0.55616  0.04175  1.0000
  N   N134      1.0  0.92755  0.75983  0.23156  1.0000
  C   C1332     1.0  0.92395  0.76248  0.19775  1.0000
  C   C1333     1.0  0.93637  0.77615  0.24733  1.0000
  C   C1334     1.0  0.93735  0.74964  0.23130  1.0000
  C   C1335     1.0  0.91249  0.75103  0.24968  1.0000
  C   C1336     1.0  0.74980  0.56822  0.27004  1.0000
  H   H2126     1.0  0.93500  0.76913  0.18320  1.0000
  H   H2127     1.0  0.78476  0.62094  0.30988  1.0000
  C   C1337     1.0  0.79720  0.62665  0.31871  1.0000
  C   C1338     1.0  0.96071  0.76320  0.10551  1.0000
  C   C1339     1.0  0.75018  0.86486  0.08647  1.0000
  H   H2128     1.0  0.73656  0.60528  0.44520  1.0000
  H   H2129     1.0  0.77284  0.57730  0.01177  1.0000
  H   H2130     1.0  0.94864  0.75571  0.21707  1.0000
  C   C1340     1.0  0.77853  0.58139  0.03592  1.0000
  H   H2131     1.0  0.82807  0.75120  0.31221  1.0000
  H   H2132     1.0  0.79364  0.64835  0.36325  1.0000
  H   H2133     1.0  0.82532  0.66588  0.32738  1.0000
  H   H2134     1.0  0.81863  0.77017  0.28177  1.0000
  H   H2135     1.0  0.94048  0.74749  0.25633  1.0000
  C   C1341     1.0  0.83050  0.71227  0.49970  1.0000
  C   C1342     1.0  0.79364  0.65161  0.33720  1.0000
  H   H2136     1.0  0.78102  0.64653  0.32933  1.0000
  H   H2137     1.0  0.72019  0.86017  0.07213  1.0000
  H   H2138     1.0  0.81597  0.72921  0.31292  1.0000
  N   N135      1.0  0.80783  0.74335  0.28077  1.0000
  Fe  Fe266     1.0  0.73201  0.92605  0.10618  1.0000
  S   S534      1.0  0.73352  0.84061  0.27475  1.0000
  C   C1343     1.0  0.78949  0.66210  0.47130  1.0000
  H   H2139     1.0  0.82795  0.64739  0.31328  1.0000
  H   H2140     1.0  0.79111  0.64511  0.27294  1.0000
  H   H2141     1.0  0.72979  0.89844  0.35324  1.0000
  C   C1344     1.0  0.81735  0.74153  0.25238  1.0000
  H   H2142     1.0  0.75394  0.86258  0.06144  1.0000
  H   H2143     1.0  0.80109  0.66997  0.45985  1.0000
  H   H2144     1.0  0.74837  0.87681  0.08565  1.0000
  C   C1345     1.0  0.78303  0.57299  0.08923  1.0000
  H   H2145     1.0  0.79143  0.58874  0.03148  1.0000
  H   H2146     1.0  0.77772  0.58132  0.10114  1.0000
  H   H2147     1.0  0.91616  0.76969  0.19678  1.0000
  H   H2148     1.0  0.72861  0.52656  0.27735  1.0000
  N   N136      1.0  0.74416  0.55202  0.28680  1.0000
  H   H2149     1.0  0.93926  0.77465  0.27295  1.0000
  H   H2150     1.0  0.78777  0.68482  0.06467  1.0000
  H   H2151     1.0  0.73992  0.85684  0.14817  1.0000
  C   C1346     1.0  0.74355  0.64432  0.47474  1.0000
  S   S535      1.0  0.72337  0.91941  0.05479  1.0000
  S   S536      1.0  0.72170  0.76455  0.35371  1.0000
  H   H2152     1.0  0.75628  0.56774  0.24695  1.0000
  H   H2153     1.0  0.74229  0.83217  0.07450  1.0000
  H   H2154     1.0  0.72554  0.55649  0.31359  1.0000
  H   H2155     1.0  0.74424  0.56312  0.33415  1.0000
  H   H2156     1.0  0.74205  0.65069  0.49671  1.0000
  H   H2157     1.0  0.79644  0.56299  0.03821  1.0000
  C   C1347     1.0  0.77453  0.65933  0.02256  1.0000
  H   H2158     1.0  0.78253  0.65263  0.45298  1.0000
  H   H2159     1.0  0.75010  0.87116  0.47415  1.0000
  Fe  Fe267     1.0  0.71741  0.78876  0.34582  1.0000
  H   H2160     1.0  0.72944  0.87390  0.29827  1.0000
  H   H2161     1.0  0.72815  0.86660  0.12946  1.0000
  C   C1348     1.0  0.80051  0.64331  0.49293  1.0000
  H   H2162     1.0  0.71942  0.84491  0.13870  1.0000
  H   H2163     1.0  0.81236  0.65049  0.48157  1.0000
  Fe  Fe268     1.0  0.71975  0.59219  0.01144  1.0000
  H   H2164     1.0  0.79370  0.63324  0.47543  1.0000
  C   C1349     1.0  0.72850  0.87096  0.49721  1.0000
  C   C1350     1.0  0.71978  0.87023  0.31719  1.0000
  H   H2165     1.0  0.76893  0.63402  0.49939  1.0000
  S   S537      1.0  0.73412  0.90233  0.61494  1.0000
  H   H2166     1.0  0.78818  0.67099  0.96432  1.0000
  H   H2167     1.0  0.83654  0.54999  0.71580  1.0000
  S   S538      1.0  0.74467  0.94971  0.63021  1.0000
  Fe  Fe269     1.0  0.72748  0.92467  0.60849  1.0000
  H   H2168     1.0  0.86682  0.75033  0.63368  1.0000
  Fe  Fe270     1.0  0.87925  0.72698  0.66879  1.0000
  S   S539      1.0  0.89413  0.71317  0.68523  1.0000
  S   S540      1.0  0.86377  0.73773  0.69774  1.0000
  Fe  Fe271     1.0  0.88493  0.72174  0.59660  1.0000
  S   S541      1.0  0.90038  0.70753  0.60723  1.0000
  S   S542      1.0  0.88007  0.72749  0.54491  1.0000
  Fe  Fe272     1.0  0.88191  0.69467  0.64572  1.0000
  S   S543      1.0  0.87023  0.66641  0.64747  1.0000
  Fe  Fe273     1.0  0.91178  0.72729  0.64558  1.0000
  S   S544      1.0  0.93855  0.73717  0.65723  1.0000
  S   S545      1.0  0.86577  0.70749  0.63204  1.0000
  S   S546      1.0  0.89759  0.74248  0.63230  1.0000
  Fe  Fe274     1.0  0.81699  0.71313  0.86596  1.0000
  S   S547      1.0  0.81217  0.73387  0.89196  1.0000
  S   S548      1.0  0.83989  0.71378  0.84153  1.0000
  Fe  Fe275     1.0  0.78715  0.68595  0.89590  1.0000
  S   S549      1.0  0.77993  0.70451  0.92391  1.0000
  S   S550      1.0  0.77795  0.65774  0.89852  1.0000
  Fe  Fe276     1.0  0.78645  0.71982  0.87797  1.0000
  S   S551      1.0  0.77142  0.73129  0.85055  1.0000
  Fe  Fe277     1.0  0.80607  0.71709  0.93560  1.0000
  H   H2169     1.0  0.82134  0.70425  0.54797  1.0000
  S   S552      1.0  0.79192  0.70000  0.84902  1.0000
  S   S553      1.0  0.81259  0.69758  0.91070  1.0000
  H   H2170     1.0  0.86418  0.77312  0.54398  1.0000
  S   S554      1.0  0.73569  0.78063  0.88560  1.0000
  S   S555      1.0  0.73868  0.57402  0.51849  1.0000
  H   H2171     1.0  0.75665  0.91736  0.55963  1.0000
  H   H2172     1.0  0.80274  0.66922  0.99124  1.0000
  H   H2173     1.0  0.83232  0.52817  0.71686  1.0000
  H   H2174     1.0  0.84481  0.54068  0.68485  1.0000
  H   H2175     1.0  0.74499  0.60843  0.96030  1.0000
  H   H2176     1.0  0.86912  0.76844  0.89369  1.0000
  C   C1351     1.0  0.82249  0.54964  0.65850  1.0000
  C   C1352     1.0  0.83194  0.70951  0.53288  1.0000
  C   C1353     1.0  0.76876  0.92440  0.54934  1.0000
  H   H2177     1.0  0.86442  0.75262  0.54333  1.0000
  Fe  Fe278     1.0  0.81709  0.56042  0.77951  1.0000
  S   S556      1.0  0.81822  0.58127  0.81474  1.0000
  S   S557      1.0  0.82313  0.53705  0.78222  1.0000
  Fe  Fe279     1.0  0.80058  0.57246  0.72722  1.0000
  S   S558      1.0  0.80050  0.59413  0.75754  1.0000
  S   S559      1.0  0.79401  0.56714  0.67384  1.0000
  Fe  Fe280     1.0  0.82536  0.59801  0.77095  1.0000
  S   S560      1.0  0.84295  0.62480  0.77601  1.0000
  Fe  Fe281     1.0  0.79318  0.57641  0.79972  1.0000
  S   S561      1.0  0.77467  0.58153  0.83151  1.0000
  S   S562      1.0  0.82636  0.57779  0.73722  1.0000
  S   S563      1.0  0.79116  0.55425  0.76795  1.0000
  Fe  Fe282     1.0  0.88843  0.49720  0.82858  1.0000
  S   S564      1.0  0.91280  0.50144  0.80729  1.0000
  S   S565      1.0  0.88208  0.52046  0.83067  1.0000
  Fe  Fe283     1.0  0.91756  0.49133  0.85392  1.0000
  S   S566      1.0  0.93832  0.49997  0.88866  1.0000
  H   H2178     1.0  0.76757  0.92389  0.52239  1.0000
  C   C1354     1.0  0.83400  0.53867  0.70011  1.0000
  C   C1355     1.0  0.71615  0.83916  0.73718  1.0000
  H   H2179     1.0  0.89091  0.77300  0.61167  1.0000
  H   H2180     1.0  0.89001  0.78241  0.57356  1.0000
  C   C1356     1.0  0.83982  0.53289  0.79548  1.0000
  C   C1357     1.0  0.85325  0.54518  0.80933  1.0000
  C   C1358     1.0  0.86602  0.54114  0.81976  1.0000
  C   C1359     1.0  0.86566  0.52480  0.81634  1.0000
  C   C1360     1.0  0.85230  0.51255  0.80214  1.0000
  C   C1361     1.0  0.83949  0.51658  0.79188  1.0000
  H   H2181     1.0  0.85374  0.55778  0.81231  1.0000
  H   H2182     1.0  0.87625  0.55075  0.83066  1.0000
  H   H2183     1.0  0.85175  0.49992  0.79943  1.0000
  H   H2184     1.0  0.82916  0.50691  0.78137  1.0000
  C   C1362     1.0  0.74582  0.56016  0.62915  1.0000
  C   C1363     1.0  0.75926  0.56285  0.60933  1.0000
  C   C1364     1.0  0.77395  0.56512  0.62343  1.0000
  C   C1365     1.0  0.77544  0.56501  0.65742  1.0000
  C   C1366     1.0  0.76206  0.56262  0.67727  1.0000
  C   C1367     1.0  0.74731  0.56006  0.66315  1.0000
  H   H2185     1.0  0.75828  0.56288  0.58315  1.0000
  H   H2186     1.0  0.78422  0.56694  0.60788  1.0000
  H   H2187     1.0  0.76302  0.56245  0.70344  1.0000
  H   H2188     1.0  0.73699  0.55798  0.67869  1.0000
  C   C1368     1.0  0.75483  0.56144  0.93263  1.0000
  C   C1369     1.0  0.76493  0.55508  0.91573  1.0000
  C   C1370     1.0  0.77133  0.56125  0.88489  1.0000
  C   C1371     1.0  0.76752  0.57370  0.87065  1.0000
  C   C1372     1.0  0.75751  0.58011  0.88770  1.0000
  C   C1373     1.0  0.75123  0.57406  0.91861  1.0000
  H   H2189     1.0  0.76776  0.54529  0.92639  1.0000
  H   H2190     1.0  0.77901  0.55622  0.87195  1.0000
  H   H2191     1.0  0.75450  0.58975  0.87686  1.0000
  H   H2192     1.0  0.74349  0.57908  0.93138  1.0000
  C   C1374     1.0  0.76207  0.74549  0.86089  1.0000
  C   C1375     1.0  0.75533  0.75145  0.83594  1.0000
  C   C1376     1.0  0.74755  0.76247  0.84281  1.0000
  C   C1377     1.0  0.74616  0.76751  0.87492  1.0000
  C   C1378     1.0  0.75287  0.76154  0.89987  1.0000
  C   C1379     1.0  0.76081  0.75067  0.89295  1.0000
  H   H2193     1.0  0.75628  0.74761  0.81102  1.0000
  H   H2194     1.0  0.74264  0.76705  0.82325  1.0000
  H   H2195     1.0  0.75196  0.76539  0.92479  1.0000
  H   H2196     1.0  0.76591  0.74625  0.91244  1.0000
  C   C1380     1.0  0.76212  0.64677  0.92531  1.0000
  C   C1381     1.0  0.75231  0.65426  0.93921  1.0000
  C   C1382     1.0  0.73983  0.64520  0.96065  1.0000
  C   C1383     1.0  0.73718  0.62866  0.96848  1.0000
  C   C1384     1.0  0.74703  0.62121  0.95464  1.0000
  C   C1385     1.0  0.75938  0.63020  0.93295  1.0000
  H   H2197     1.0  0.75412  0.66690  0.93293  1.0000
  H   H2198     1.0  0.80361  0.68939  0.98009  1.0000
  H   H2199     1.0  0.76676  0.62421  0.92205  1.0000
  C   C1386     1.0  0.86084  0.72066  0.52773  1.0000
  H   H2200     1.0  0.86800  0.77902  0.63360  1.0000
  H   H2201     1.0  0.77630  0.91745  0.55570  1.0000
  S   S567      1.0  0.72826  0.82059  0.85220  1.0000
  S   S568      1.0  0.72174  0.82423  0.75683  1.0000
  C   C1387     1.0  0.84700  0.71352  0.54677  1.0000
  S   S569      1.0  0.72159  0.61768  0.99572  1.0000
  H   H2202     1.0  0.93823  0.55133  0.93577  1.0000
  H   H2203     1.0  0.83546  0.70891  0.96319  1.0000
  H   H2204     1.0  0.84788  0.71124  0.57226  1.0000
  C   C1388     1.0  0.85741  0.73126  0.73793  1.0000
  C   C1389     1.0  0.86472  0.72284  0.75608  1.0000
  C   C1390     1.0  0.85927  0.71771  0.78790  1.0000
  C   C1391     1.0  0.84624  0.72057  0.80153  1.0000
  C   C1392     1.0  0.83880  0.72883  0.78329  1.0000
  C   C1393     1.0  0.84450  0.73433  0.75172  1.0000
  H   H2205     1.0  0.87473  0.72051  0.74579  1.0000
  H   H2206     1.0  0.86515  0.71140  0.80193  1.0000
  H   H2207     1.0  0.82880  0.73119  0.79363  1.0000
  H   H2208     1.0  0.83880  0.74087  0.73784  1.0000
  C   C1394     1.0  0.86349  0.65495  0.68361  1.0000
  C   C1395     1.0  0.86771  0.66232  0.71441  1.0000
  C   C1396     1.0  0.86156  0.65288  0.74260  1.0000
  C   C1397     1.0  0.85098  0.63611  0.74020  1.0000
  C   C1398     1.0  0.84673  0.62879  0.70941  1.0000
  C   C1399     1.0  0.85307  0.63814  0.68126  1.0000
  H   H2209     1.0  0.87584  0.67523  0.71647  1.0000
  H   H2210     1.0  0.86501  0.65858  0.76636  1.0000
  H   H2211     1.0  0.83860  0.61589  0.70725  1.0000
  H   H2212     1.0  0.84974  0.63236  0.65752  1.0000
  H   H2213     1.0  0.79533  0.67619  0.53033  1.0000
  C   C1400     1.0  0.77656  0.94159  0.59782  1.0000
  S   S570      1.0  0.81443  0.72513  0.98732  1.0000
  H   H2214     1.0  0.94472  0.75924  0.60049  1.0000
  C   C1401     1.0  0.80583  0.53291  0.70153  1.0000
  C   C1402     1.0  0.81670  0.52010  0.66011  1.0000
  C   C1403     1.0  0.95617  0.75254  0.63986  1.0000
  H   H2215     1.0  0.80255  0.63719  0.51497  1.0000
  H   H2216     1.0  0.95340  0.52365  0.83629  1.0000
  C   C1404     1.0  0.79126  0.95080  0.54748  1.0000
  H   H2217     1.0  0.86735  0.78889  0.59591  1.0000
  H   H2218     1.0  0.76313  0.95030  0.52664  1.0000
  H   H2219     1.0  0.82478  0.56135  0.67278  1.0000
  H   H2220     1.0  0.81188  0.54767  0.64340  1.0000
  C   C1405     1.0  0.86053  0.76135  0.55793  1.0000
  H   H2221     1.0  0.82699  0.52148  0.64360  1.0000
  C   C1406     1.0  0.95593  0.76150  0.61209  1.0000
  C   C1407     1.0  0.75262  0.97132  0.61959  1.0000
  S   S571      1.0  0.89399  0.48852  0.87646  1.0000
  H   H2222     1.0  0.76926  0.65199  0.52215  1.0000
  H   H2223     1.0  0.80320  0.66206  0.54750  1.0000
  H   H2224     1.0  0.79961  0.94468  0.55323  1.0000
  N   N137      1.0  0.86760  0.76430  0.59067  1.0000
  H   H2225     1.0  0.73996  0.96847  0.57482  1.0000
  H   H2226     1.0  0.80349  0.52237  0.71853  1.0000
  H   H2227     1.0  0.76926  0.96337  0.56239  1.0000
  H   H2228     1.0  0.84735  0.72373  0.91248  1.0000
  H   H2229     1.0  0.78021  0.95437  0.60863  1.0000
  S   S572      1.0  0.72682  0.55611  0.61258  1.0000
  S   S573      1.0  0.74658  0.55302  0.97079  1.0000
  N   N138      1.0  0.81977  0.53534  0.68006  1.0000
  H   H2230     1.0  0.88888  0.74592  0.94093  1.0000
  H   H2231     1.0  0.73192  0.85115  0.92261  1.0000
  H   H2232     1.0  0.88716  0.77037  0.91362  1.0000
  H   H2233     1.0  0.84857  0.74323  0.61154  1.0000
  C   C1408     1.0  0.80130  0.66741  0.52436  1.0000
  H   H2234     1.0  0.81456  0.50909  0.67575  1.0000
  H   H2235     1.0  0.72292  0.53097  0.91963  1.0000
  H   H2236     1.0  0.91503  0.53255  0.84571  1.0000
  H   H2237     1.0  0.75256  0.94388  0.56449  1.0000
  H   H2238     1.0  0.88902  0.76138  0.57430  1.0000
  C   C1409     1.0  0.73485  0.86539  0.96762  1.0000
  H   H2239     1.0  0.74759  0.87180  0.96428  1.0000
  H   H2240     1.0  0.79652  0.96390  0.55686  1.0000
  H   H2241     1.0  0.80602  0.51726  0.64476  1.0000
  H   H2242     1.0  0.85967  0.70709  0.98637  1.0000
  H   H2243     1.0  0.84981  0.77237  0.61129  1.0000
  C   C1410     1.0  0.86299  0.77672  0.60862  1.0000
  H   H2244     1.0  0.80778  0.54416  0.71684  1.0000
  N   N139      1.0  0.86905  0.74557  0.91281  1.0000
  C   C1411     1.0  0.87564  0.74003  0.94076  1.0000
  C   C1412     1.0  0.87396  0.76388  0.91442  1.0000
  C   C1413     1.0  0.85149  0.73756  0.91396  1.0000
  C   C1414     1.0  0.87501  0.74077  0.88203  1.0000
  H   H2245     1.0  0.87120  0.74324  0.96441  1.0000
  H   H2246     1.0  0.87223  0.72626  0.94014  1.0000
  C   C1415     1.0  0.83946  0.71433  0.98683  1.0000
  H   H2247     1.0  0.78526  0.93623  0.60524  1.0000
  H   H2248     1.0  0.86955  0.76786  0.93733  1.0000
  S   S574      1.0  0.73864  0.88691  0.52576  1.0000
  C   C1416     1.0  0.76463  0.95019  0.55341  1.0000
  H   H2249     1.0  0.84620  0.74143  0.89304  1.0000
  H   H2250     1.0  0.84643  0.74082  0.93680  1.0000
  H   H2251     1.0  0.87012  0.74463  0.86042  1.0000
  H   H2252     1.0  0.87131  0.72697  0.87990  1.0000
  H   H2253     1.0  0.88823  0.74653  0.88014  1.0000
  N   N140      1.0  0.82949  0.67823  0.71402  1.0000
  C   C1417     1.0  0.83111  0.69489  0.70298  1.0000
  C   C1418     1.0  0.81292  0.66877  0.72500  1.0000
  C   C1419     1.0  0.84039  0.68011  0.74131  1.0000
  C   C1420     1.0  0.83361  0.66916  0.68680  1.0000
  H   H2254     1.0  0.84354  0.70234  0.69474  1.0000
  H   H2255     1.0  0.82812  0.70213  0.72289  1.0000
  H   H2256     1.0  0.82319  0.69403  0.68220  1.0000
  H   H2257     1.0  0.80437  0.66717  0.70503  1.0000
  H   H2258     1.0  0.81134  0.65608  0.73328  1.0000
  H   H2259     1.0  0.80949  0.67528  0.74565  1.0000
  H   H2260     1.0  0.83946  0.66778  0.75035  1.0000
  H   H2261     1.0  0.83773  0.68706  0.76220  1.0000
  H   H2262     1.0  0.85304  0.68710  0.73379  1.0000
  H   H2263     1.0  0.84602  0.67606  0.67784  1.0000
  H   H2264     1.0  0.82564  0.66741  0.66573  1.0000
  H   H2265     1.0  0.83274  0.65658  0.69431  1.0000
  N   N141      1.0  0.80205  0.63201  0.84647  1.0000
  C   C1421     1.0  0.81192  0.65005  0.84912  1.0000
  C   C1422     1.0  0.79855  0.62475  0.87933  1.0000
  C   C1423     1.0  0.81078  0.62363  0.82710  1.0000
  C   C1424     1.0  0.78692  0.62955  0.83038  1.0000
  H   H2266     1.0  0.81486  0.65588  0.82473  1.0000
  H   H2267     1.0  0.82335  0.65234  0.86144  1.0000
  H   H2268     1.0  0.80563  0.65679  0.86339  1.0000
  H   H2269     1.0  0.79226  0.63105  0.89475  1.0000
  H   H2270     1.0  0.79078  0.61121  0.87814  1.0000
  H   H2271     1.0  0.80964  0.62596  0.89195  1.0000
  H   H2272     1.0  0.81324  0.62838  0.80180  1.0000
  H   H2273     1.0  0.80388  0.60994  0.82543  1.0000
  H   H2274     1.0  0.77999  0.63562  0.84455  1.0000
  H   H2275     1.0  0.77921  0.61605  0.82801  1.0000
  H   H2276     1.0  0.78903  0.63482  0.80549  1.0000
  N   N142      1.0  0.92409  0.54186  0.89310  1.0000
  C   C1425     1.0  0.91942  0.55632  0.89071  1.0000
  C   C1426     1.0  0.92611  0.53593  0.86002  1.0000
  C   C1427     1.0  0.91151  0.52833  0.91082  1.0000
  C   C1428     1.0  0.93926  0.54675  0.91068  1.0000
  H   H2277     1.0  0.91775  0.56115  0.91521  1.0000
  H   H2278     1.0  0.90796  0.55282  0.87753  1.0000
  H   H2279     1.0  0.92857  0.56671  0.87718  1.0000
  H   H2280     1.0  0.92900  0.52464  0.86097  1.0000
  C   C1429     1.0  0.74859  0.97713  0.59096  1.0000
  H   H2281     1.0  0.86523  0.73893  0.59629  1.0000
  H   H2282     1.0  0.90936  0.53243  0.93565  1.0000
  H   H2283     1.0  0.91486  0.51736  0.91368  1.0000
  H   H2284     1.0  0.90000  0.52397  0.89765  1.0000
  H   H2285     1.0  0.84728  0.75576  0.55928  1.0000
  C   C1430     1.0  0.86177  0.74851  0.60882  1.0000
  Fe  Fe284     1.0  0.72245  0.56081  0.56003  1.0000
  H   H2286     1.0  0.94912  0.55675  0.89776  1.0000
  S   S575      1.0  0.71922  0.91765  0.55694  1.0000
  H   H2287     1.0  0.94294  0.53596  0.91289  1.0000
  Fe  Fe285     1.0  0.72240  0.58773  0.51249  1.0000
  H   H2288     1.0  0.79487  0.53059  0.68735  1.0000
  N   N143      1.0  0.77531  0.94174  0.56201  1.0000
  H   H2289     1.0  0.76492  0.93392  0.60938  1.0000
  H   H2290     1.0  0.82246  0.62552  0.83800  1.0000
  H   H2291     1.0  0.93587  0.54556  0.84618  1.0000
  H   H2292     1.0  0.83288  0.55188  0.64183  1.0000
  C   C1431     1.0  0.88515  0.77059  0.58743  1.0000
  H   H2293     1.0  0.73333  0.84270  0.69814  1.0000
  C   C1432     1.0  0.72602  0.85365  0.94403  1.0000
  C   C1433     1.0  0.96203  0.52513  0.85499  1.0000
  Fe  Fe286     1.0  0.72435  0.89457  0.56443  1.0000
  C   C1434     1.0  0.77625  0.64421  0.51612  1.0000
  C   C1435     1.0  0.72362  0.84586  0.70744  1.0000
  H   H2294     1.0  0.76699  0.97868  0.66258  1.0000
  C   C1436     1.0  0.95783  0.51479  0.88216  1.0000
  N   N144      1.0  0.79187  0.65424  0.50120  1.0000
  C   C1437     1.0  0.79534  0.67653  0.98632  1.0000
  H   H2295     1.0  0.71714  0.91240  0.94339  1.0000
  S   S576      1.0  0.73033  0.61585  0.51022  1.0000
  C   C1438     1.0  0.71849  0.85645  0.68934  1.0000
  H   H2296     1.0  0.73214  0.65096  0.97108  1.0000
  H   H2297     1.0  0.77756  0.63824  0.53898  1.0000
  C   C1439     1.0  0.72723  0.86918  0.99494  1.0000
  H   H2298     1.0  0.72429  0.86141  0.66642  1.0000
  Fe  Fe287     1.0  0.72078  0.79280  0.85959  1.0000
  H   H2299     1.0  0.79071  0.95128  0.52050  1.0000
  H   H2300     1.0  0.81324  0.67506  0.51387  1.0000
  H   H2301     1.0  0.71693  0.73856  0.85532  1.0000
  H   H2302     1.0  0.71563  0.54682  0.93001  1.0000
  C   C1440     1.0  0.85316  0.71325  0.00009  1.0000
  H   H2303     1.0  0.76755  0.68059  0.98524  1.0000
  Fe  Fe288     1.0  0.73143  0.56419  0.99949  1.0000
  H   H2304     1.0  0.78283  0.69935  0.00022  1.0000
