data_image0
_chemical_formula_structural       FeS2FeSNHCSHFeH7FeNFeS3FeSHFeSFe2SFeS3FeS2FeSHFeSFeS3C2H2C2HSCH4CHSHCH3C6H4CHCHC2HCHC2H2C6H6CHS2CSH2C3SHCH2C2H4C2NH4SHNC5SHCH5CH2CH3SC2HCHC2FeHC4H2SHC2NH5CHC2NC4H12NC4H2CH9CHCH3CHCSH3SHC5SHCH2CFeH3CFeCH2CSFeS2FeSHCH2SCH3C2H2FeHFeS3FeSH2SCFeSFeSCSFeS2FeSHFeSFeS3C2H4CHCH2C3H3CH3C6H4C4H4C3H2C6H8NSHSCH5CHC5NC2HSHCH2C2SCH2CH4FeH4CHC2NC4H13CHCFeH4CH2SHSH2CHSCH2SHNH4NC4H2CHC2HNCHSCHNCHSCH5CSCH4CH2CSHCHCH4C2H4C2HFeHSH2FeS2CFeS2FeS2FeSFeHS2FeS2FeSHFeSFeS2HFeHSH2CFeSFeC2SFeHSCH2FeHFeS2HC2HSCH3C5HSHCHSHC2H8CHC3H3C2HC6H8C3H2NCHC2H2C6H4CHSHCHCH7S2CNSNC4H12C4H2CSHCH2CHCS2NC4H14CH5CH4SH3N2CHCH6CHCHCHCH2CNFeHC3FeNCHCHNHCH3CSH5CSCSHCH3C3H2C2HFeS2FeS2FeSFeCS2FeS2HSHFeSFeS2HFeCSFeCHFeSFeH2SFeS2FeH2FeC2HSHCH2C2H2C2HSHFeH3NH2CH5SH3CHNSHCNHFeH2C7H6CH5CSC3HCHC6H4C2H2SH2CH7CNCSH5CH2C2HNHSHNC4HCH2SCH2SH3C2H5NC2HCHCHCH2CH2CH2CH4SH6CHCNC2H3C2H2SCHNH2C3HCHSH3SHCH6CHCH2CH2CH2C4NCH2SHCH3SHC4HCH3C2H5CH3CHC4FeSHFeS2FeSFeS3FeS2FeSHFeSFeS3FeS2FeSHFeSFeS3FeS2FeS2FeSFeHS2CHCHC2HC5H4CSHNH5C2HCH2C6H4C6H4C6H4NCHC2H4CHCH10CNH5C2NC4H12NC2H2CHCH2CHCH3C2H3CH4CH7CHNH2C2SCH4CH5C2H2CH3C3HNC5H3C2H2CNH5FeSHFeS2FeSFeS2CFeS2FeSHFeSFeS3FeSCFeSCFeSFeS3FeS2FeS2FeSFeHS2H4SHCHC4H3C2H6CH2C2H3C6H4C6H4C6H10CH3C2HNH5C2HSCH4CH5CHC2HC3HCH4CH4CNH3NH3C2HCH2CH3C4SH4C3H5CHC2HNCHNHCH8CHC2NHC3H3CH3CNC2HSHC3H6CHCHNH2FeSCFeS2FeSFeS3FeSHFeSHFeSFeSCSFeSHFeS2FeSFeSCSFeSHFeS2FeSFeS3C6H4C6H4CHCH2C6H4C2H2CH7C2HCSHC2H3CH2SH3CHS2C2HC2H8C4H8C2H2CHNHC3H2NHCH2CH4NC2H5CH8CHCNCH6CHNC4H9SH2SHC2H5CNHC3HNC5H4CH5CH4CH2CH3CH2FeSCFeS2FeSFeS3FeSHFeS2FeSFeSHSFeSCFeS2FeSFeS3FeSHFeS2FeSFeS3C6H4C6H4CHC2HC6H4C4H3C2HCHCH3CHCH2SH3CH5CH3CHCH2CH2NH4NHCH2CH2CH11NCHCHCH4C2H2C2HNCHSCHNH8SNCH6CH4C2HCNC4H3C3HC2HCH8C2H8NC2H2CHC3HC2H2CH2C2HFeS2FeSHFeSFeS3FeS2FeS2FeSFeCS2FeS2FeS2FeHFeS3FeSHFeS2FeSFeS3H2SCHCHSC2HCH3C2HCHCHCH2SHSH2C6H4C6H4C6H5C2H5C2H3CHNCNHCHC2H3NC4H14CNCH5CH5CH2NHCH3NC3H3SH3CNC4H2C2H3C2HCHNC4H12C2H2C2HCH3CH3CH3CH2C2HCH3C3H2SH3CHC2H6C2H2FeS2FeSHFeSFeS3FeS2FeS2FeSFeCS2FeCSFeS2FeHFeCS2FeS2FeS2FeSFeS3HCH3CH2C2H7C3H2CSH6C6H4C6H4C6H5C4HCHC2H3CH2CHNSC3H3NC4H12C2NCH4CH4SCH2CH2NHCNHCHSH2SH2C2H2C2H5NH6C2HSHC2H3CH2C6HC2H2CHC2H2CH2SCH3CH4NCHNH3CHC2HFeSCFeS2FeSFeS3FeSHFeS2FeSFeS3FeS2FeSHFeSFeS3FeS2FeS2FeHFeS3C3H3CH3C6H4C6H4C6H5CH5CH2CH3C2H4C2HCSH3CH2NC2HCH4C2H3NC3HCH3NC4H9CH5CHCHS2C2NC3H12CH4C3H3C4SHCNCSH2CH2CHCH2CNCHC2H4NC2NC2HCHCH2CH3NHCH2C2H4CH3CH5C2H2SHCH8FeSCFeS2FeSFeS3FeSCFeS2FeSFeS3FeS2FeSHFeSFeS3FeS2FeS2FeCFeS3HCH2CH2CH2C6H4C6H4C6H7C2HNHCHCHCH2NHC2HC3H4NSCH2C2HCH4C2H5CH2CH3SH6C2HCH2C3H6CH2CHNCHC2HSH5CHCH2C3H4CH2CH2CH2CHC3H4CHNHSCSC2H5CH2NC4H16N2C4H3C2HCH2CH4C2NSH3CH2CFeSHFeSCFeSFeSCSFeS2FeSHFeSFeS4H2C2HFeSFeHS2H3C2HFeSH2S2H5CH5SCH2SNSHCHCH2C7H4C3H2C6H4C2H3CHCH2C2HC2H4C2H3SH6CH2SHCFeH2FeCHNC3H2SCH8CNC4H2CSH5CH2NHCHCH4C2H8CSHFeCHC2H5SCH2C3HN2C2H2C2HCNSFeHC2HSH4CHCHCH2C4H4CNH3FeH3SHFeCFeSHFeSHFeSFeS3FeS2FeSHFeSFeS3C2HSHSFeCFeHS2CH4CFeHFeHS2C2H2C2H5SH3FeHCH5C8HCH3C2H2C6HCH2C3H2CHSH3C4HNHCH2NCHSCH2SC3FeCHC3SC2H4CH6CH3C2H3SHCHCH2CH2CH4SCH2NHCH2CHCH3NHNHC2HC2NH6SHC2HC2H2CH6CH11CHCHNHNC2HC2H5SHFeCH4FeS2FeS2FeCFeS3FeH2FeCSFeSH3SFeSHFeCSH2FeSCHFeS2FeS2FeSFeS3C2H2C5H2CSCHC2SCHNCHSH4C6H4C4H4C3HCH2CH2NCHC3HC6H5C2HNH8CH2C3SFeNC4H12NC3H4SCH4CHCH3CH5CHCH2FeHC2HCH4SH3CSCH2CHC2H3FeS2FeS2FeSFeHS2CHCFeHSFeHFeCHSFeSCHS2FeCFeSCNFeS2FeSHFeSFeSHSNSH2C2HC3H2CHNH3C2HCH6C6H6NC3H2CNHCH4C2HC3H3C6H5C2HC2SH2CHCH4CH3CH4C2H4CSCHCHNC4H15SHNHCH2CHCH3CHS2H2CHCFeCFeSH3CHNC2HCH9CH3CH6SH2NH3C2HCHCH2SHC3HCHCH2CH4S3H3CHC3HS2H3
_chemical_formula_sum              "Fe256 S512 N128 H2048 C1280"
_cell_length_a       75.6497
_cell_length_b       75.7757
_cell_length_c       47.4008
_cell_angle_alpha    89.9766
_cell_angle_beta     90.198
_cell_angle_gamma    88.0612

_space_group_name_H-M_alt    "P 1"
_space_group_IT_number       1

loop_
  _space_group_symop_operation_xyz
  'x, y, z'

loop_
  _atom_site_type_symbol
  _atom_site_label
  _atom_site_symmetry_multiplicity
  _atom_site_fract_x
  _atom_site_fract_y
  _atom_site_fract_z
  _atom_site_occupancy
  Fe  Fe1       1.0  0.20424  0.14472  0.02695  1.0000
  S   S1        1.0  0.17584  0.15012  0.01353  1.0000
  S   S2        1.0  0.20979  0.13438  0.07205  1.0000
  Fe  Fe2       1.0  0.21704  0.15785  0.46331  1.0000
  S   S3        1.0  0.18934  0.16789  0.45241  1.0000
  N   N1        1.0  0.12228  0.41543  0.31557  1.0000
  H   H1        1.0  0.12120  0.44382  0.31774  1.0000
  C   C1        1.0  0.08661  0.00443  0.24008  1.0000
  S   S4        1.0  0.24086  0.15503  0.43433  1.0000
  H   H2        1.0  0.16863  0.06582  0.03790  1.0000
  Fe  Fe3       1.0  0.18186  0.35502  0.47108  1.0000
  H   H3        1.0  0.11390  0.45951  0.47768  1.0000
  H   H4        1.0  0.19384  0.25313  0.42984  1.0000
  H   H5        1.0  0.21930  0.16637  0.17163  1.0000
  H   H6        1.0  0.13564  0.43963  0.03024  1.0000
  H   H7        1.0  0.11533  0.44899  0.01630  1.0000
  H   H8        1.0  0.19067  0.14819  0.22795  1.0000
  H   H9        1.0  0.10177  0.41498  0.98978  1.0000
  Fe  Fe4       1.0  0.22075  0.34324  0.46112  1.0000
  N   N2        1.0  0.22696  0.36095  0.20750  1.0000
  Fe  Fe5       1.0  0.21672  0.33688  0.02328  1.0000
  S   S5        1.0  0.23076  0.35042  0.06050  1.0000
  S   S6        1.0  0.19542  0.33682  0.43972  1.0000
  S   S7        1.0  0.19082  0.32302  0.02024  1.0000
  Fe  Fe6       1.0  0.08690  0.02480  0.34125  1.0000
  S   S8        1.0  0.08146  0.05343  0.35227  1.0000
  H   H10       1.0  0.23687  0.31497  0.42115  1.0000
  Fe  Fe7       1.0  0.08788  0.01521  0.40417  1.0000
  S   S9        1.0  0.08225  0.04295  0.41924  1.0000
  Fe  Fe8       1.0  0.19391  0.31533  0.47277  1.0000
  Fe  Fe9       1.0  0.06200  0.04400  0.38408  1.0000
  S   S10       1.0  0.03593  0.05982  0.38911  1.0000
  Fe  Fe10      1.0  0.10212  0.05078  0.38656  1.0000
  S   S11       1.0  0.12219  0.07319  0.38963  1.0000
  S   S12       1.0  0.06611  0.01565  0.37142  1.0000
  S   S13       1.0  0.10915  0.02264  0.37327  1.0000
  Fe  Fe11      1.0  0.08234  0.46244  0.33520  1.0000
  S   S14       1.0  0.06494  0.44008  0.34754  1.0000
  S   S15       1.0  0.08957  0.46250  0.28799  1.0000
  Fe  Fe12      1.0  0.08586  0.47357  0.39779  1.0000
  S   S16       1.0  0.06875  0.45208  0.41349  1.0000
  H   H11       1.0  0.13037  0.10053  0.48403  1.0000
  Fe  Fe13      1.0  0.08442  0.43480  0.38326  1.0000
  S   S17       1.0  0.09528  0.40682  0.39324  1.0000
  Fe  Fe14      1.0  0.05106  0.45944  0.37653  1.0000
  S   S18       1.0  0.02167  0.46748  0.37846  1.0000
  S   S19       1.0  0.10246  0.45592  0.36938  1.0000
  S   S20       1.0  0.06752  0.48217  0.36245  1.0000
  C   C2        1.0  0.09194  0.00247  0.26849  1.0000
  C   C3        1.0  0.24898  0.15250  0.14097  1.0000
  H   H12       1.0  0.19801  0.17521  0.18194  1.0000
  H   H13       1.0  0.01544  0.42943  0.38259  1.0000
  C   C4        1.0  0.09122  0.48854  0.21226  1.0000
  C   C5        1.0  0.01512  0.04984  0.38462  1.0000
  H   H14       1.0  0.07857  0.01590  0.23402  1.0000
  S   S21       1.0  0.24516  0.34937  0.30420  1.0000
  C   C6        1.0  0.12318  0.43641  0.01909  1.0000
  H   H15       1.0  0.02594  0.02374  0.37646  1.0000
  H   H16       1.0  0.14326  0.40208  0.29279  1.0000
  H   H17       1.0  0.12602  0.38809  0.30450  1.0000
  H   H18       1.0  0.12239  0.47987  0.00181  1.0000
  C   C7        1.0  0.23900  0.15740  0.33751  1.0000
  H   H19       1.0  0.11942  0.43515  0.28295  1.0000
  S   S22       1.0  0.08505  0.01900  0.29347  1.0000
  H   H20       1.0  0.06920  0.47897  0.45824  1.0000
  C   C8        1.0  0.23015  0.35208  0.38637  1.0000
  H   H21       1.0  0.20132  0.15958  0.25625  1.0000
  H   H22       1.0  0.21795  0.35454  0.39774  1.0000
  H   H23       1.0  0.21779  0.35457  0.34540  1.0000
  C   C9        1.0  0.14616  0.38711  0.44002  1.0000
  C   C10       1.0  0.14321  0.40524  0.43420  1.0000
  C   C11       1.0  0.12785  0.41147  0.41977  1.0000
  C   C12       1.0  0.11507  0.39967  0.41117  1.0000
  C   C13       1.0  0.11812  0.38153  0.41656  1.0000
  C   C14       1.0  0.13355  0.37528  0.43083  1.0000
  H   H24       1.0  0.15291  0.41452  0.44104  1.0000
  H   H25       1.0  0.12589  0.42540  0.41536  1.0000
  H   H26       1.0  0.10841  0.37223  0.40991  1.0000
  H   H27       1.0  0.13553  0.36133  0.43517  1.0000
  C   C15       1.0  0.22514  0.14165  0.09804  1.0000
  H   H28       1.0  0.09789  0.42415  0.33438  1.0000
  C   C16       1.0  0.13119  0.41320  0.34323  1.0000
  H   H29       1.0  0.22030  0.23789  0.01629  1.0000
  C   C17       1.0  0.24407  0.36723  0.19726  1.0000
  C   C18       1.0  0.24066  0.34178  0.09218  1.0000
  H   H30       1.0  0.23778  0.29542  0.34917  1.0000
  C   C19       1.0  0.12610  0.43295  0.30372  1.0000
  H   H31       1.0  0.12837  0.40020  0.35292  1.0000
  C   C20       1.0  0.22334  0.15531  0.35283  1.0000
  C   C21       1.0  0.22359  0.15499  0.38256  1.0000
  H   H32       1.0  0.21096  0.15385  0.34172  1.0000
  H   H33       1.0  0.21149  0.15324  0.39418  1.0000
  C   C22       1.0  0.14829  0.11112  0.45356  1.0000
  C   C23       1.0  0.13478  0.09996  0.46236  1.0000
  C   C24       1.0  0.12686  0.08809  0.44342  1.0000
  C   C25       1.0  0.13222  0.08725  0.41516  1.0000
  C   C26       1.0  0.14567  0.09845  0.40638  1.0000
  C   C27       1.0  0.15372  0.11019  0.42538  1.0000
  H   H34       1.0  0.09534  0.02025  0.47242  1.0000
  H   H35       1.0  0.11657  0.07964  0.45067  1.0000
  H   H36       1.0  0.14994  0.09804  0.38461  1.0000
  H   H37       1.0  0.16401  0.11864  0.41809  1.0000
  H   H38       1.0  0.14053  0.43456  0.30072  1.0000
  H   H39       1.0  0.23722  0.26824  0.39745  1.0000
  C   C28       1.0  0.09966  0.49387  0.01907  1.0000
  H   H40       1.0  0.24479  0.31348  0.37034  1.0000
  S   S23       1.0  0.23838  0.15701  0.30018  1.0000
  S   S24       1.0  0.15766  0.12592  0.47866  1.0000
  C   C29       1.0  0.23459  0.30059  0.42026  1.0000
  S   S25       1.0  0.19014  0.28813  0.45287  1.0000
  H   H41       1.0  0.24362  0.36726  0.01053  1.0000
  H   H42       1.0  0.22472  0.29771  0.43685  1.0000
  C   C30       1.0  0.25048  0.35304  0.10945  1.0000
  C   C31       1.0  0.08860  0.49769  0.26960  1.0000
  C   C32       1.0  0.23507  0.15671  0.09432  1.0000
  S   S26       1.0  0.20928  0.12585  0.99092  1.0000
  H   H43       1.0  0.24905  0.37804  0.21074  1.0000
  C   C33       1.0  0.13677  0.41078  0.99664  1.0000
  H   H44       1.0  0.14579  0.41409  0.34143  1.0000
  H   H45       1.0  0.24071  0.12964  0.16374  1.0000
  C   C34       1.0  0.09055  0.47536  0.23336  1.0000
  C   C35       1.0  0.08930  0.47980  0.26221  1.0000
  H   H46       1.0  0.21481  0.27300  0.40804  1.0000
  H   H47       1.0  0.19841  0.07877  0.03502  1.0000
  H   H48       1.0  0.09114  0.46160  0.22729  1.0000
  H   H49       1.0  0.12652  0.42350  0.35848  1.0000
  C   C36       1.0  0.12874  0.40145  0.29608  1.0000
  C   C37       1.0  0.10299  0.41408  0.31927  1.0000
  N   N3        1.0  0.22837  0.29530  0.39202  1.0000
  H   H50       1.0  0.21978  0.13509  0.21265  1.0000
  H   H51       1.0  0.09535  0.42772  0.45412  1.0000
  H   H52       1.0  0.09949  0.40100  0.32798  1.0000
  H   H53       1.0  0.09566  0.41629  0.29909  1.0000
  S   S27       1.0  0.24640  0.34852  0.43856  1.0000
  H   H54       1.0  0.11911  0.41028  0.47794  1.0000
  N   N4        1.0  0.17468  0.09246  0.04922  1.0000
  C   C38       1.0  0.17818  0.08821  0.07920  1.0000
  C   C39       1.0  0.16272  0.07945  0.03690  1.0000
  C   C40       1.0  0.19157  0.09196  0.03360  1.0000
  C   C41       1.0  0.16629  0.11031  0.04714  1.0000
  C   C42       1.0  0.09145  0.43299  0.47525  1.0000
  S   S28       1.0  0.10981  0.49693  0.05226  1.0000
  H   H55       1.0  0.22020  0.27170  0.37120  1.0000
  C   C43       1.0  0.19036  0.23471  0.46388  1.0000
  H   H56       1.0  0.18454  0.07484  0.08162  1.0000
  H   H57       1.0  0.14980  0.07949  0.04807  1.0000
  H   H58       1.0  0.21632  0.35032  0.24586  1.0000
  H   H59       1.0  0.12895  0.40132  0.00902  1.0000
  H   H60       1.0  0.23303  0.36628  0.25108  1.0000
  C   C44       1.0  0.11984  0.44605  0.48144  1.0000
  H   H61       1.0  0.20121  0.30268  0.40056  1.0000
  H   H62       1.0  0.15355  0.11123  0.05876  1.0000
  C   C45       1.0  0.23009  0.35217  0.35668  1.0000
  H   H63       1.0  0.18722  0.09790  0.08883  1.0000
  H   H64       1.0  0.16339  0.11392  0.02480  1.0000
  H   H65       1.0  0.17504  0.12050  0.05595  1.0000
  S   S29       1.0  0.09986  0.49162  0.42824  1.0000
  C   C46       1.0  0.20007  0.22089  0.00088  1.0000
  C   C47       1.0  0.21181  0.30530  0.38501  1.0000
  H   H66       1.0  0.12460  0.44093  0.46074  1.0000
  C   C48       1.0  0.22503  0.27620  0.39211  1.0000
  H   H67       1.0  0.21156  0.37992  0.18327  1.0000
  C   C49       1.0  0.23956  0.15660  0.39715  1.0000
  C   C50       1.0  0.22887  0.35528  0.23722  1.0000
  Fe  Fe15      1.0  0.20512  0.30288  0.99244  1.0000
  H   H68       1.0  0.20078  0.10189  0.04194  1.0000
  C   C51       1.0  0.22721  0.13206  0.12343  1.0000
  C   C52       1.0  0.00230  0.45502  0.38048  1.0000
  C   C53       1.0  0.19156  0.25176  0.45220  1.0000
  C   C54       1.0  0.24599  0.34920  0.40123  1.0000
  H   H69       1.0  0.23366  0.16427  0.07503  1.0000
  H   H70       1.0  0.22083  0.34942  0.16723  1.0000
  S   S30       1.0  0.23106  0.31621  0.99778  1.0000
  H   H71       1.0  0.24298  0.37228  0.17525  1.0000
  C   C55       1.0  0.24684  0.16209  0.11565  1.0000
  C   C56       1.0  0.01398  0.03185  0.37858  1.0000
  N   N5        1.0  0.12680  0.42764  0.99174  1.0000
  H   H72       1.0  0.20040  0.37120  0.21338  1.0000
  H   H73       1.0  0.08642  0.01272  0.02110  1.0000
  H   H74       1.0  0.23909  0.34447  0.23957  1.0000
  H   H75       1.0  0.15985  0.08245  0.01426  1.0000
  H   H76       1.0  0.09234  0.48484  0.19028  1.0000
  C   C57       1.0  0.07543  0.49937  0.98610  1.0000
  H   H77       1.0  0.21971  0.12033  0.12654  1.0000
  C   C58       1.0  0.24201  0.29915  0.37081  1.0000
  C   C59       1.0  0.21343  0.37544  0.20549  1.0000
  N   N6        1.0  0.07373  0.10362  0.39961  1.0000
  C   C60       1.0  0.07572  0.08835  0.41886  1.0000
  C   C61       1.0  0.08807  0.11596  0.40507  1.0000
  C   C62       1.0  0.05633  0.11257  0.40435  1.0000
  C   C63       1.0  0.07479  0.09741  0.37009  1.0000
  H   H78       1.0  0.06510  0.07875  0.41526  1.0000
  H   H79       1.0  0.07507  0.09246  0.44136  1.0000
  H   H80       1.0  0.08864  0.08121  0.41569  1.0000
  H   H81       1.0  0.08696  0.12773  0.39105  1.0000
  H   H82       1.0  0.08794  0.12066  0.42732  1.0000
  H   H83       1.0  0.10131  0.10948  0.40128  1.0000
  H   H84       1.0  0.05425  0.12409  0.39001  1.0000
  H   H85       1.0  0.05503  0.11739  0.42644  1.0000
  H   H86       1.0  0.04534  0.10339  0.40045  1.0000
  H   H87       1.0  0.07328  0.10853  0.35488  1.0000
  H   H88       1.0  0.06421  0.08793  0.36533  1.0000
  H   H89       1.0  0.08779  0.09058  0.36580  1.0000
  N   N7        1.0  0.21319  0.16288  0.21553  1.0000
  C   C64       1.0  0.19751  0.16050  0.23350  1.0000
  C   C65       1.0  0.20775  0.16410  0.18556  1.0000
  C   C66       1.0  0.22569  0.14767  0.21937  1.0000
  C   C67       1.0  0.22191  0.17926  0.22379  1.0000
  H   H90       1.0  0.18777  0.17175  0.23126  1.0000
  H   H91       1.0  0.19181  0.22317  0.45054  1.0000
  C   C68       1.0  0.20784  0.23735  0.00509  1.0000
  H   H92       1.0  0.20166  0.15174  0.17820  1.0000
  H   H93       1.0  0.20835  0.34118  0.19645  1.0000
  H   H94       1.0  0.23138  0.31541  0.08784  1.0000
  H   H95       1.0  0.23790  0.14927  0.20677  1.0000
  H   H96       1.0  0.18941  0.09488  0.01082  1.0000
  H   H97       1.0  0.22975  0.14617  0.24188  1.0000
  H   H98       1.0  0.23368  0.18153  0.21033  1.0000
  H   H99       1.0  0.22650  0.17865  0.24618  1.0000
  H   H100      1.0  0.21281  0.19102  0.22159  1.0000
  C   C69       1.0  0.22152  0.34588  0.19005  1.0000
  H   H101      1.0  0.20676  0.30173  0.36378  1.0000
  C   C70       1.0  0.10911  0.48496  0.99762  1.0000
  H   H102      1.0  0.23110  0.33447  0.19206  1.0000
  H   H103      1.0  0.21728  0.38706  0.21823  1.0000
  H   H104      1.0  0.24962  0.26628  0.20579  1.0000
  C   C71       1.0  0.09387  0.49181  0.46421  1.0000
  H   H105      1.0  0.12216  0.40273  0.27509  1.0000
  C   C72       1.0  0.23888  0.32426  0.10078  1.0000
  S   S31       1.0  0.21450  0.16783  0.00274  1.0000
  H   H106      1.0  0.01282  0.48386  0.98733  1.0000
  H   H107      1.0  0.24722  0.29358  0.42613  1.0000
  H   H108      1.0  0.16575  0.08855  0.09169  1.0000
  S   S32       1.0  0.16530  0.38033  0.45999  1.0000
  H   H109      1.0  0.20654  0.20897  0.00891  1.0000
  C   C73       1.0  0.00282  0.43659  0.38240  1.0000
  C   C74       1.0  0.07820  0.48445  0.47339  1.0000
  C   C75       1.0  0.18944  0.26697  0.46910  1.0000
  C   C76       1.0  0.18390  0.21996  0.98664  1.0000
  C   C77       1.0  0.19959  0.25312  0.99527  1.0000
  S   S33       1.0  0.21031  0.27334  0.00126  1.0000
  H   H110      1.0  0.11551  0.42785  0.03332  1.0000
  C   C78       1.0  0.24585  0.34930  0.34154  1.0000
  H   H111      1.0  0.24491  0.30468  0.13276  1.0000
  H   H112      1.0  0.08144  0.42409  0.48402  1.0000
  C   C79       1.0  0.23910  0.13736  0.14468  1.0000
  Fe  Fe16      1.0  0.18076  0.14526  0.48007  1.0000
  H   H113      1.0  0.21379  0.31977  0.38513  1.0000
  H   H114      1.0  0.03260  0.00584  0.04492  1.0000
  H   H115      1.0  0.08482  0.44617  0.47188  1.0000
  C   C80       1.0  0.24663  0.31820  0.12636  1.0000
  Fe  Fe17      1.0  0.18667  0.17202  0.98684  1.0000
  C   C81       1.0  0.10525  0.49921  0.48412  1.0000
  H   H116      1.0  0.14937  0.41281  0.00819  1.0000
  H   H117      1.0  0.03547  0.00081  0.09676  1.0000
  C   C82       1.0  0.09270  0.00844  0.48431  1.0000
  S   S34       1.0  0.21058  0.35382  0.98488  1.0000
  Fe  Fe18      1.0  0.20908  0.15303  0.52651  1.0000
  S   S35       1.0  0.18105  0.16248  0.51891  1.0000
  S   S36       1.0  0.21425  0.14398  0.57234  1.0000
  Fe  Fe19      1.0  0.21706  0.14933  0.96559  1.0000
  S   S37       1.0  0.18968  0.15443  0.94848  1.0000
  H   H118      1.0  0.24324  0.32356  0.56655  1.0000
  C   C83       1.0  0.10115  0.44149  0.52178  1.0000
  H   H119      1.0  0.15499  0.07103  0.95694  1.0000
  H   H120      1.0  0.23818  0.35119  0.66144  1.0000
  S   S38       1.0  0.07050  0.00323  0.86657  1.0000
  C   C84       1.0  0.09494  0.48932  0.77313  1.0000
  H   H121      1.0  0.11554  0.40966  0.83044  1.0000
  H   H122      1.0  0.19033  0.22396  0.56656  1.0000
  H   H123      1.0  0.19277  0.19044  0.90239  1.0000
  C   C85       1.0  0.19593  0.22008  0.58756  1.0000
  C   C86       1.0  0.03435  0.47001  0.92816  1.0000
  H   H124      1.0  0.18092  0.12604  0.53164  1.0000
  H   H125      1.0  0.21652  0.17939  0.93371  1.0000
  Fe  Fe20      1.0  0.22360  0.33203  0.95936  1.0000
  H   H126      1.0  0.21546  0.23334  0.90768  1.0000
  Fe  Fe21      1.0  0.20525  0.33981  0.52069  1.0000
  S   S39       1.0  0.21018  0.34551  0.56785  1.0000
  S   S40       1.0  0.19865  0.31737  0.95174  1.0000
  S   S41       1.0  0.17832  0.33309  0.50305  1.0000
  Fe  Fe22      1.0  0.08741  0.02108  0.84171  1.0000
  S   S42       1.0  0.07074  0.04524  0.85299  1.0000
  H   H127      1.0  0.22762  0.20521  0.57142  1.0000
  H   H128      1.0  0.12734  0.41693  0.51166  1.0000
  S   S43       1.0  0.07128  0.03171  0.91910  1.0000
  C   C87       1.0  0.24020  0.15439  0.84238  1.0000
  Fe  Fe23      1.0  0.05465  0.02739  0.88018  1.0000
  S   S44       1.0  0.02571  0.01967  0.87850  1.0000
  Fe  Fe24      1.0  0.08887  0.04788  0.89108  1.0000
  S   S45       1.0  0.09928  0.07559  0.90096  1.0000
  C   C88       1.0  0.17564  0.23572  0.97672  1.0000
  S   S46       1.0  0.10644  0.02477  0.87795  1.0000
  Fe  Fe25      1.0  0.08334  0.45344  0.84023  1.0000
  S   S47       1.0  0.08159  0.42522  0.85558  1.0000
  S   S48       1.0  0.08460  0.45604  0.79173  1.0000
  Fe  Fe26      1.0  0.08122  0.46721  0.90136  1.0000
  S   S49       1.0  0.07993  0.44020  0.92013  1.0000
  H   H129      1.0  0.24137  0.30444  0.83818  1.0000
  Fe  Fe27      1.0  0.10128  0.43219  0.88925  1.0000
  S   S50       1.0  0.12818  0.41783  0.89776  1.0000
  Fe  Fe28      1.0  0.06036  0.43562  0.88509  1.0000
  S   S51       1.0  0.03483  0.42268  0.89801  1.0000
  S   S52       1.0  0.10401  0.46003  0.87267  1.0000
  S   S53       1.0  0.06071  0.46306  0.86763  1.0000
  C   C89       1.0  0.01345  0.43093  0.88796  1.0000
  C   C90       1.0  0.00281  0.04916  0.88325  1.0000
  H   H130      1.0  0.18138  0.07297  0.56139  1.0000
  H   H131      1.0  0.02261  0.44996  0.85816  1.0000
  H   H132      1.0  0.18788  0.10175  0.49890  1.0000
  H   H133      1.0  0.03774  0.49668  0.74938  1.0000
  C   C91       1.0  0.00291  0.47464  0.93479  1.0000
  H   H134      1.0  0.01660  0.44215  0.94595  1.0000
  C   C92       1.0  0.08553  0.49144  0.52224  1.0000
  H   H135      1.0  0.01426  0.05670  0.88847  1.0000
  H   H136      1.0  0.11795  0.43840  0.76732  1.0000
  C   C93       1.0  0.21886  0.19327  0.93977  1.0000
  C   C94       1.0  0.13017  0.43013  0.77155  1.0000
  C   C95       1.0  0.22594  0.34807  0.62035  1.0000
  H   H137      1.0  0.23245  0.38079  0.52865  1.0000
  H   H138      1.0  0.21446  0.35632  0.62557  1.0000
  H   H139      1.0  0.07946  0.45675  0.73164  1.0000
  C   C96       1.0  0.13110  0.44012  0.81982  1.0000
  H   H140      1.0  0.10597  0.40737  0.50875  1.0000
  H   H141      1.0  0.21707  0.33567  0.89165  1.0000
  H   H142      1.0  0.21568  0.33733  0.83928  1.0000
  C   C97       1.0  0.15024  0.36951  0.94891  1.0000
  C   C98       1.0  0.13182  0.37262  0.94602  1.0000
  C   C99       1.0  0.12479  0.38701  0.93000  1.0000
  C   C100      1.0  0.13611  0.39868  0.91679  1.0000
  C   C101      1.0  0.15451  0.39550  0.91949  1.0000
  C   C102      1.0  0.16153  0.38105  0.93536  1.0000
  H   H143      1.0  0.23291  0.19379  0.94669  1.0000
  H   H144      1.0  0.11062  0.38903  0.92798  1.0000
  H   H145      1.0  0.16347  0.40434  0.90936  1.0000
  H   H146      1.0  0.17570  0.37890  0.93727  1.0000
  C   C103      1.0  0.23001  0.15029  0.59843  1.0000
  C   C104      1.0  0.24527  0.33850  0.89359  1.0000
  C   C105      1.0  0.23998  0.14928  0.64794  1.0000
  C   C106      1.0  0.22805  0.14445  0.62645  1.0000
  H   H147      1.0  0.20968  0.08688  0.54892  1.0000
  H   H148      1.0  0.23827  0.14461  0.66930  1.0000
  H   H149      1.0  0.21721  0.13609  0.63163  1.0000
  H   H150      1.0  0.12291  0.36377  0.95624  1.0000
  C   C107      1.0  0.22614  0.20050  0.89180  1.0000
  C   C108      1.0  0.22511  0.14963  0.85740  1.0000
  C   C109      1.0  0.22540  0.14862  0.88704  1.0000
  H   H151      1.0  0.21317  0.14655  0.84603  1.0000
  H   H152      1.0  0.21376  0.14472  0.89834  1.0000
  C   C110      1.0  0.14791  0.09821  0.94741  1.0000
  C   C111      1.0  0.14546  0.07983  0.94659  1.0000
  C   C112      1.0  0.13080  0.07266  0.93252  1.0000
  C   C113      1.0  0.11821  0.08377  0.91910  1.0000
  C   C114      1.0  0.12070  0.10214  0.91982  1.0000
  C   C115      1.0  0.13541  0.10931  0.93378  1.0000
  H   H153      1.0  0.22349  0.18689  0.88435  1.0000
  H   H154      1.0  0.12918  0.05853  0.93228  1.0000
  H   H155      1.0  0.11107  0.11095  0.90970  1.0000
  H   H156      1.0  0.13696  0.12345  0.93422  1.0000
  H   H157      1.0  0.06217  0.47806  0.50930  1.0000
  H   H158      1.0  0.20990  0.22784  0.94319  1.0000
  H   H159      1.0  0.18113  0.24656  0.53145  1.0000
  H   H160      1.0  0.16083  0.08540  0.55792  1.0000
  N   N8        1.0  0.21485  0.20546  0.91613  1.0000
  S   S54       1.0  0.24193  0.15080  0.93905  1.0000
  H   H161      1.0  0.11900  0.44865  0.81649  1.0000
  S   S55       1.0  0.08151  0.48821  0.55845  1.0000
  C   C116      1.0  0.19603  0.20421  0.90810  1.0000
  H   H162      1.0  0.13162  0.44751  0.49527  1.0000
  H   H163      1.0  0.24044  0.20066  0.89745  1.0000
  H   H164      1.0  0.24446  0.38127  0.49599  1.0000
  H   H165      1.0  0.23819  0.28164  0.84553  1.0000
  H   H166      1.0  0.03623  0.48047  0.98194  1.0000
  C   C117      1.0  0.08776  0.48199  0.71618  1.0000
  H   H167      1.0  0.25019  0.39571  0.52452  1.0000
  C   C118      1.0  0.23940  0.34518  0.64081  1.0000
  C   C119      1.0  0.14738  0.41355  0.80635  1.0000
  C   C120      1.0  0.08460  0.46940  0.73747  1.0000
  C   C121      1.0  0.08816  0.47292  0.76610  1.0000
  C   C122      1.0  0.21833  0.22373  0.92496  1.0000
  N   N9        1.0  0.10692  0.43424  0.49421  1.0000
  C   C123      1.0  0.07413  0.48415  0.50230  1.0000
  C   C124      1.0  0.11551  0.41387  0.80789  1.0000
  H   H168      1.0  0.20938  0.10932  0.53673  1.0000
  S   S56       1.0  0.15823  0.35161  0.97071  1.0000
  H   H169      1.0  0.18421  0.27648  0.51108  1.0000
  C   C125      1.0  0.02339  0.48342  0.97104  1.0000
  H   H170      1.0  0.03025  0.00640  0.54374  1.0000
  H   H171      1.0  0.05787  0.49953  0.69253  1.0000
  C   C126      1.0  0.18343  0.25221  0.98096  1.0000
  C   C127      1.0  0.13737  0.43921  0.97374  1.0000
  S   S57       1.0  0.24238  0.33982  0.79673  1.0000
  C   C128      1.0  0.01121  0.44462  0.86837  1.0000
  H   H172      1.0  0.11516  0.40175  0.79471  1.0000
  H   H173      1.0  0.20722  0.22875  0.59181  1.0000
  C   C129      1.0  0.22904  0.33732  0.87962  1.0000
  H   H174      1.0  0.10295  0.42159  0.80385  1.0000
  H   H175      1.0  0.17550  0.19232  0.59725  1.0000
  H   H176      1.0  0.14033  0.40417  0.97643  1.0000
  H   H177      1.0  0.22379  0.20959  0.87365  1.0000
  Fe  Fe29      1.0  0.18125  0.13204  0.97635  1.0000
  H   H178      1.0  0.14166  0.43819  0.76585  1.0000
  H   H179      1.0  0.00321  0.48768  0.92404  1.0000
  H   H180      1.0  0.09629  0.02081  0.52489  1.0000
  H   H181      1.0  0.19864  0.19870  0.63287  1.0000
  C   C130      1.0  0.18439  0.24789  0.50940  1.0000
  H   H182      1.0  0.03198  0.46042  0.91096  1.0000
  C   C131      1.0  0.22828  0.33834  0.84995  1.0000
  C   C132      1.0  0.09330  0.00870  0.51403  1.0000
  N   N10       1.0  0.11006  0.07851  0.81735  1.0000
  C   C133      1.0  0.11485  0.06078  0.82853  1.0000
  C   C134      1.0  0.09099  0.08239  0.82191  1.0000
  C   C135      1.0  0.11386  0.07895  0.78680  1.0000
  C   C136      1.0  0.12050  0.09185  0.83215  1.0000
  H   H183      1.0  0.12903  0.05717  0.82488  1.0000
  H   H184      1.0  0.10685  0.05044  0.81846  1.0000
  H   H185      1.0  0.11257  0.06006  0.85164  1.0000
  H   H186      1.0  0.08270  0.07260  0.81101  1.0000
  H   H187      1.0  0.08760  0.08200  0.84475  1.0000
  H   H188      1.0  0.08692  0.09575  0.81401  1.0000
  H   H189      1.0  0.12815  0.07620  0.78259  1.0000
  H   H190      1.0  0.11018  0.09206  0.77750  1.0000
  H   H191      1.0  0.10632  0.06880  0.77526  1.0000
  H   H192      1.0  0.11730  0.10541  0.82423  1.0000
  H   H193      1.0  0.13496  0.08919  0.82960  1.0000
  H   H194      1.0  0.11775  0.09188  0.85525  1.0000
  H   H195      1.0  0.17642  0.12195  0.56799  1.0000
  C   C137      1.0  0.18609  0.26492  0.49789  1.0000
  H   H196      1.0  0.24003  0.27672  0.79319  1.0000
  C   C138      1.0  0.24417  0.16107  0.59222  1.0000
  Fe  Fe30      1.0  0.08794  0.00858  0.90374  1.0000
  H   H197      1.0  0.16762  0.09182  0.50788  1.0000
  H   H198      1.0  0.14269  0.44837  0.81560  1.0000
  H   H199      1.0  0.16309  0.23519  0.96578  1.0000
  H   H200      1.0  0.16063  0.11633  0.54097  1.0000
  C   C139      1.0  0.24216  0.32982  0.58697  1.0000
  H   H201      1.0  0.09787  0.49228  0.79494  1.0000
  H   H202      1.0  0.10184  0.43663  0.97418  1.0000
  S   S58       1.0  0.22032  0.32089  0.49229  1.0000
  H   H203      1.0  0.10919  0.47667  0.95389  1.0000
  S   S59       1.0  0.18315  0.21160  0.50784  1.0000
  H   H204      1.0  0.11209  0.41820  0.95625  1.0000
  H   H205      1.0  0.13022  0.45200  0.96942  1.0000
  C   C140      1.0  0.21541  0.19802  0.56646  1.0000
  H   H206      1.0  0.19006  0.17596  0.58128  1.0000
  S   S60       1.0  0.22016  0.17524  0.50158  1.0000
  C   C141      1.0  0.24372  0.34036  0.83403  1.0000
  H   H207      1.0  0.18052  0.19361  0.56039  1.0000
  H   H208      1.0  0.15942  0.42107  0.80172  1.0000
  S   S61       1.0  0.16665  0.10636  0.96614  1.0000
  H   H209      1.0  0.21908  0.18374  0.56475  1.0000
  N   N11       1.0  0.13106  0.42441  0.80137  1.0000
  H   H210      1.0  0.17626  0.09087  0.58522  1.0000
  H   H211      1.0  0.13158  0.43630  0.84252  1.0000
  H   H212      1.0  0.08517  0.47889  0.69431  1.0000
  H   H213      1.0  0.19255  0.21289  0.88985  1.0000
  N   N12       1.0  0.18365  0.09886  0.54353  1.0000
  C   C142      1.0  0.20261  0.09994  0.55080  1.0000
  C   C143      1.0  0.18179  0.09259  0.51415  1.0000
  C   C144      1.0  0.17498  0.11653  0.54631  1.0000
  C   C145      1.0  0.17516  0.08645  0.56290  1.0000
  H   H214      1.0  0.20449  0.10483  0.57274  1.0000
  H   H215      1.0  0.21040  0.19639  0.95833  1.0000
  C   C146      1.0  0.11520  0.41646  0.49837  1.0000
  H   H216      1.0  0.18819  0.07930  0.51111  1.0000
  C   C147      1.0  0.01902  0.45248  0.96209  1.0000
  C   C148      1.0  0.24085  0.15225  0.90190  1.0000
  H   H217      1.0  0.24616  0.16545  0.57077  1.0000
  N   N13       1.0  0.20157  0.20121  0.58794  1.0000
  C   C149      1.0  0.22721  0.34049  0.59325  1.0000
  H   H218      1.0  0.21083  0.20249  0.54522  1.0000
  S   S62       1.0  0.09818  0.01679  0.79672  1.0000
  C   C150      1.0  0.20870  0.19639  0.61609  1.0000
  H   H219      1.0  0.14831  0.40910  0.82878  1.0000
  N   N14       1.0  0.01990  0.47015  0.94904  1.0000
  C   C151      1.0  0.10987  0.42420  0.97742  1.0000
  H   H220      1.0  0.22044  0.20418  0.62152  1.0000
  S   S63       1.0  0.20777  0.36259  0.49070  1.0000
  C   C152      1.0  0.00493  0.03118  0.87694  1.0000
  H   H221      1.0  0.13000  0.41863  0.75696  1.0000
  H   H222      1.0  0.23896  0.34858  0.53058  1.0000
  H   H223      1.0  0.21294  0.18218  0.61697  1.0000
  H   H224      1.0  0.14028  0.43292  0.95291  1.0000
  H   H225      1.0  0.03578  0.48321  0.91824  1.0000
  C   C153      1.0  0.18623  0.19029  0.58150  1.0000
  S   S64       1.0  0.07619  0.49073  0.93005  1.0000
  C   C154      1.0  0.08492  0.49060  0.96460  1.0000
  H   H226      1.0  0.00815  0.45199  0.97780  1.0000
  H   H227      1.0  0.14779  0.40152  0.79287  1.0000
  H   H228      1.0  0.15026  0.44212  0.98378  1.0000
  H   H229      1.0  0.24451  0.29959  0.78759  1.0000
  C   C155      1.0  0.24586  0.38219  0.51938  1.0000
  H   H230      1.0  0.08838  0.01252  0.96892  1.0000
  H   H231      1.0  0.18551  0.22305  0.60354  1.0000
  C   C156      1.0  0.09332  0.00083  0.77012  1.0000
  S   S65       1.0  0.23942  0.15465  0.80508  1.0000
  H   H232      1.0  0.18714  0.20826  0.92582  1.0000
  C   C157      1.0  0.10168  0.48312  0.97054  1.0000
  H   H233      1.0  0.24803  0.36344  0.97383  1.0000
  C   C158      1.0  0.10138  0.00204  0.74344  1.0000
  H   H234      1.0  0.11247  0.44254  0.53669  1.0000
  H   H235      1.0  0.04729  0.46620  0.93800  1.0000
  H   H236      1.0  0.09503  0.45497  0.51952  1.0000
  H   H237      1.0  0.11003  0.01279  0.73924  1.0000
  C   C159      1.0  0.24846  0.29164  0.84259  1.0000
  C   C160      1.0  0.09474  0.49831  0.72315  1.0000
  H   H238      1.0  0.02413  0.49690  0.96182  1.0000
  H   H239      1.0  0.23233  0.22509  0.93168  1.0000
  H   H240      1.0  0.17688  0.26421  0.97334  1.0000
  H   H241      1.0  0.24811  0.11546  0.83818  1.0000
  C   C161      1.0  0.18651  0.23268  0.49251  1.0000
  C   C162      1.0  0.25077  0.28637  0.79251  1.0000
  H   H242      1.0  0.03643  0.49074  0.69861  1.0000
  Fe  Fe31      1.0  0.18581  0.33857  0.97961  1.0000
  H   H243      1.0  0.24599  0.36832  0.57108  1.0000
  S   S66       1.0  0.17386  0.19944  0.97995  1.0000
  H   H244      1.0  0.09116  0.43312  0.53190  1.0000
  H   H245      1.0  0.03164  0.44861  0.97293  1.0000
  Fe  Fe32      1.0  0.19207  0.18409  0.49236  1.0000
  S   S67       1.0  0.20840  0.13466  0.48906  1.0000
  S   S68       1.0  0.24701  0.33714  0.93075  1.0000
  C   C163      1.0  0.10111  0.49901  0.51306  1.0000
  Fe  Fe33      1.0  0.06607  0.94192  0.12633  1.0000
  S   S69       1.0  0.07787  0.96831  0.13301  1.0000
  S   S70       1.0  0.03753  0.94390  0.14183  1.0000
  Fe  Fe34      1.0  0.10283  0.92499  0.11045  1.0000
  S   S71       1.0  0.11655  0.95071  0.11696  1.0000
  S   S72       1.0  0.11619  0.89770  0.10155  1.0000
  Fe  Fe35      1.0  0.09983  0.95430  0.15634  1.0000
  S   S73       1.0  0.10873  0.96033  0.20176  1.0000
  Fe  Fe36      1.0  0.09298  0.96255  0.09315  1.0000
  H   H246      1.0  0.05552  0.52015  0.16145  1.0000
  S   S74       1.0  0.08758  0.92785  0.15133  1.0000
  S   S75       1.0  0.07992  0.93681  0.08492  1.0000
  Fe  Fe37      1.0  0.09078  0.52629  0.14592  1.0000
  S   S76       1.0  0.07358  0.54987  0.13285  1.0000
  S   S77       1.0  0.09266  0.52377  0.19432  1.0000
  Fe  Fe38      1.0  0.09609  0.51551  0.08354  1.0000
  S   S78       1.0  0.07854  0.53770  0.06739  1.0000
  H   H247      1.0  0.18361  0.62101  0.12483  1.0000
  Fe  Fe39      1.0  0.09363  0.55431  0.09819  1.0000
  S   S79       1.0  0.10295  0.58158  0.08386  1.0000
  Fe  Fe40      1.0  0.06043  0.53115  0.10333  1.0000
  S   S80       1.0  0.03173  0.52275  0.10202  1.0000
  S   S81       1.0  0.11179  0.53223  0.11342  1.0000
  H   H248      1.0  0.08949  0.52460  0.25471  1.0000
  Fe  Fe41      1.0  0.18904  0.63481  0.01477  1.0000
  H   H249      1.0  0.03832  0.50464  0.16370  1.0000
  S   S82       1.0  0.17531  0.61020  0.03230  1.0000
  H   H250      1.0  0.05943  0.96500  0.05692  1.0000
  H   H251      1.0  0.03998  0.97885  0.10991  1.0000
  C   C164      1.0  0.24253  0.70911  0.08365  1.0000
  Fe  Fe42      1.0  0.20885  0.64533  0.46545  1.0000
  S   S83       1.0  0.21366  0.64106  0.41788  1.0000
  Fe  Fe43      1.0  0.22353  0.65315  0.02763  1.0000
  C   C165      1.0  0.04222  0.98792  0.09184  1.0000
  C   C166      1.0  0.09171  0.99184  0.21938  1.0000
  S   S84       1.0  0.19527  0.65971  0.03896  1.0000
  Fe  Fe44      1.0  0.19525  0.84264  0.01839  1.0000
  H   H252      1.0  0.10036  0.57428  0.99269  1.0000
  S   S85       1.0  0.17975  0.86922  0.02218  1.0000
  C   C167      1.0  0.21913  0.69978  0.05300  1.0000
  H   H253      1.0  0.12759  0.52619  0.01702  1.0000
  H   H254      1.0  0.09820  0.56553  0.02767  1.0000
  Fe  Fe45      1.0  0.23140  0.82545  0.03290  1.0000
  H   H255      1.0  0.08292  0.93419  0.21845  1.0000
  Fe  Fe46      1.0  0.21528  0.83162  0.46878  1.0000
  S   S86       1.0  0.21602  0.83652  0.42076  1.0000
  S   S87       1.0  0.20458  0.82370  0.05231  1.0000
  H   H256      1.0  0.16158  0.87144  0.39561  1.0000
  C   C168      1.0  0.24669  0.65334  0.40190  1.0000
  C   C169      1.0  0.04694  0.51323  0.17647  1.0000
  H   H257      1.0  0.23983  0.83899  0.32406  1.0000
  S   S88       1.0  0.18990  0.77651  0.03806  1.0000
  C   C170      1.0  0.21731  0.61174  0.07928  1.0000
  H   H258      1.0  0.21655  0.83462  0.36010  1.0000
  H   H259      1.0  0.03261  0.54391  0.15860  1.0000
  H   H260      1.0  0.01646  0.50754  0.20296  1.0000
  C   C171      1.0  0.19755  0.59161  0.10138  1.0000
  C   C172      1.0  0.24578  0.65523  0.09406  1.0000
  C   C173      1.0  0.05820  0.95923  0.20587  1.0000
  C   C174      1.0  0.23081  0.64593  0.39350  1.0000
  C   C175      1.0  0.22817  0.64251  0.36458  1.0000
  H   H261      1.0  0.14811  0.87746  0.42550  1.0000
  S   S89       1.0  0.24340  0.65079  0.19055  1.0000
  H   H262      1.0  0.21595  0.63682  0.35776  1.0000
  C   C176      1.0  0.08923  0.99276  0.47008  1.0000
  H   H263      1.0  0.23886  0.64367  0.32224  1.0000
  S   S90       1.0  0.18918  0.82075  0.98794  1.0000
  H   H264      1.0  0.01686  0.54694  0.18668  1.0000
  C   C177      1.0  0.22913  0.65653  0.13782  1.0000
  C   C178      1.0  0.22965  0.65746  0.10815  1.0000
  H   H265      1.0  0.05379  0.99498  0.03980  1.0000
  H   H266      1.0  0.21661  0.65803  0.14867  1.0000
  H   H267      1.0  0.21762  0.65986  0.09622  1.0000
  H   H268      1.0  0.14662  0.85704  0.46670  1.0000
  H   H269      1.0  0.14151  0.86013  0.40225  1.0000
  H   H270      1.0  0.22337  0.73136  0.02846  1.0000
  H   H271      1.0  0.03487  0.98740  0.02105  1.0000
  H   H272      1.0  0.23555  0.86629  0.13506  1.0000
  C   C179      1.0  0.24795  0.70510  0.03384  1.0000
  H   H273      1.0  0.06338  0.97091  0.21693  1.0000
  C   C180      1.0  0.08959  0.51085  0.24855  1.0000
  C   C181      1.0  0.19247  0.62303  0.10651  1.0000
  C   C182      1.0  0.24473  0.65350  0.15357  1.0000
  H   H274      1.0  0.18626  0.85192  0.45613  1.0000
  H   H275      1.0  0.08938  0.53711  0.00563  1.0000
  H   H276      1.0  0.20937  0.60676  0.14937  1.0000
  C   C183      1.0  0.04500  0.94979  0.24929  1.0000
  C   C184      1.0  0.01054  0.53350  0.10416  1.0000
  H   H277      1.0  0.06757  0.95582  0.18856  1.0000
  C   C185      1.0  0.12344  0.58941  0.07065  1.0000
  C   C186      1.0  0.12432  0.60713  0.06185  1.0000
  C   C187      1.0  0.13998  0.61378  0.05023  1.0000
  C   C188      1.0  0.15504  0.60273  0.04695  1.0000
  C   C189      1.0  0.15416  0.58498  0.05574  1.0000
  C   C190      1.0  0.13857  0.57841  0.06770  1.0000
  H   H278      1.0  0.11275  0.61582  0.06397  1.0000
  H   H279      1.0  0.14032  0.62744  0.04364  1.0000
  H   H280      1.0  0.16563  0.57622  0.05328  1.0000
  H   H281      1.0  0.13825  0.56482  0.07463  1.0000
  H   H282      1.0  0.07316  0.92709  0.25086  1.0000
  H   H283      1.0  0.04320  0.93876  0.26440  1.0000
  H   H284      1.0  0.04001  0.95695  0.04023  1.0000
  H   H285      1.0  0.15854  0.83633  0.46590  1.0000
  C   C191      1.0  0.09852  0.56025  0.47657  1.0000
  C   C192      1.0  0.09247  0.98487  0.02580  1.0000
  C   C193      1.0  0.09647  0.96910  0.01148  1.0000
  H   H286      1.0  0.18892  0.58893  0.11976  1.0000
  H   H287      1.0  0.09887  0.95702  0.02327  1.0000
  N   N15       1.0  0.16310  0.85303  0.43008  1.0000
  C   C194      1.0  0.10225  0.97701  0.22676  1.0000
  H   H288      1.0  0.21921  0.73441  0.06534  1.0000
  C   C195      1.0  0.10247  0.98762  0.27588  1.0000
  C   C196      1.0  0.10763  0.97506  0.25514  1.0000
  H   H289      1.0  0.03166  0.95445  0.24187  1.0000
  H   H290      1.0  0.11589  0.96373  0.26116  1.0000
  C   C197      1.0  0.13358  0.89014  0.07861  1.0000
  C   C198      1.0  0.13754  0.87186  0.07661  1.0000
  C   C199      1.0  0.15151  0.86521  0.05945  1.0000
  C   C200      1.0  0.16181  0.87677  0.04404  1.0000
  C   C201      1.0  0.15780  0.89504  0.04589  1.0000
  C   C202      1.0  0.14384  0.90169  0.06306  1.0000
  H   H291      1.0  0.12964  0.86276  0.08834  1.0000
  H   H292      1.0  0.15416  0.85112  0.05794  1.0000
  H   H293      1.0  0.16559  0.90416  0.03405  1.0000
  H   H294      1.0  0.14104  0.91577  0.06432  1.0000
  C   C203      1.0  0.01686  0.94063  0.12508  1.0000
  H   H295      1.0  0.20932  0.61157  0.05955  1.0000
  S   S91       1.0  0.07717  0.50751  0.11718  1.0000
  H   H296      1.0  0.02714  0.92597  0.08951  1.0000
  C   C204      1.0  0.07397  0.93839  0.23602  1.0000
  H   H297      1.0  0.04120  0.54764  0.22184  1.0000
  C   C205      1.0  0.22931  0.72957  0.04985  1.0000
  H   H298      1.0  0.17715  0.82809  0.42469  1.0000
  H   H299      1.0  0.05669  0.99018  0.09086  1.0000
  H   H300      1.0  0.22801  0.60140  0.07718  1.0000
  H   H301      1.0  0.04680  0.91775  0.22405  1.0000
  H   H302      1.0  0.11844  0.57514  0.01709  1.0000
  H   H303      1.0  0.18398  0.62375  0.08725  1.0000
  H   H304      1.0  0.05578  0.50465  0.18985  1.0000
  S   S92       1.0  0.19157  0.81605  0.48122  1.0000
  S   S93       1.0  0.22827  0.80282  0.00267  1.0000
  C   C206      1.0  0.01540  0.93146  0.09962  1.0000
  N   N16       1.0  0.11428  0.54938  0.99976  1.0000
  S   S94       1.0  0.25081  0.85309  0.18661  1.0000
  N   N17       1.0  0.18594  0.86365  0.12808  1.0000
  C   C207      1.0  0.19710  0.86276  0.15377  1.0000
  C   C208      1.0  0.17594  0.88076  0.12724  1.0000
  C   C209      1.0  0.17345  0.84906  0.12845  1.0000
  C   C210      1.0  0.19727  0.86198  0.10282  1.0000
  H   H305      1.0  0.18896  0.86358  0.17326  1.0000
  H   H306      1.0  0.20646  0.87377  0.15453  1.0000
  H   H307      1.0  0.20520  0.85019  0.15476  1.0000
  H   H308      1.0  0.16685  0.88233  0.14556  1.0000
  H   H309      1.0  0.18493  0.89209  0.12736  1.0000
  H   H310      1.0  0.16769  0.88204  0.10783  1.0000
  H   H311      1.0  0.16486  0.84931  0.10935  1.0000
  H   H312      1.0  0.16459  0.84991  0.14713  1.0000
  H   H313      1.0  0.18058  0.83595  0.12898  1.0000
  H   H314      1.0  0.20501  0.84922  0.10279  1.0000
  H   H315      1.0  0.20682  0.87280  0.10166  1.0000
  H   H316      1.0  0.18928  0.86249  0.08303  1.0000
  C   C211      1.0  0.18373  0.72394  0.02582  1.0000
  C   C212      1.0  0.04819  0.92946  0.21021  1.0000
  C   C213      1.0  0.15312  0.86610  0.41258  1.0000
  C   C214      1.0  0.04497  0.96333  0.05970  1.0000
  H   H317      1.0  0.19893  0.71850  0.39091  1.0000
  H   H318      1.0  0.05756  0.52987  0.22325  1.0000
  C   C215      1.0  0.17834  0.86154  0.44327  1.0000
  S   S95       1.0  0.21775  0.62788  0.00525  1.0000
  H   H319      1.0  0.08788  0.56629  0.46305  1.0000
  C   C216      1.0  0.24303  0.83997  0.34626  1.0000
  H   H320      1.0  0.05090  0.96085  0.26120  1.0000
  H   H321      1.0  0.20746  0.58048  0.09950  1.0000
  C   C217      1.0  0.21738  0.60849  0.12996  1.0000
  H   H322      1.0  0.18749  0.86677  0.42714  1.0000
  C   C218      1.0  0.08263  0.50072  0.01336  1.0000
  S   S96       1.0  0.09108  0.98593  0.06307  1.0000
  S   S97       1.0  0.09011  0.99117  0.43294  1.0000
  N   N18       1.0  0.19489  0.69336  0.41047  1.0000
  C   C219      1.0  0.18489  0.67728  0.40500  1.0000
  C   C220      1.0  0.18918  0.70118  0.43766  1.0000
  C   C221      1.0  0.19148  0.70624  0.38751  1.0000
  C   C222      1.0  0.21402  0.68873  0.41178  1.0000
  H   H323      1.0  0.17048  0.68033  0.40265  1.0000
  H   H324      1.0  0.18650  0.66764  0.42261  1.0000
  H   H325      1.0  0.18960  0.67035  0.38554  1.0000
  H   H326      1.0  0.19623  0.71348  0.44247  1.0000
  H   H327      1.0  0.17473  0.70450  0.43787  1.0000
  H   H328      1.0  0.19183  0.69183  0.45540  1.0000
  H   H329      1.0  0.19556  0.70065  0.36669  1.0000
  H   H330      1.0  0.04320  0.95400  0.07753  1.0000
  H   H331      1.0  0.17718  0.71013  0.38607  1.0000
  H   H332      1.0  0.22199  0.70049  0.41623  1.0000
  H   H333      1.0  0.21882  0.68282  0.39157  1.0000
  H   H334      1.0  0.21702  0.67883  0.42863  1.0000
  H   H335      1.0  0.19845  0.63612  0.10913  1.0000
  H   H336      1.0  0.21336  0.70017  0.03137  1.0000
  C   C223      1.0  0.00822  0.55185  0.10639  1.0000
  H   H337      1.0  0.22448  0.62102  0.13237  1.0000
  H   H338      1.0  0.05626  0.92524  0.19163  1.0000
  H   H339      1.0  0.22762  0.59762  0.12926  1.0000
  H   H340      1.0  0.08316  0.96537  0.47487  1.0000
  H   H341      1.0  0.01340  0.96882  0.08492  1.0000
  C   C224      1.0  0.09100  0.50642  0.21974  1.0000
  H   H342      1.0  0.23284  0.71319  0.10024  1.0000
  H   H343      1.0  0.18906  0.59142  0.08215  1.0000
  H   H344      1.0  0.24243  0.70615  0.01206  1.0000
  H   H345      1.0  0.23682  0.85548  0.08552  1.0000
  S   S98       1.0  0.22277  0.84596  0.00104  1.0000
  H   H346      1.0  0.00903  0.99052  0.07097  1.0000
  H   H347      1.0  0.08775  0.50139  0.29161  1.0000
  H   H348      1.0  0.10871  0.57033  0.47992  1.0000
  N   N19       1.0  0.20619  0.60873  0.10431  1.0000
  N   N20       1.0  0.05633  0.94420  0.22536  1.0000
  C   C225      1.0  0.15145  0.84629  0.45235  1.0000
  H   H349      1.0  0.11373  0.53807  0.04140  1.0000
  C   C226      1.0  0.16955  0.83822  0.41213  1.0000
  H   H350      1.0  0.04534  0.96329  0.19593  1.0000
  H   H351      1.0  0.20856  0.70418  0.06796  1.0000
  H   H352      1.0  0.17408  0.87257  0.45745  1.0000
  H   H353      1.0  0.13971  0.83987  0.44329  1.0000
  H   H354      1.0  0.22371  0.62473  0.08027  1.0000
  H   H355      1.0  0.07510  0.50733  0.02981  1.0000
  C   C227      1.0  0.24266  0.85408  0.13022  1.0000
  H   H356      1.0  0.13453  0.54678  0.03160  1.0000
  C   C228      1.0  0.19489  0.75268  0.99381  1.0000
  H   H357      1.0  0.03481  0.93336  0.20194  1.0000
  C   C229      1.0  0.18447  0.74089  0.03788  1.0000
  H   H358      1.0  0.08056  0.94927  0.24730  1.0000
  C   C230      1.0  0.12294  0.53970  0.02342  1.0000
  H   H359      1.0  0.24686  0.69516  0.08812  1.0000
  H   H360      1.0  0.10678  0.98591  0.29752  1.0000
  C   C231      1.0  0.04857  0.53764  0.20890  1.0000
  N   N21       1.0  0.23474  0.71092  0.05510  1.0000
  Fe  Fe47      1.0  0.19456  0.67365  0.99661  1.0000
  H   H361      1.0  0.15848  0.83151  0.40158  1.0000
  C   C232      1.0  0.23358  0.83884  0.39590  1.0000
  C   C233      1.0  0.22982  0.83750  0.36682  1.0000
  C   C234      1.0  0.18994  0.75538  0.02195  1.0000
  Fe  Fe48      1.0  0.20087  0.80192  0.02039  1.0000
  N   N22       1.0  0.03572  0.98047  0.06507  1.0000
  C   C235      1.0  0.02564  0.51646  0.21396  1.0000
  H   H362      1.0  0.05720  0.54482  0.19409  1.0000
  C   C236      1.0  0.01649  0.97784  0.06716  1.0000
  H   H363      1.0  0.17872  0.84280  0.39550  1.0000
  N   N23       1.0  0.03647  0.52606  0.19355  1.0000
  H   H364      1.0  0.17886  0.71309  0.03807  1.0000
  C   C237      1.0  0.24337  0.84799  0.10219  1.0000
  H   H365      1.0  0.18041  0.74290  0.05955  1.0000
  H   H366      1.0  0.01963  0.56008  0.10626  1.0000
  H   H367      1.0  0.00235  0.95442  0.15791  1.0000
  C   C238      1.0  0.18827  0.72132  0.99752  1.0000
  S   S99       1.0  0.24709  0.65558  0.05687  1.0000
  H   H368      1.0  0.01116  0.97185  0.04760  1.0000
  H   H369      1.0  0.08757  0.99370  0.19768  1.0000
  H   H370      1.0  0.01751  0.52575  0.22716  1.0000
  H   H371      1.0  0.01542  0.52852  0.16303  1.0000
  H   H372      1.0  0.24900  0.65603  0.42399  1.0000
  C   C239      1.0  0.24117  0.64638  0.34434  1.0000
  S   S100      1.0  0.22334  0.66874  0.98729  1.0000
  C   C240      1.0  0.02482  0.53686  0.17475  1.0000
  S   S101      1.0  0.18019  0.64905  0.47846  1.0000
  H   H373      1.0  0.24071  0.73843  0.05135  1.0000
  C   C241      1.0  0.10752  0.56682  0.00968  1.0000
  H   H374      1.0  0.10484  0.54913  0.46444  1.0000
  H   H375      1.0  0.22268  0.68575  0.05788  1.0000
  H   H376      1.0  0.11750  0.50474  0.47718  1.0000
  C   C242      1.0  0.03933  0.99273  0.04166  1.0000
  C   C243      1.0  0.08944  0.00045  0.01020  1.0000
  C   C244      1.0  0.09941  0.53916  0.98893  1.0000
  H   H377      1.0  0.13582  0.95971  0.48056  1.0000
  H   H378      1.0  0.03411  0.50819  0.22842  1.0000
  C   C245      1.0  0.25083  0.84266  0.40409  1.0000
  C   C246      1.0  0.25159  0.84473  0.15183  1.0000
  H   H379      1.0  0.13864  0.55956  0.98446  1.0000
  Fe  Fe49      1.0  0.06500  0.93931  0.60549  1.0000
  S   S102      1.0  0.06710  0.96637  0.62397  1.0000
  S   S103      1.0  0.03874  0.93153  0.58594  1.0000
  Fe  Fe50      1.0  0.10596  0.93231  0.60522  1.0000
  S   S104      1.0  0.11010  0.95927  0.62446  1.0000
  S   S105      1.0  0.13236  0.91868  0.59076  1.0000
  Fe  Fe51      1.0  0.08734  0.95407  0.65370  1.0000
  S   S106      1.0  0.08443  0.95791  0.70193  1.0000
  Fe  Fe52      1.0  0.08946  0.96914  0.59340  1.0000
  C   C247      1.0  0.08213  0.98681  0.77503  1.0000
  S   S107      1.0  0.08426  0.92630  0.63644  1.0000
  S   S108      1.0  0.08639  0.94283  0.57314  1.0000
  Fe  Fe53      1.0  0.09007  0.52037  0.65159  1.0000
  S   S109      1.0  0.07767  0.54758  0.64516  1.0000
  S   S110      1.0  0.09954  0.51462  0.69716  1.0000
  H   H380      1.0  0.12839  0.95011  0.86629  1.0000
  S   S111      1.0  0.06851  0.53689  0.58038  1.0000
  H   H381      1.0  0.21149  0.85241  0.58387  1.0000
  Fe  Fe54      1.0  0.09188  0.54833  0.60326  1.0000
  S   S112      1.0  0.10299  0.57422  0.58561  1.0000
  Fe  Fe55      1.0  0.05563  0.53402  0.62277  1.0000
  S   S113      1.0  0.02750  0.53796  0.63972  1.0000
  S   S114      1.0  0.10606  0.52206  0.61111  1.0000
  H   H382      1.0  0.07226  0.57566  0.50687  1.0000
  Fe  Fe56      1.0  0.18612  0.63044  0.51492  1.0000
  C   C248      1.0  0.09034  0.99335  0.52970  1.0000
  S   S115      1.0  0.17335  0.60465  0.52971  1.0000
  Fe  Fe57      1.0  0.19001  0.67080  0.50650  1.0000
  C   C249      1.0  0.17967  0.87008  0.62677  1.0000
  H   H383      1.0  0.17915  0.76275  0.51826  1.0000
  Fe  Fe58      1.0  0.21498  0.64412  0.96554  1.0000
  S   S116      1.0  0.22268  0.63493  0.92083  1.0000
  Fe  Fe59      1.0  0.22096  0.64855  0.52725  1.0000
  H   H384      1.0  0.19907  0.67839  0.93782  1.0000
  H   H385      1.0  0.16400  0.73408  0.51805  1.0000
  S   S117      1.0  0.19350  0.65260  0.54403  1.0000
  Fe  Fe60      1.0  0.18776  0.83573  0.51690  1.0000
  S   S118      1.0  0.06761  0.50695  0.63071  1.0000
  S   S119      1.0  0.16022  0.84796  0.52718  1.0000
  Fe  Fe61      1.0  0.20990  0.80046  0.51001  1.0000
  H   H386      1.0  0.04828  0.96776  0.50363  1.0000
  H   H387      1.0  0.05299  0.96277  0.55464  1.0000
  Fe  Fe62      1.0  0.22672  0.83403  0.53124  1.0000
  C   C250      1.0  0.23642  0.63625  0.86691  1.0000
  C   C251      1.0  0.24942  0.65615  0.90020  1.0000
  H   H388      1.0  0.13030  0.93375  0.53140  1.0000
  S   S120      1.0  0.20400  0.81854  0.54696  1.0000
  H   H389      1.0  0.20361  0.87324  0.96861  1.0000
  C   C252      1.0  0.04498  0.97507  0.55886  1.0000
  H   H390      1.0  0.00929  0.96530  0.51881  1.0000
  H   H391      1.0  0.21717  0.70154  0.87565  1.0000
  C   C253      1.0  0.23399  0.82413  0.86994  1.0000
  C   C254      1.0  0.23492  0.69826  0.60690  1.0000
  H   H392      1.0  0.22402  0.81477  0.86459  1.0000
  H   H393      1.0  0.21625  0.65050  0.59524  1.0000
  C   C255      1.0  0.12726  0.55183  0.97697  1.0000
  C   C256      1.0  0.19390  0.86739  0.89929  1.0000
  H   H394      1.0  0.22467  0.61310  0.62701  1.0000
  S   S121      1.0  0.09692  0.98434  0.92894  1.0000
  H   H395      1.0  0.10400  0.52588  0.98134  1.0000
  Fe  Fe63      1.0  0.21722  0.82326  0.97210  1.0000
  H   H396      1.0  0.21914  0.67285  0.91981  1.0000
  H   H397      1.0  0.21334  0.69554  0.92722  1.0000
  H   H398      1.0  0.22720  0.62603  0.86222  1.0000
  N   N24       1.0  0.22726  0.70372  0.57937  1.0000
  H   H399      1.0  0.10747  0.98484  0.86876  1.0000
  H   H400      1.0  0.20945  0.57284  0.59059  1.0000
  C   C257      1.0  0.22857  0.64998  0.60677  1.0000
  H   H401      1.0  0.03079  0.98256  0.49163  1.0000
  H   H402      1.0  0.11617  0.95640  0.50058  1.0000
  H   H403      1.0  0.20721  0.69519  0.55059  1.0000
  H   H404      1.0  0.20422  0.68990  0.85021  1.0000
  H   H405      1.0  0.22457  0.69733  0.62343  1.0000
  S   S122      1.0  0.21027  0.85210  0.50290  1.0000
  H   H406      1.0  0.11263  0.53482  0.50978  1.0000
  H   H407      1.0  0.17474  0.69448  0.91307  1.0000
  H   H408      1.0  0.19706  0.73397  0.95954  1.0000
  C   C258      1.0  0.18754  0.71837  0.50868  1.0000
  H   H409      1.0  0.18985  0.58326  0.57593  1.0000
  N   N25       1.0  0.18971  0.86981  0.92952  1.0000
  S   S123      1.0  0.18515  0.70076  0.98059  1.0000
  H   H410      1.0  0.04336  0.51819  0.76198  1.0000
  C   C259      1.0  0.24526  0.83027  0.84861  1.0000
  N   N26       1.0  0.10327  0.95954  0.84992  1.0000
  H   H411      1.0  0.18852  0.85682  0.57653  1.0000
  Fe  Fe64      1.0  0.08216  0.51076  0.58992  1.0000
  H   H412      1.0  0.01719  0.52773  0.69671  1.0000
  H   H413      1.0  0.11241  0.95637  0.89266  1.0000
  C   C260      1.0  0.04354  0.50308  0.69448  1.0000
  C   C261      1.0  0.12299  0.58243  0.57107  1.0000
  C   C262      1.0  0.12361  0.60047  0.56390  1.0000
  C   C263      1.0  0.13884  0.60756  0.55152  1.0000
  C   C264      1.0  0.15369  0.59665  0.54572  1.0000
  C   C265      1.0  0.15305  0.57859  0.55283  1.0000
  C   C266      1.0  0.13793  0.57156  0.56560  1.0000
  H   H414      1.0  0.11220  0.60907  0.56799  1.0000
  H   H415      1.0  0.13899  0.62144  0.54624  1.0000
  H   H416      1.0  0.16433  0.56991  0.54831  1.0000
  H   H417      1.0  0.13777  0.55768  0.57094  1.0000
  H   H418      1.0  0.02677  0.95071  0.53184  1.0000
  H   H419      1.0  0.20782  0.60597  0.55431  1.0000
  C   C267      1.0  0.09843  0.98941  0.72205  1.0000
  H   H420      1.0  0.01744  0.54787  0.58164  1.0000
  H   H421      1.0  0.11623  0.55594  0.52546  1.0000
  H   H422      1.0  0.09309  0.57938  0.52398  1.0000
  H   H423      1.0  0.18547  0.89794  0.92634  1.0000
  H   H424      1.0  0.22837  0.81562  0.64738  1.0000
  C   C268      1.0  0.01946  0.96350  0.53567  1.0000
  S   S124      1.0  0.24692  0.84570  0.56086  1.0000
  C   C269      1.0  0.08757  0.97515  0.72717  1.0000
  C   C270      1.0  0.07948  0.97398  0.75386  1.0000
  C   C271      1.0  0.14284  0.94084  0.52850  1.0000
  H   H425      1.0  0.15125  0.93767  0.54728  1.0000
  C   C272      1.0  0.21906  0.72165  0.58176  1.0000
  H   H426      1.0  0.16470  0.96685  0.54261  1.0000
  C   C273      1.0  0.13952  0.89905  0.57237  1.0000
  C   C274      1.0  0.15737  0.89719  0.56400  1.0000
  C   C275      1.0  0.16387  0.88183  0.54993  1.0000
  C   C276      1.0  0.15268  0.86790  0.54436  1.0000
  C   C277      1.0  0.13478  0.86987  0.55233  1.0000
  C   C278      1.0  0.12823  0.88530  0.56616  1.0000
  H   H427      1.0  0.16623  0.90775  0.56841  1.0000
  H   H428      1.0  0.17751  0.88080  0.54324  1.0000
  H   H429      1.0  0.12589  0.85930  0.54801  1.0000
  H   H430      1.0  0.11448  0.88642  0.57236  1.0000
  C   C279      1.0  0.01765  0.93389  0.60221  1.0000
  C   C280      1.0  0.01577  0.93783  0.63089  1.0000
  H   H431      1.0  0.16731  0.85303  0.92842  1.0000
  H   H432      1.0  0.02741  0.93960  0.64378  1.0000
  S   S125      1.0  0.24361  0.64973  0.68904  1.0000
  H   H433      1.0  0.16999  0.87373  0.60979  1.0000
  H   H434      1.0  0.19899  0.76375  0.98127  1.0000
  C   C281      1.0  0.20336  0.88459  0.60291  1.0000
  H   H435      1.0  0.20336  0.89541  0.61878  1.0000
  H   H436      1.0  0.21697  0.88320  0.59398  1.0000
  H   H437      1.0  0.19436  0.88887  0.58546  1.0000
  H   H438      1.0  0.17516  0.85766  0.63657  1.0000
  H   H439      1.0  0.17877  0.88065  0.64305  1.0000
  H   H440      1.0  0.21284  0.72604  0.56151  1.0000
  H   H441      1.0  0.13706  0.96339  0.57071  1.0000
  C   C282      1.0  0.21420  0.73513  0.50328  1.0000
  N   N27       1.0  0.13944  0.96009  0.52569  1.0000
  C   C283      1.0  0.20631  0.87130  0.94569  1.0000
  S   S126      1.0  0.23379  0.81520  0.49600  1.0000
  H   H442      1.0  0.16590  0.88537  0.92170  1.0000
  H   H443      1.0  0.22731  0.82151  0.59597  1.0000
  H   H444      1.0  0.08385  0.96599  0.52707  1.0000
  H   H445      1.0  0.21495  0.85919  0.94335  1.0000
  H   H446      1.0  0.01115  0.99780  0.52650  1.0000
  C   C284      1.0  0.17858  0.88602  0.93355  1.0000
  H   H447      1.0  0.21145  0.59667  0.64312  1.0000
  H   H448      1.0  0.07307  0.53495  0.51829  1.0000
  C   C285      1.0  0.00235  0.93149  0.58585  1.0000
  C   C286      1.0  0.24830  0.84221  0.90451  1.0000
  H   H449      1.0  0.00364  0.92823  0.56373  1.0000
  N   N28       1.0  0.03159  0.97838  0.53656  1.0000
  H   H450      1.0  0.07096  0.96311  0.75806  1.0000
  S   S127      1.0  0.18588  0.64936  0.97325  1.0000
  H   H451      1.0  0.25054  0.66135  0.92135  1.0000
  N   N29       1.0  0.20650  0.60071  0.59879  1.0000
  C   C287      1.0  0.19200  0.61391  0.60382  1.0000
  C   C288      1.0  0.21855  0.60011  0.62343  1.0000
  C   C289      1.0  0.21646  0.60562  0.57334  1.0000
  C   C290      1.0  0.19894  0.58317  0.59449  1.0000
  H   H452      1.0  0.17704  0.85562  0.96270  1.0000
  C   C291      1.0  0.18657  0.75061  0.51380  1.0000
  H   H453      1.0  0.09255  0.54599  0.97100  1.0000
  H   H454      1.0  0.13263  0.53891  0.96904  1.0000
  S   S128      1.0  0.17646  0.69806  0.51000  1.0000
  C   C292      1.0  0.02145  0.99492  0.54286  1.0000
  H   H455      1.0  0.24769  0.69021  0.55540  1.0000
  H   H456      1.0  0.12293  0.97877  0.84155  1.0000
  S   S129      1.0  0.21801  0.66809  0.49158  1.0000
  H   H457      1.0  0.11019  0.93609  0.87362  1.0000
  H   H458      1.0  0.21404  0.88266  0.93842  1.0000
  H   H459      1.0  0.10107  0.95687  0.97087  1.0000
  C   C293      1.0  0.10887  0.97800  0.84806  1.0000
  C   C294      1.0  0.10570  0.95087  0.82219  1.0000
  H   H460      1.0  0.10079  0.98567  0.83236  1.0000
  H   H461      1.0  0.12116  0.55908  0.95875  1.0000
  H   H462      1.0  0.10156  0.93692  0.82270  1.0000
  H   H463      1.0  0.11975  0.95092  0.81532  1.0000
  H   H464      1.0  0.09771  0.95779  0.80549  1.0000
  N   N30       1.0  0.19845  0.68398  0.89354  1.0000
  C   C295      1.0  0.19077  0.66679  0.88678  1.0000
  C   C296      1.0  0.21094  0.68875  0.87108  1.0000
  H   H465      1.0  0.10483  0.99052  0.70179  1.0000
  C   C297      1.0  0.18413  0.69767  0.89584  1.0000
  H   H466      1.0  0.17645  0.69901  0.87586  1.0000
  C   C298      1.0  0.23706  0.82774  0.60892  1.0000
  H   H467      1.0  0.18301  0.66741  0.86683  1.0000
  C   C299      1.0  0.21366  0.69122  0.57085  1.0000
  H   H468      1.0  0.24388  0.82566  0.82715  1.0000
  H   H469      1.0  0.06539  0.52842  0.71124  1.0000
  C   C300      1.0  0.23545  0.82997  0.89805  1.0000
  H   H470      1.0  0.18191  0.66235  0.90391  1.0000
  H   H471      1.0  0.01840  0.53158  0.73400  1.0000
  C   C301      1.0  0.05100  0.53194  0.71141  1.0000
  H   H472      1.0  0.21310  0.70684  0.49857  1.0000
  H   H473      1.0  0.18948  0.71081  0.90100  1.0000
  C   C302      1.0  0.24870  0.83950  0.59678  1.0000
  H   H474      1.0  0.01290  0.51015  0.72087  1.0000
  H   H475      1.0  0.05428  0.98611  0.56060  1.0000
  H   H476      1.0  0.07773  0.56500  0.53973  1.0000
  H   H477      1.0  0.07584  0.96648  0.84233  1.0000
  S   S130      1.0  0.21427  0.62542  0.50002  1.0000
  H   H478      1.0  0.16415  0.96425  0.50487  1.0000
  H   H479      1.0  0.24838  0.76809  0.67859  1.0000
  H   H480      1.0  0.19116  0.57906  0.61313  1.0000
  H   H481      1.0  0.04877  0.54233  0.72768  1.0000
  H   H482      1.0  0.19715  0.62726  0.60758  1.0000
  H   H483      1.0  0.06636  0.54646  0.48667  1.0000
  C   C303      1.0  0.07798  0.54071  0.49830  1.0000
  H   H484      1.0  0.18282  0.61492  0.58543  1.0000
  C   C304      1.0  0.12867  0.96372  0.50013  1.0000
  N   N31       1.0  0.19782  0.86783  0.61556  1.0000
  C   C305      1.0  0.19821  0.85387  0.59378  1.0000
  C   C306      1.0  0.21014  0.86278  0.63871  1.0000
  H   H485      1.0  0.20988  0.87277  0.65591  1.0000
  H   H486      1.0  0.22403  0.86150  0.63106  1.0000
  H   H487      1.0  0.12757  0.98132  0.55009  1.0000
  C   C307      1.0  0.09480  0.98470  0.96620  1.0000
  C   C308      1.0  0.20478  0.75107  0.50888  1.0000
  H   H488      1.0  0.20128  0.87869  0.89084  1.0000
  H   H489      1.0  0.18797  0.84193  0.93660  1.0000
  S   S131      1.0  0.25013  0.82817  0.69193  1.0000
  C   C309      1.0  0.20564  0.71891  0.50298  1.0000
  H   H490      1.0  0.08213  0.96568  0.87893  1.0000
  N   N32       1.0  0.09141  0.55406  0.50372  1.0000
  H   H491      1.0  0.20847  0.72214  0.59801  1.0000
  H   H492      1.0  0.17521  0.88798  0.95629  1.0000
  C   C310      1.0  0.11407  0.95006  0.87151  1.0000
  C   C311      1.0  0.12981  0.96672  0.55082  1.0000
  C   C312      1.0  0.08441  0.95929  0.85800  1.0000
  H   H493      1.0  0.03896  0.50820  0.67359  1.0000
  C   C313      1.0  0.15640  0.96909  0.52340  1.0000
  H   H494      1.0  0.20303  0.69037  0.58691  1.0000
  S   S132      1.0  0.22045  0.82195  0.92374  1.0000
  H   H495      1.0  0.14962  0.93520  0.50962  1.0000
  H   H496      1.0  0.11659  0.96087  0.55246  1.0000
  H   H497      1.0  0.07971  0.94558  0.85954  1.0000
  S   S133      1.0  0.09227  0.99388  0.56690  1.0000
  H   H498      1.0  0.10383  0.51433  0.75751  1.0000
  C   C314      1.0  0.10599  0.54614  0.52083  1.0000
  H   H499      1.0  0.22760  0.59605  0.56904  1.0000
  H   H500      1.0  0.22218  0.61888  0.57548  1.0000
  H   H501      1.0  0.22956  0.59017  0.62048  1.0000
  H   H502      1.0  0.07554  0.98580  0.79513  1.0000
  H   H503      1.0  0.10117  0.54130  0.54153  1.0000
  H   H504      1.0  0.22827  0.73537  0.49931  1.0000
  C   C315      1.0  0.08637  0.97784  0.51542  1.0000
  H   H505      1.0  0.21602  0.65082  0.64764  1.0000
  C   C316      1.0  0.22847  0.65025  0.63644  1.0000
  H   H506      1.0  0.18398  0.61039  0.62251  1.0000
  H   H507      1.0  0.06250  0.50526  0.98162  1.0000
  C   C317      1.0  0.08323  0.56919  0.51913  1.0000
  H   H508      1.0  0.20684  0.84986  0.64823  1.0000
  H   H509      1.0  0.19494  0.84082  0.60279  1.0000
  C   C318      1.0  0.24738  0.64249  0.84521  1.0000
  H   H510      1.0  0.20127  0.65627  0.88412  1.0000
  H   H511      1.0  0.22185  0.67856  0.86890  1.0000
  C   C319      1.0  0.17803  0.73432  0.51376  1.0000
  C   C320      1.0  0.18007  0.85444  0.93976  1.0000
  C   C321      1.0  0.00687  0.54037  0.62180  1.0000
  C   C322      1.0  0.23776  0.82434  0.63808  1.0000
  N   N33       1.0  0.04033  0.51631  0.71694  1.0000
  C   C323      1.0  0.23732  0.64302  0.89455  1.0000
  H   H512      1.0  0.04771  0.53793  0.69052  1.0000
  H   H513      1.0  0.20234  0.85520  0.89587  1.0000
  S   S134      1.0  0.21679  0.77074  0.51142  1.0000
  H   H514      1.0  0.01241  0.96209  0.55609  1.0000
  C   C324      1.0  0.20796  0.68267  0.92074  1.0000
  H   H515      1.0  0.11029  0.50402  0.52840  1.0000
  H   H516      1.0  0.03869  0.97334  0.57985  1.0000
  H   H517      1.0  0.21956  0.67774  0.56776  1.0000
  S   S135      1.0  0.24539  0.64913  0.55493  1.0000
  H   H518      1.0  0.18170  0.86607  0.88640  1.0000
  C   C325      1.0  0.24462  0.64915  0.59219  1.0000
  C   C326      1.0  0.02136  0.52167  0.71723  1.0000
  C   C327      1.0  0.00555  0.54566  0.59355  1.0000
  C   C328      1.0  0.24140  0.70366  0.55790  1.0000
  H   H519      1.0  0.24485  0.70769  0.61444  1.0000
  C   C329      1.0  0.24440  0.64981  0.65180  1.0000
  H   H520      1.0  0.24824  0.79135  0.67151  1.0000
  H   H521      1.0  0.22898  0.73157  0.58749  1.0000
  H   H522      1.0  0.23614  0.70776  0.53688  1.0000
  C   C330      1.0  0.04048  0.98002  0.50900  1.0000
  C   C331      1.0  0.25039  0.83230  0.65526  1.0000
  H   H523      1.0  0.24654  0.63707  0.82415  1.0000
  H   H524      1.0  0.24962  0.84691  0.92594  1.0000
  H   H525      1.0  0.24180  0.68508  0.60554  1.0000
  H   H526      1.0  0.04980  0.99111  0.50903  1.0000
  H   H527      1.0  0.01464  0.99411  0.56360  1.0000
  C   C332      1.0  0.19384  0.73577  0.98159  1.0000
  H   H528      1.0  0.08346  0.52956  0.48540  1.0000
  H   H529      1.0  0.12497  0.97804  0.49814  1.0000
  H   H530      1.0  0.05970  0.50431  0.74484  1.0000
  C   C333      1.0  0.04547  0.50855  0.74452  1.0000
  H   H531      1.0  0.15418  0.98362  0.52089  1.0000
  C   C334      1.0  0.09833  0.50182  0.75179  1.0000
  C   C335      1.0  0.09773  0.96906  0.98178  1.0000
  C   C336      1.0  0.09052  0.00037  0.98057  1.0000
  C   C337      1.0  0.08590  0.97753  0.48577  1.0000
  Fe  Fe65      1.0  0.26385  0.15723  0.27530  1.0000
  S   S136      1.0  0.29197  0.15758  0.29096  1.0000
  H   H532      1.0  0.34486  0.15544  0.30001  1.0000
  Fe  Fe66      1.0  0.27373  0.15524  0.21263  1.0000
  S   S137      1.0  0.30282  0.15480  0.22346  1.0000
  S   S138      1.0  0.39972  0.49398  0.31179  1.0000
  Fe  Fe67      1.0  0.29709  0.13609  0.25907  1.0000
  S   S139      1.0  0.31301  0.11035  0.26843  1.0000
  Fe  Fe68      1.0  0.29601  0.17636  0.25463  1.0000
  S   S140      1.0  0.31455  0.19938  0.25426  1.0000
  S   S141      1.0  0.26847  0.13453  0.24539  1.0000
  S   S142      1.0  0.26748  0.17790  0.24203  1.0000
  Fe  Fe69      1.0  0.27880  0.32922  0.21783  1.0000
  S   S143      1.0  0.30544  0.31804  0.23200  1.0000
  S   S144      1.0  0.26549  0.32098  0.17609  1.0000
  Fe  Fe70      1.0  0.26931  0.33969  0.27975  1.0000
  S   S145      1.0  0.29501  0.32903  0.29757  1.0000
  H   H533      1.0  0.28229  0.26553  0.14718  1.0000
  Fe  Fe71      1.0  0.30702  0.34249  0.25996  1.0000
  S   S146      1.0  0.33197  0.35929  0.26026  1.0000
  Fe  Fe72      1.0  0.29140  0.30572  0.26857  1.0000
  S   S147      1.0  0.28672  0.27762  0.28364  1.0000
  S   S148      1.0  0.28107  0.35431  0.24329  1.0000
  S   S149      1.0  0.26500  0.31591  0.25328  1.0000
  Fe  Fe73      1.0  0.39506  0.02690  0.40807  1.0000
  S   S150      1.0  0.40534  0.05410  0.40154  1.0000
  S   S151      1.0  0.38686  0.02120  0.45387  1.0000
  Fe  Fe74      1.0  0.40238  0.01782  0.34556  1.0000
  S   S152      1.0  0.41353  0.04431  0.33570  1.0000
  H   H534      1.0  0.41674  0.02397  0.01196  1.0000
  Fe  Fe75      1.0  0.42768  0.04105  0.37742  1.0000
  S   S153      1.0  0.45614  0.04226  0.39305  1.0000
  Fe  Fe76      1.0  0.38996  0.05517  0.36049  1.0000
  S   S154      1.0  0.37498  0.08171  0.35162  1.0000
  S   S155      1.0  0.41793  0.01395  0.38567  1.0000
  S   S156      1.0  0.37811  0.02862  0.36852  1.0000
  Fe  Fe77      1.0  0.38817  0.43293  0.35365  1.0000
  S   S157      1.0  0.38192  0.46052  0.37021  1.0000
  S   S158      1.0  0.36694  0.41166  0.35034  1.0000
  Fe  Fe78      1.0  0.42843  0.43942  0.35313  1.0000
  S   S159      1.0  0.42495  0.46719  0.36889  1.0000
  S   S160      1.0  0.45459  0.42483  0.34304  1.0000
  Fe  Fe79      1.0  0.40526  0.45684  0.39984  1.0000
  S   S161      1.0  0.40842  0.46079  0.44787  1.0000
  Fe  Fe80      1.0  0.40207  0.46899  0.33823  1.0000
  H   H535      1.0  0.45738  0.05386  0.45360  1.0000
  S   S162      1.0  0.41011  0.42865  0.38558  1.0000
  S   S163      1.0  0.40692  0.44188  0.32002  1.0000
  C   C338      1.0  0.39383  0.49335  0.46606  1.0000
  H   H536      1.0  0.44831  0.02321  0.45020  1.0000
  C   C339      1.0  0.27146  0.27006  0.16157  1.0000
  H   H537      1.0  0.29041  0.36213  0.03365  1.0000
  C   C340      1.0  0.42986  0.46684  0.18580  1.0000
  C   C341      1.0  0.29314  0.12280  0.34736  1.0000
  H   H538      1.0  0.32869  0.16304  0.27452  1.0000
  C   C342      1.0  0.26180  0.27370  0.20980  1.0000
  C   C343      1.0  0.38964  0.47818  0.26185  1.0000
  C   C344      1.0  0.38627  0.47831  0.23263  1.0000
  C   C345      1.0  0.26178  0.34650  0.38613  1.0000
  C   C346      1.0  0.29234  0.27773  0.19775  1.0000
  H   H539      1.0  0.38737  0.46645  0.27417  1.0000
  H   H540      1.0  0.38147  0.46658  0.22255  1.0000
  H   H541      1.0  0.49060  0.41258  0.33279  1.0000
  H   H542      1.0  0.27917  0.38275  0.02506  1.0000
  C   C347      1.0  0.47529  0.43432  0.35067  1.0000
  S   S164      1.0  0.38509  0.49295  0.17971  1.0000
  H   H543      1.0  0.40910  0.05168  0.46721  1.0000
  N   N34       1.0  0.27076  0.36050  0.00096  1.0000
  H   H544      1.0  0.28683  0.13607  0.35105  1.0000
  H   H545      1.0  0.26887  0.24038  0.19209  1.0000
  H   H546      1.0  0.26630  0.35564  0.14735  1.0000
  H   H547      1.0  0.28409  0.24613  0.21931  1.0000
  H   H548      1.0  0.35419  0.13085  0.26704  1.0000
  C   C348      1.0  0.41190  0.49514  0.01529  1.0000
  C   C349      1.0  0.47590  0.04586  0.37415  1.0000
  H   H549      1.0  0.28999  0.29197  0.19272  1.0000
  C   C350      1.0  0.47584  0.05357  0.34732  1.0000
  H   H550      1.0  0.25437  0.17381  0.11243  1.0000
  H   H551      1.0  0.46347  0.05792  0.33768  1.0000
  C   C351      1.0  0.34090  0.37441  0.28532  1.0000
  C   C352      1.0  0.33466  0.37592  0.31303  1.0000
  C   C353      1.0  0.34261  0.38756  0.33231  1.0000
  C   C354      1.0  0.35675  0.39810  0.32425  1.0000
  C   C355      1.0  0.36289  0.39673  0.29644  1.0000
  C   C356      1.0  0.35511  0.38490  0.27727  1.0000
  H   H552      1.0  0.32383  0.36798  0.31975  1.0000
  H   H553      1.0  0.33773  0.38838  0.35372  1.0000
  H   H554      1.0  0.37367  0.40471  0.28969  1.0000
  H   H555      1.0  0.36007  0.38393  0.25594  1.0000
  C   C357      1.0  0.33019  0.10272  0.29197  1.0000
  C   C358      1.0  0.33762  0.11360  0.31238  1.0000
  C   C359      1.0  0.35123  0.10691  0.33036  1.0000
  C   C360      1.0  0.35757  0.08923  0.32844  1.0000
  C   C361      1.0  0.34999  0.07831  0.30822  1.0000
  C   C362      1.0  0.33644  0.08503  0.29015  1.0000
  H   H556      1.0  0.33296  0.12717  0.31432  1.0000
  H   H557      1.0  0.35692  0.11548  0.34596  1.0000
  H   H558      1.0  0.35467  0.06471  0.30638  1.0000
  H   H559      1.0  0.33083  0.07642  0.27453  1.0000
  C   C363      1.0  0.30647  0.22119  0.26129  1.0000
  C   C364      1.0  0.31700  0.23562  0.25493  1.0000
  C   C365      1.0  0.31111  0.25307  0.26111  1.0000
  C   C366      1.0  0.29472  0.25618  0.27413  1.0000
  C   C367      1.0  0.28421  0.24174  0.28038  1.0000
  C   C368      1.0  0.28994  0.22437  0.27374  1.0000
  H   H560      1.0  0.32986  0.23329  0.24546  1.0000
  H   H561      1.0  0.31945  0.26403  0.25657  1.0000
  H   H562      1.0  0.27158  0.24399  0.29064  1.0000
  H   H563      1.0  0.28176  0.21340  0.27895  1.0000
  N   N35       1.0  0.35481  0.15868  0.25791  1.0000
  C   C369      1.0  0.38916  0.49346  0.21645  1.0000
  H   H564      1.0  0.43124  0.47910  0.99252  1.0000
  C   C370      1.0  0.43941  0.48062  0.22895  1.0000
  C   C371      1.0  0.35150  0.14029  0.24942  1.0000
  H   H565      1.0  0.43072  0.46652  0.16235  1.0000
  H   H566      1.0  0.43592  0.01612  0.30985  1.0000
  H   H567      1.0  0.27397  0.34443  0.34506  1.0000
  H   H568      1.0  0.27413  0.34437  0.39742  1.0000
  C   C372      1.0  0.25843  0.34691  0.13485  1.0000
  H   H569      1.0  0.35370  0.18467  0.23945  1.0000
  C   C373      1.0  0.45012  0.01905  0.31297  1.0000
  H   H570      1.0  0.26526  0.27210  0.23256  1.0000
  H   H571      1.0  0.39792  0.02398  0.22542  1.0000
  H   H572      1.0  0.26755  0.16025  0.39297  1.0000
  H   H573      1.0  0.26693  0.16145  0.34059  1.0000
  H   H574      1.0  0.34455  0.17791  0.28758  1.0000
  H   H575      1.0  0.44444  0.06975  0.47368  1.0000
  H   H576      1.0  0.49183  0.06232  0.31264  1.0000
  H   H577      1.0  0.37624  0.17359  0.27422  1.0000
  H   H578      1.0  0.29779  0.09170  0.32087  1.0000
  H   H579      1.0  0.26804  0.36633  0.04510  1.0000
  C   C374      1.0  0.25519  0.15881  0.38179  1.0000
  N   N36       1.0  0.43584  0.04301  0.47674  1.0000
  H   H580      1.0  0.35877  0.06257  0.99465  1.0000
  H   H581      1.0  0.30176  0.11963  0.36589  1.0000
  H   H582      1.0  0.26849  0.28426  0.15682  1.0000
  H   H583      1.0  0.42972  0.01581  0.47016  1.0000
  H   H584      1.0  0.25891  0.33884  0.02227  1.0000
  C   C375      1.0  0.47624  0.45069  0.36411  1.0000
  C   C376      1.0  0.43639  0.49777  0.18612  1.0000
  N   N37       1.0  0.41271  0.37921  0.33963  1.0000
  C   C377      1.0  0.41048  0.38338  0.36990  1.0000
  C   C378      1.0  0.39806  0.36818  0.33015  1.0000
  C   C379      1.0  0.42983  0.36963  0.33534  1.0000
  C   C380      1.0  0.41248  0.39577  0.32316  1.0000
  H   H585      1.0  0.42147  0.39144  0.37790  1.0000
  H   H586      1.0  0.41015  0.37121  0.38296  1.0000
  H   H587      1.0  0.39786  0.39105  0.37374  1.0000
  H   H588      1.0  0.39818  0.35528  0.34136  1.0000
  H   H589      1.0  0.38498  0.37484  0.33436  1.0000
  H   H590      1.0  0.39870  0.36553  0.30708  1.0000
  H   H591      1.0  0.43066  0.35720  0.34786  1.0000
  H   H592      1.0  0.44109  0.37787  0.34189  1.0000
  H   H593      1.0  0.43183  0.36613  0.31275  1.0000
  H   H594      1.0  0.41422  0.39323  0.30022  1.0000
  H   H595      1.0  0.42322  0.40453  0.33005  1.0000
  H   H596      1.0  0.39974  0.40331  0.32574  1.0000
  N   N38       1.0  0.27652  0.26749  0.19149  1.0000
  C   C381      1.0  0.49194  0.05613  0.33322  1.0000
  C   C382      1.0  0.26926  0.11362  0.31749  1.0000
  H   H597      1.0  0.25474  0.29191  0.37543  1.0000
  H   H598      1.0  0.30399  0.27296  0.18531  1.0000
  C   C383      1.0  0.28047  0.24853  0.19686  1.0000
  H   H599      1.0  0.25466  0.38350  0.99014  1.0000
  C   C384      1.0  0.26793  0.10893  0.36783  1.0000
  H   H600      1.0  0.48442  0.01354  0.30158  1.0000
  H   H601      1.0  0.29599  0.27689  0.22049  1.0000
  C   C385      1.0  0.26171  0.34645  0.35641  1.0000
  H   H602      1.0  0.45087  0.02861  0.33070  1.0000
  C   C386      1.0  0.38336  0.49861  0.99268  1.0000
  H   H603      1.0  0.48202  0.01632  0.33886  1.0000
  H   H604      1.0  0.27776  0.11363  0.29836  1.0000
  H   H605      1.0  0.46435  0.46271  0.19909  1.0000
  C   C387      1.0  0.25353  0.36907  0.99356  1.0000
  C   C388      1.0  0.40923  0.01256  0.00644  1.0000
  H   H606      1.0  0.36062  0.08595  0.98954  1.0000
  H   H607      1.0  0.46907  0.48583  0.19935  1.0000
  H   H608      1.0  0.33750  0.13867  0.24287  1.0000
  C   C389      1.0  0.44374  0.05754  0.46079  1.0000
  H   H609      1.0  0.39800  0.02292  0.27783  1.0000
  H   H610      1.0  0.26258  0.12690  0.31914  1.0000
  H   H611      1.0  0.26069  0.12185  0.37080  1.0000
  H   H612      1.0  0.25947  0.26265  0.15607  1.0000
  C   C390      1.0  0.35166  0.17063  0.23360  1.0000
  H   H613      1.0  0.44321  0.46765  0.23864  1.0000
  H   H614      1.0  0.46196  0.47565  0.16733  1.0000
  H   H615      1.0  0.42547  0.48370  0.23511  1.0000
  H   H616      1.0  0.36000  0.13600  0.23140  1.0000
  H   H617      1.0  0.29174  0.24345  0.18383  1.0000
  H   H618      1.0  0.49240  0.03490  0.40746  1.0000
  H   H619      1.0  0.43339  0.45339  0.19391  1.0000
  C   C391      1.0  0.37332  0.15989  0.26759  1.0000
  H   H620      1.0  0.43590  0.06086  0.44145  1.0000
  N   N39       1.0  0.27977  0.10928  0.34307  1.0000
  H   H621      1.0  0.29701  0.08814  0.35825  1.0000
  H   H622      1.0  0.25852  0.28797  0.20626  1.0000
  C   C392      1.0  0.25489  0.15936  0.35212  1.0000
  C   C393      1.0  0.43505  0.02722  0.45857  1.0000
  S   S165      1.0  0.26369  0.16047  0.16736  1.0000
  C   C394      1.0  0.46004  0.47587  0.19065  1.0000
  H   H623      1.0  0.41573  0.46967  0.19114  1.0000
  H   H624      1.0  0.37611  0.15102  0.28596  1.0000
  H   H625      1.0  0.30184  0.12380  0.32860  1.0000
  H   H626      1.0  0.46422  0.45781  0.37008  1.0000
  C   C395      1.0  0.49279  0.45789  0.36992  1.0000
  H   H627      1.0  0.25436  0.35638  0.19734  1.0000
  H   H628      1.0  0.44766  0.49083  0.23882  1.0000
  H   H629      1.0  0.42624  0.02974  0.44012  1.0000
  H   H630      1.0  0.27546  0.10607  0.38763  1.0000
  H   H631      1.0  0.25779  0.09873  0.36549  1.0000
  C   C396      1.0  0.49116  0.42526  0.34316  1.0000
  C   C397      1.0  0.39561  0.49335  0.27517  1.0000
  H   H632      1.0  0.36058  0.16721  0.21566  1.0000
  H   H633      1.0  0.38280  0.15600  0.25060  1.0000
  C   C398      1.0  0.40162  0.01178  0.23615  1.0000
  H   H634      1.0  0.27915  0.08125  0.33611  1.0000
  H   H635      1.0  0.49326  0.47059  0.38025  1.0000
  H   H636      1.0  0.33781  0.17007  0.22576  1.0000
  C   C399      1.0  0.34274  0.16395  0.28110  1.0000
  C   C400      1.0  0.40281  0.47751  0.47322  1.0000
  C   C401      1.0  0.49217  0.04079  0.38666  1.0000
  H   H637      1.0  0.42076  0.49788  0.03257  1.0000
  N   N40       1.0  0.44142  0.48026  0.19793  1.0000
  C   C402      1.0  0.40168  0.01122  0.26584  1.0000
  C   C403      1.0  0.27744  0.36830  0.02734  1.0000
  C   C404      1.0  0.26856  0.34138  0.00516  1.0000
  C   C405      1.0  0.28880  0.09181  0.33947  1.0000
  C   C406      1.0  0.47968  0.00707  0.32110  1.0000
  H   H638      1.0  0.28125  0.33448  0.01099  1.0000
  H   H639      1.0  0.26361  0.33503  0.98561  1.0000
  H   H640      1.0  0.38991  0.49571  0.44437  1.0000
  C   C407      1.0  0.25641  0.32946  0.14366  1.0000
  C   C408      1.0  0.41780  0.48447  0.99247  1.0000
  H   H641      1.0  0.45463  0.02579  0.29355  1.0000
  H   H642      1.0  0.25878  0.10391  0.31386  1.0000
  C   C409      1.0  0.39340  0.00490  0.47953  1.0000
  N   N41       1.0  0.46079  0.00279  0.31893  1.0000
  H   H643      1.0  0.45646  0.00453  0.36368  1.0000
  H   H644      1.0  0.43781  0.49788  0.16278  1.0000
  H   H645      1.0  0.41020  0.00179  0.04886  1.0000
  H   H646      1.0  0.25207  0.36659  0.10301  1.0000
  H   H647      1.0  0.39096  0.05791  0.98527  1.0000
  Fe  Fe81      1.0  0.26338  0.15942  0.77772  1.0000
  S   S166      1.0  0.29100  0.16209  0.79443  1.0000
  H   H648      1.0  0.38597  0.46958  0.72218  1.0000
  Fe  Fe82      1.0  0.27445  0.16134  0.71527  1.0000
  S   S167      1.0  0.30309  0.16307  0.72843  1.0000
  S   S168      1.0  0.26971  0.16676  0.66783  1.0000
  Fe  Fe83      1.0  0.29857  0.14209  0.76115  1.0000
  S   S169      1.0  0.31612  0.11678  0.76669  1.0000
  Fe  Fe84      1.0  0.29310  0.18285  0.76052  1.0000
  S   S170      1.0  0.30898  0.20752  0.76705  1.0000
  S   S171      1.0  0.27066  0.13865  0.74534  1.0000
  C   C410      1.0  0.32196  0.20803  0.69567  1.0000
  Fe  Fe85      1.0  0.27740  0.33597  0.70624  1.0000
  S   S172      1.0  0.30620  0.33335  0.71895  1.0000
  S   S173      1.0  0.27239  0.33120  0.65876  1.0000
  Fe  Fe86      1.0  0.26661  0.33925  0.76842  1.0000
  S   S174      1.0  0.29441  0.33669  0.78500  1.0000
  H   H649      1.0  0.32140  0.21996  0.70940  1.0000
  Fe  Fe87      1.0  0.30124  0.35540  0.75021  1.0000
  S   S175      1.0  0.32244  0.37665  0.75282  1.0000
  Fe  Fe88      1.0  0.29754  0.31496  0.75284  1.0000
  S   S176      1.0  0.31510  0.29131  0.76526  1.0000
  S   S177      1.0  0.27287  0.35951  0.73507  1.0000
  S   S178      1.0  0.26930  0.31603  0.73876  1.0000
  Fe  Fe89      1.0  0.40500  0.03097  0.90498  1.0000
  S   S179      1.0  0.40913  0.05901  0.89089  1.0000
  C   C411      1.0  0.28160  0.12369  0.82764  1.0000
  Fe  Fe90      1.0  0.40091  0.01951  0.84337  1.0000
  S   S180      1.0  0.40452  0.04666  0.82557  1.0000
  C   C412      1.0  0.36855  0.05286  0.94249  1.0000
  Fe  Fe91      1.0  0.42687  0.04759  0.85720  1.0000
  S   S181      1.0  0.45291  0.05977  0.84479  1.0000
  Fe  Fe92      1.0  0.38633  0.05587  0.86061  1.0000
  S   S182      1.0  0.36508  0.07848  0.86162  1.0000
  S   S183      1.0  0.42432  0.01996  0.87292  1.0000
  S   S184      1.0  0.38117  0.02834  0.87659  1.0000
  Fe  Fe93      1.0  0.39009  0.43506  0.85138  1.0000
  S   S185      1.0  0.38201  0.46140  0.87112  1.0000
  S   S186      1.0  0.37038  0.41241  0.84841  1.0000
  Fe  Fe94      1.0  0.42878  0.44617  0.84342  1.0000
  S   S187      1.0  0.42302  0.47283  0.86188  1.0000
  S   S188      1.0  0.45548  0.44193  0.82157  1.0000
  Fe  Fe95      1.0  0.40765  0.45933  0.89568  1.0000
  S   S189      1.0  0.41525  0.46795  0.94073  1.0000
  Fe  Fe96      1.0  0.39814  0.47306  0.83623  1.0000
  H   H650      1.0  0.32203  0.19637  0.71001  1.0000
  S   S190      1.0  0.41491  0.43212  0.87847  1.0000
  S   S191      1.0  0.40463  0.44716  0.81517  1.0000
  H   H651      1.0  0.44110  0.02787  0.51436  1.0000
  H   H652      1.0  0.28963  0.19669  0.70631  1.0000
  H   H653      1.0  0.42538  0.48013  0.76398  1.0000
  H   H654      1.0  0.38126  0.08209  0.91865  1.0000
  S   S192      1.0  0.40789  0.02733  0.95314  1.0000
  H   H655      1.0  0.37942  0.34782  0.76366  1.0000
  C   C413      1.0  0.29012  0.20821  0.69192  1.0000
  H   H656      1.0  0.36916  0.04163  0.95769  1.0000
  C   C414      1.0  0.30802  0.19180  0.65829  1.0000
  C   C415      1.0  0.28340  0.36320  0.97776  1.0000
  C   C416      1.0  0.38922  0.48169  0.73284  1.0000
  C   C417      1.0  0.38848  0.48251  0.76241  1.0000
  H   H657      1.0  0.33229  0.34664  0.78631  1.0000
  H   H658      1.0  0.26813  0.35918  0.57073  1.0000
  H   H659      1.0  0.38456  0.47113  0.77434  1.0000
  C   C418      1.0  0.47803  0.43691  0.86761  1.0000
  C   C419      1.0  0.47640  0.44081  0.83886  1.0000
  H   H660      1.0  0.40024  0.06633  0.95362  1.0000
  H   H661      1.0  0.46628  0.43498  0.88006  1.0000
  H   H662      1.0  0.49078  0.44600  0.80070  1.0000
  H   H663      1.0  0.38012  0.01890  0.51340  1.0000
  H   H664      1.0  0.26361  0.08845  0.79569  1.0000
  H   H665      1.0  0.49599  0.43117  0.90210  1.0000
  C   C420      1.0  0.25572  0.32713  0.60730  1.0000
  H   H666      1.0  0.37125  0.35137  0.79893  1.0000
  H   H667      1.0  0.46231  0.04131  0.79198  1.0000
  C   C421      1.0  0.47432  0.04996  0.85018  1.0000
  C   C422      1.0  0.47670  0.03273  0.86037  1.0000
  H   H668      1.0  0.28866  0.22025  0.70520  1.0000
  H   H669      1.0  0.46531  0.02517  0.86573  1.0000
  H   H670      1.0  0.29965  0.09266  0.82264  1.0000
  C   C423      1.0  0.33481  0.38716  0.78011  1.0000
  C   C424      1.0  0.34706  0.39996  0.77255  1.0000
  C   C425      1.0  0.35784  0.40800  0.79302  1.0000
  C   C426      1.0  0.35669  0.40325  0.82150  1.0000
  C   C427      1.0  0.34447  0.39041  0.82904  1.0000
  C   C428      1.0  0.33355  0.38252  0.80863  1.0000
  H   H671      1.0  0.34824  0.40370  0.75062  1.0000
  H   H672      1.0  0.36712  0.41780  0.78673  1.0000
  H   H673      1.0  0.34335  0.38666  0.85097  1.0000
  H   H674      1.0  0.32412  0.37290  0.81505  1.0000
  C   C429      1.0  0.33031  0.10693  0.79316  1.0000
  C   C430      1.0  0.33204  0.11402  0.82030  1.0000
  C   C431      1.0  0.34274  0.10518  0.84080  1.0000
  C   C432      1.0  0.35219  0.08931  0.83445  1.0000
  C   C433      1.0  0.35062  0.08234  0.80724  1.0000
  C   C434      1.0  0.33968  0.09102  0.78690  1.0000
  H   H675      1.0  0.32520  0.12633  0.82555  1.0000
  H   H676      1.0  0.34386  0.11079  0.86167  1.0000
  H   H677      1.0  0.35769  0.07015  0.80191  1.0000
  H   H678      1.0  0.33851  0.08535  0.76606  1.0000
  C   C435      1.0  0.30886  0.23097  0.76595  1.0000
  C   C436      1.0  0.32443  0.23890  0.77442  1.0000
  C   C437      1.0  0.32583  0.25726  0.77387  1.0000
  C   C438      1.0  0.31176  0.26822  0.76456  1.0000
  C   C439      1.0  0.29602  0.26047  0.75570  1.0000
  C   C440      1.0  0.29450  0.24181  0.75663  1.0000
  H   H679      1.0  0.33558  0.23076  0.78163  1.0000
  H   H680      1.0  0.33803  0.26299  0.78074  1.0000
  H   H681      1.0  0.28512  0.26879  0.74816  1.0000
  H   H682      1.0  0.28235  0.23587  0.75014  1.0000
  H   H683      1.0  0.45375  0.05027  0.75938  1.0000
  H   H684      1.0  0.26138  0.34014  0.53046  1.0000
  H   H685      1.0  0.46920  0.46367  0.73826  1.0000
  H   H686      1.0  0.30768  0.17965  0.67148  1.0000
  H   H687      1.0  0.34469  0.33704  0.81500  1.0000
  H   H688      1.0  0.27839  0.20761  0.67773  1.0000
  C   C441      1.0  0.26900  0.26914  0.82506  1.0000
  H   H689      1.0  0.27186  0.34351  0.83614  1.0000
  H   H690      1.0  0.27325  0.34181  0.88835  1.0000
  H   H691      1.0  0.26724  0.31894  0.60209  1.0000
  C   C442      1.0  0.25448  0.33475  0.63440  1.0000
  C   C443      1.0  0.49185  0.44310  0.82297  1.0000
  H   H692      1.0  0.35806  0.08501  0.92445  1.0000
  N   N42       1.0  0.30683  0.20793  0.67583  1.0000
  H   H693      1.0  0.28536  0.37749  0.97389  1.0000
  H   H694      1.0  0.28595  0.36096  0.52621  1.0000
  H   H695      1.0  0.36184  0.32975  0.72980  1.0000
  H   H696      1.0  0.42294  0.47200  0.71316  1.0000
  H   H697      1.0  0.43212  0.03370  0.73152  1.0000
  C   C444      1.0  0.26067  0.34074  0.87769  1.0000
  C   C445      1.0  0.41776  0.04846  0.48570  1.0000
  H   H698      1.0  0.44195  0.46957  0.78573  1.0000
  S   S193      1.0  0.39245  0.49907  0.81365  1.0000
  C   C446      1.0  0.38862  0.00988  0.76636  1.0000
  H   H699      1.0  0.41811  0.03206  0.76184  1.0000
  H   H700      1.0  0.29668  0.19118  0.64330  1.0000
  H   H701      1.0  0.32045  0.19107  0.64582  1.0000
  H   H702      1.0  0.39501  0.49221  0.90732  1.0000
  C   C447      1.0  0.30715  0.22371  0.65753  1.0000
  H   H703      1.0  0.28428  0.29640  0.80052  1.0000
  H   H704      1.0  0.26699  0.17417  0.60850  1.0000
  H   H705      1.0  0.47203  0.01377  0.76710  1.0000
  H   H706      1.0  0.29358  0.12440  0.81424  1.0000
  H   H707      1.0  0.29585  0.22408  0.64240  1.0000
  C   C448      1.0  0.39432  0.49631  0.71702  1.0000
  H   H708      1.0  0.27182  0.13377  0.81968  1.0000
  C   C449      1.0  0.38920  0.48775  0.97005  1.0000
  C   C450      1.0  0.40367  0.48749  0.52261  1.0000
  H   H709      1.0  0.46048  0.03448  0.49579  1.0000
  C   C451      1.0  0.49388  0.02525  0.86374  1.0000
  C   C452      1.0  0.40768  0.47472  0.50165  1.0000
  C   C453      1.0  0.35846  0.07325  0.97846  1.0000
  H   H710      1.0  0.35909  0.30516  0.78064  1.0000
  C   C454      1.0  0.26903  0.10186  0.79740  1.0000
  H   H711      1.0  0.37165  0.31823  0.80466  1.0000
  H   H712      1.0  0.35974  0.36108  0.76942  1.0000
  H   H713      1.0  0.28115  0.38431  0.52381  1.0000
  H   H714      1.0  0.41778  0.06032  0.49951  1.0000
  C   C455      1.0  0.42956  0.02567  0.75065  1.0000
  H   H715      1.0  0.29654  0.35682  0.98246  1.0000
  H   H716      1.0  0.26717  0.16234  0.84606  1.0000
  H   H717      1.0  0.28536  0.12752  0.84946  1.0000
  H   H718      1.0  0.37963  0.02090  0.72657  1.0000
  C   C456      1.0  0.27615  0.37110  0.51829  1.0000
  N   N43       1.0  0.35641  0.33317  0.77405  1.0000
  H   H719      1.0  0.46347  0.44786  0.76455  1.0000
  H   H720      1.0  0.40734  0.48494  0.54434  1.0000
  H   H721      1.0  0.37866  0.04984  0.92614  1.0000
  N   N44       1.0  0.37196  0.06982  0.95651  1.0000
  H   H722      1.0  0.25557  0.29315  0.86301  1.0000
  H   H723      1.0  0.30628  0.23609  0.67021  1.0000
  H   H724      1.0  0.43022  0.43491  0.73420  1.0000
  C   C457      1.0  0.27461  0.29988  0.81742  1.0000
  C   C458      1.0  0.42928  0.44579  0.74991  1.0000
  H   H725      1.0  0.25960  0.28278  0.77453  1.0000
  C   C459      1.0  0.44109  0.01364  0.79446  1.0000
  H   H726      1.0  0.25252  0.09241  0.84518  1.0000
  H   H727      1.0  0.31957  0.22394  0.64503  1.0000
  C   C460      1.0  0.25851  0.10561  0.84520  1.0000
  H   H728      1.0  0.46345  0.02270  0.73441  1.0000
  H   H729      1.0  0.39278  0.08140  0.98065  1.0000
  H   H730      1.0  0.44774  0.05040  0.51606  1.0000
  C   C461      1.0  0.49492  0.43477  0.88007  1.0000
  C   C462      1.0  0.36701  0.31727  0.78241  1.0000
  C   C463      1.0  0.25555  0.15836  0.85729  1.0000
  C   C464      1.0  0.25239  0.35087  0.52221  1.0000
  S   S194      1.0  0.26481  0.18189  0.74662  1.0000
  H   H731      1.0  0.49554  0.01190  0.87166  1.0000
  H   H732      1.0  0.43872  0.45677  0.69799  1.0000
  H   H733      1.0  0.34253  0.34323  0.73749  1.0000
  H   H734      1.0  0.44532  0.47835  0.70880  1.0000
  C   C465      1.0  0.35047  0.33134  0.74448  1.0000
  C   C466      1.0  0.25605  0.16595  0.61372  1.0000
  C   C467      1.0  0.25590  0.15714  0.88691  1.0000
  H   H735      1.0  0.29233  0.09575  0.85831  1.0000
  H   H736      1.0  0.38020  0.48473  0.95310  1.0000
  H   H737      1.0  0.27858  0.26522  0.80820  1.0000
  H   H738      1.0  0.43972  0.04897  0.78968  1.0000
  H   H739      1.0  0.37887  0.31535  0.76878  1.0000
  C   C468      1.0  0.25992  0.34169  0.84807  1.0000
  H   H740      1.0  0.41449  0.46248  0.50753  1.0000
  C   C469      1.0  0.44679  0.03877  0.50187  1.0000
  C   C470      1.0  0.40657  0.48075  0.96959  1.0000
  H   H741      1.0  0.34490  0.07398  0.96919  1.0000
  N   N45       1.0  0.27422  0.10593  0.82673  1.0000
  C   C471      1.0  0.48932  0.05956  0.84327  1.0000
  H   H742      1.0  0.26190  0.10895  0.86741  1.0000
  N   N46       1.0  0.26070  0.28673  0.81942  1.0000
  H   H743      1.0  0.48761  0.07290  0.83532  1.0000
  C   C472      1.0  0.45977  0.45320  0.74336  1.0000
  H   H744      1.0  0.41523  0.45068  0.75057  1.0000
  H   H745      1.0  0.43253  0.43995  0.77097  1.0000
  H   H746      1.0  0.34201  0.31967  0.74184  1.0000
  H   H747      1.0  0.46183  0.44225  0.72796  1.0000
  H   H748      1.0  0.26788  0.16007  0.89830  1.0000
  H   H749      1.0  0.33254  0.32320  0.79150  1.0000
  H   H750      1.0  0.25896  0.25877  0.82616  1.0000
  H   H751      1.0  0.38293  0.02060  0.77882  1.0000
  C   C473      1.0  0.36723  0.34900  0.77667  1.0000
  H   H752      1.0  0.28262  0.07921  0.83647  1.0000
  C   C474      1.0  0.34082  0.33506  0.79259  1.0000
  C   C475      1.0  0.40326  0.01058  0.97844  1.0000
  N   N47       1.0  0.44127  0.46015  0.74292  1.0000
  H   H753      1.0  0.27586  0.37010  0.49481  1.0000
  C   C476      1.0  0.37112  0.08421  0.93540  1.0000
  C   C477      1.0  0.43911  0.47446  0.76396  1.0000
  C   C478      1.0  0.39263  0.49806  0.77644  1.0000
  H   H754      1.0  0.45247  0.01262  0.80937  1.0000
  H   H755      1.0  0.42543  0.01249  0.74330  1.0000
  H   H756      1.0  0.37342  0.09727  0.94516  1.0000
  C   C479      1.0  0.43693  0.46711  0.71449  1.0000
  H   H757      1.0  0.44811  0.48544  0.75969  1.0000
  H   H758      1.0  0.28056  0.10243  0.78283  1.0000
  H   H759      1.0  0.25873  0.11152  0.78946  1.0000
  C   C480      1.0  0.38812  0.00733  0.50780  1.0000
  N   N48       1.0  0.44529  0.02410  0.76916  1.0000
  C   C481      1.0  0.28776  0.09278  0.83652  1.0000
  C   C482      1.0  0.38973  0.06890  0.96966  1.0000
  H   H760      1.0  0.27644  0.26899  0.84537  1.0000
  S   S195      1.0  0.39611  0.49405  0.68007  1.0000
  H   H761      1.0  0.35542  0.05308  0.93181  1.0000
  C   C483      1.0  0.45052  0.04192  0.77784  1.0000
  C   C484      1.0  0.45997  0.01518  0.75368  1.0000
  C   C485      1.0  0.25413  0.16006  0.64173  1.0000
  H   H762      1.0  0.26881  0.31317  0.81231  1.0000
  H   H763      1.0  0.41132  0.03772  0.49748  1.0000
  H   H764      1.0  0.33482  0.20777  0.68437  1.0000
  H   H765      1.0  0.27852  0.35742  0.95763  1.0000
  H   H766      1.0  0.28207  0.30105  0.83756  1.0000
  H   H767      1.0  0.42979  0.01973  0.80626  1.0000
  C   C486      1.0  0.38674  0.01001  0.73678  1.0000
  H   H768      1.0  0.44573  0.49777  0.53735  1.0000
  C   C487      1.0  0.25930  0.36975  0.56149  1.0000
  H   H769      1.0  0.25170  0.34941  0.49887  1.0000
  N   N49       1.0  0.25845  0.36849  0.53037  1.0000
  H   H770      1.0  0.26425  0.38270  0.56847  1.0000
  H   H771      1.0  0.45634  0.00170  0.74678  1.0000
  Fe  Fe97      1.0  0.40604  0.97354  0.15465  1.0000
  S   S196      1.0  0.41322  0.94577  0.16830  1.0000
  C   C488      1.0  0.39525  0.50858  0.22976  1.0000
  Fe  Fe98      1.0  0.39851  0.96324  0.09273  1.0000
  S   S197      1.0  0.40434  0.93457  0.10309  1.0000
  S   S198      1.0  0.39050  0.96881  0.04643  1.0000
  Fe  Fe99      1.0  0.38891  0.93824  0.14350  1.0000
  S   S199      1.0  0.36435  0.92412  0.16066  1.0000
  Fe  Fe100     1.0  0.42812  0.94443  0.12674  1.0000
  S   S200      1.0  0.45486  0.93313  0.11128  1.0000
  S   S201      1.0  0.38139  0.96638  0.13130  1.0000
  S   S202      1.0  0.42253  0.97283  0.11514  1.0000
  Fe  Fe101     1.0  0.39474  0.51430  0.15048  1.0000
  S   S203      1.0  0.40873  0.53827  0.16512  1.0000
  H   H772      1.0  0.37931  0.66393  0.20041  1.0000
  Fe  Fe102     1.0  0.39703  0.52418  0.08704  1.0000
  S   S204      1.0  0.41115  0.54915  0.09775  1.0000
  H   H773      1.0  0.33434  0.67159  0.22999  1.0000
  Fe  Fe103     1.0  0.42729  0.53235  0.12874  1.0000
  S   S205      1.0  0.45666  0.52481  0.13510  1.0000
  Fe  Fe104     1.0  0.39128  0.55300  0.13351  1.0000
  S   S206      1.0  0.37373  0.57832  0.13993  1.0000
  C   C489      1.0  0.44175  0.96357  0.04855  1.0000
  S   S207      1.0  0.37644  0.52904  0.12077  1.0000
  Fe  Fe105     1.0  0.26774  0.65364  0.21827  1.0000
  S   S208      1.0  0.29528  0.65665  0.20169  1.0000
  H   H774      1.0  0.29980  0.58290  0.30938  1.0000
  Fe  Fe106     1.0  0.27867  0.65663  0.28036  1.0000
  S   S209      1.0  0.30715  0.65984  0.26771  1.0000
  S   S210      1.0  0.27438  0.65832  0.32848  1.0000
  Fe  Fe107     1.0  0.29674  0.67839  0.23411  1.0000
  S   S211      1.0  0.31141  0.70312  0.22210  1.0000
  Fe  Fe108     1.0  0.30373  0.63786  0.23632  1.0000
  S   S212      1.0  0.32556  0.61583  0.23595  1.0000
  C   C490      1.0  0.25329  0.83267  0.09551  1.0000
  S   S213      1.0  0.27589  0.63331  0.25125  1.0000
  Fe  Fe109     1.0  0.27060  0.84227  0.21901  1.0000
  S   S214      1.0  0.29404  0.82513  0.20645  1.0000
  H   H775      1.0  0.37276  0.66770  0.16440  1.0000
  Fe  Fe110     1.0  0.28109  0.84236  0.28204  1.0000
  S   S215      1.0  0.30591  0.82614  0.27252  1.0000
  S   S216      1.0  0.27740  0.84799  0.32954  1.0000
  Fe  Fe111     1.0  0.30935  0.84360  0.23416  1.0000
  S   S217      1.0  0.33628  0.85339  0.21866  1.0000
  Fe  Fe112     1.0  0.28847  0.80943  0.24574  1.0000
  S   S218      1.0  0.28351  0.78064  0.25674  1.0000
  S   S219      1.0  0.28596  0.86117  0.24573  1.0000
  S   S220      1.0  0.26364  0.82540  0.25605  1.0000
  C   C491      1.0  0.30337  0.72468  0.23123  1.0000
  C   C492      1.0  0.28884  0.72729  0.24908  1.0000
  C   C493      1.0  0.28299  0.74452  0.25641  1.0000
  C   C494      1.0  0.29143  0.75938  0.24583  1.0000
  C   C495      1.0  0.30593  0.75683  0.22786  1.0000
  C   C496      1.0  0.31190  0.73954  0.22070  1.0000
  H   H776      1.0  0.28215  0.71602  0.25737  1.0000
  H   H777      1.0  0.27175  0.74633  0.27029  1.0000
  H   H778      1.0  0.31260  0.76813  0.21966  1.0000
  H   H779      1.0  0.32317  0.73769  0.20691  1.0000
  C   C497      1.0  0.36005  0.58796  0.16705  1.0000
  C   C498      1.0  0.34595  0.59965  0.15939  1.0000
  C   C499      1.0  0.33508  0.60804  0.17999  1.0000
  C   C500      1.0  0.33833  0.60510  0.20874  1.0000
  C   C501      1.0  0.35242  0.59340  0.21643  1.0000
  C   C502      1.0  0.36322  0.58494  0.19582  1.0000
  H   H780      1.0  0.34337  0.60220  0.13726  1.0000
  H   H781      1.0  0.32424  0.61682  0.17354  1.0000
  H   H782      1.0  0.35524  0.59111  0.23854  1.0000
  H   H783      1.0  0.37436  0.57657  0.20223  1.0000
  C   C503      1.0  0.47699  0.53587  0.13490  1.0000
  H   H784      1.0  0.37588  0.93603  0.25193  1.0000
  C   C504      1.0  0.47788  0.55429  0.13501  1.0000
  H   H785      1.0  0.32250  0.88160  0.13241  1.0000
  H   H786      1.0  0.46581  0.56236  0.13465  1.0000
  C   C505      1.0  0.35707  0.90441  0.17739  1.0000
  C   C506      1.0  0.33919  0.90350  0.18550  1.0000
  C   C507      1.0  0.33270  0.88832  0.19886  1.0000
  C   C508      1.0  0.34394  0.87356  0.20390  1.0000
  C   C509      1.0  0.36181  0.87448  0.19579  1.0000
  C   C510      1.0  0.36836  0.88977  0.18280  1.0000
  H   H787      1.0  0.33024  0.91465  0.18141  1.0000
  H   H788      1.0  0.31899  0.88804  0.20515  1.0000
  H   H789      1.0  0.37069  0.86320  0.19947  1.0000
  H   H790      1.0  0.38212  0.89012  0.17675  1.0000
  C   C511      1.0  0.47663  0.93649  0.12422  1.0000
  C   C512      1.0  0.47996  0.94076  0.15242  1.0000
  H   H791      1.0  0.32001  0.83548  0.15728  1.0000
  H   H792      1.0  0.46900  0.94278  0.16680  1.0000
  C   C513      1.0  0.38970  0.98325  0.99288  1.0000
  H   H793      1.0  0.36467  0.54880  0.17494  1.0000
  H   H794      1.0  0.27709  0.84884  0.39020  1.0000
  H   H795      1.0  0.46058  0.92918  0.01235  1.0000
  H   H796      1.0  0.27295  0.64936  0.15127  1.0000
  H   H797      1.0  0.39768  0.52032  0.21766  1.0000
  H   H798      1.0  0.30522  0.78930  0.30705  1.0000
  H   H799      1.0  0.41609  0.94023  0.04180  1.0000
  C   C514      1.0  0.39563  0.98525  0.02090  1.0000
  C   C515      1.0  0.36236  0.96945  0.25409  1.0000
  H   H800      1.0  0.35371  0.50811  0.21431  1.0000
  C   C516      1.0  0.29256  0.61457  0.35921  1.0000
  S   S221      1.0  0.40482  0.99771  0.18304  1.0000
  H   H801      1.0  0.39007  0.95054  0.23333  1.0000
  C   C517      1.0  0.41089  0.98097  0.23427  1.0000
  C   C518      1.0  0.40365  0.98979  0.47270  1.0000
  H   H802      1.0  0.29315  0.87605  0.10937  1.0000
  H   H803      1.0  0.28353  0.60725  0.37315  1.0000
  H   H804      1.0  0.31848  0.61718  0.32055  1.0000
  C   C519      1.0  0.25708  0.65372  0.35275  1.0000
  H   H805      1.0  0.43420  0.93005  0.06099  1.0000
  H   H806      1.0  0.44217  0.53061  0.48023  1.0000
  S   S222      1.0  0.41391  0.50734  0.11600  1.0000
  H   H807      1.0  0.29278  0.77028  0.31485  1.0000
  H   H808      1.0  0.44672  0.95957  0.06980  1.0000
  H   H809      1.0  0.37297  0.68586  0.18881  1.0000
  C   C520      1.0  0.34542  0.94808  0.22874  1.0000
  H   H810      1.0  0.46486  0.93596  0.04793  1.0000
  S   S223      1.0  0.26860  0.67667  0.24842  1.0000
  S   S224      1.0  0.25603  0.82596  0.06014  1.0000
  C   C521      1.0  0.26018  0.84418  0.35444  1.0000
  C   C522      1.0  0.26139  0.65269  0.10982  1.0000
  H   H811      1.0  0.27394  0.65107  0.09906  1.0000
  C   C523      1.0  0.40556  0.99997  0.02748  1.0000
  C   C524      1.0  0.42992  0.93487  0.03977  1.0000
  H   H812      1.0  0.36379  0.95878  0.18455  1.0000
  H   H813      1.0  0.25231  0.69106  0.03716  1.0000
  H   H814      1.0  0.49502  0.57652  0.13668  1.0000
  H   H815      1.0  0.27435  0.60275  0.29657  1.0000
  H   H816      1.0  0.40292  0.52032  0.26924  1.0000
  H   H817      1.0  0.48820  0.99505  0.32497  1.0000
  H   H818      1.0  0.36862  0.54513  0.21199  1.0000
  H   H819      1.0  0.27196  0.66278  0.38851  1.0000
  C   C525      1.0  0.27471  0.60825  0.31832  1.0000
  C   C526      1.0  0.33358  0.54821  0.20147  1.0000
  C   C527      1.0  0.26130  0.82927  0.14519  1.0000
  C   C528      1.0  0.34002  0.52437  0.16882  1.0000
  H   H820      1.0  0.34038  0.53373  0.15070  1.0000
  H   H821      1.0  0.29614  0.87888  0.16171  1.0000
  H   H822      1.0  0.33395  0.95756  0.22640  1.0000
  H   H823      1.0  0.26949  0.62214  0.31705  1.0000
  H   H824      1.0  0.25397  0.84390  0.42627  1.0000
  H   H825      1.0  0.33122  0.86299  0.11271  1.0000
  H   H826      1.0  0.31058  0.77629  0.33783  1.0000
  H   H827      1.0  0.36145  0.96220  0.27443  1.0000
  C   C529      1.0  0.49284  0.52560  0.13556  1.0000
  C   C530      1.0  0.26088  0.65180  0.13944  1.0000
  H   H828      1.0  0.28787  0.62865  0.35937  1.0000
  H   H829      1.0  0.30200  0.85659  0.09193  1.0000
  C   C531      1.0  0.26236  0.82340  0.11706  1.0000
  H   H830      1.0  0.26795  0.82176  0.16169  1.0000
  N   N50       1.0  0.28693  0.79277  0.34137  1.0000
  H   H831      1.0  0.28607  0.85796  0.16568  1.0000
  C   C532      1.0  0.40606  0.99543  0.27982  1.0000
  C   C533      1.0  0.25971  0.65714  0.38167  1.0000
  C   C534      1.0  0.40600  0.99663  0.22025  1.0000
  H   H832      1.0  0.37304  0.52784  0.18702  1.0000
  H   H833      1.0  0.42241  0.50152  0.19081  1.0000
  N   N51       1.0  0.29281  0.60732  0.33024  1.0000
  H   H834      1.0  0.27009  0.81156  0.11200  1.0000
  C   C535      1.0  0.39830  0.50855  0.25902  1.0000
  H   H835      1.0  0.37733  0.97404  0.20277  1.0000
  H   H836      1.0  0.32528  0.67682  0.18040  1.0000
  C   C536      1.0  0.37710  0.94411  0.23248  1.0000
  H   H837      1.0  0.26531  0.60087  0.33151  1.0000
  H   H838      1.0  0.46938  0.95055  0.01917  1.0000
  H   H839      1.0  0.33386  0.55820  0.18420  1.0000
  H   H840      1.0  0.31295  0.58751  0.33994  1.0000
  N   N52       1.0  0.34556  0.53287  0.19535  1.0000
  C   C537      1.0  0.34501  0.51996  0.21871  1.0000
  C   C538      1.0  0.36377  0.53897  0.19226  1.0000
  H   H841      1.0  0.35658  0.64117  0.20500  1.0000
  H   H842      1.0  0.31810  0.83335  0.11958  1.0000
  H   H843      1.0  0.34966  0.52571  0.23893  1.0000
  H   H844      1.0  0.33752  0.55501  0.22124  1.0000
  H   H845      1.0  0.33396  0.86373  0.15023  1.0000
  C   C539      1.0  0.45495  0.99509  0.34585  1.0000
  H   H846      1.0  0.33401  0.64666  0.19666  1.0000
  H   H847      1.0  0.29894  0.83142  0.14142  1.0000
  H   H848      1.0  0.44480  0.50834  0.19457  1.0000
  H   H849      1.0  0.41434  0.96810  0.27464  1.0000
  H   H850      1.0  0.34506  0.93881  0.21051  1.0000
  H   H851      1.0  0.37467  0.97707  0.25479  1.0000
  H   H852      1.0  0.41468  0.96935  0.22220  1.0000
  H   H853      1.0  0.35035  0.68820  0.22689  1.0000
  C   C540      1.0  0.36440  0.96747  0.20339  1.0000
  H   H854      1.0  0.40777  0.98762  0.45111  1.0000
  C   C541      1.0  0.49447  0.56227  0.13618  1.0000
  N   N53       1.0  0.44181  0.94839  0.02900  1.0000
  C   C542      1.0  0.41082  0.98035  0.26395  1.0000
  H   H855      1.0  0.37755  0.93485  0.21423  1.0000
  H   H856      1.0  0.34341  0.94017  0.24819  1.0000
  H   H857      1.0  0.35699  0.66628  0.23863  1.0000
  H   H858      1.0  0.44074  0.99168  0.34487  1.0000
  H   H859      1.0  0.26553  0.78879  0.31219  1.0000
  H   H860      1.0  0.30716  0.86148  0.18136  1.0000
  C   C543      1.0  0.29933  0.58871  0.33096  1.0000
  H   H861      1.0  0.34144  0.67540  0.15280  1.0000
  N   N54       1.0  0.30770  0.85793  0.13641  1.0000
  C   C544      1.0  0.32456  0.86698  0.13271  1.0000
  C   C545      1.0  0.31136  0.83869  0.13873  1.0000
  C   C546      1.0  0.29601  0.86163  0.11190  1.0000
  C   C547      1.0  0.29889  0.86438  0.16239  1.0000
  H   H862      1.0  0.33141  0.51524  0.22203  1.0000
  H   H863      1.0  0.45024  0.97423  0.04080  1.0000
  H   H864      1.0  0.30025  0.63187  0.31176  1.0000
  H   H865      1.0  0.44416  0.98637  0.29407  1.0000
  H   H866      1.0  0.28979  0.77670  0.37858  1.0000
  H   H867      1.0  0.28308  0.85520  0.11430  1.0000
  H   H868      1.0  0.35385  0.97794  0.20096  1.0000
  H   H869      1.0  0.38201  0.97195  0.98745  1.0000
  H   H870      1.0  0.32636  0.51950  0.17032  1.0000
  S   S225      1.0  0.40540  0.99380  0.31697  1.0000
  H   H871      1.0  0.48875  0.93003  0.08425  1.0000
  H   H872      1.0  0.35110  0.97927  0.25304  1.0000
  S   S226      1.0  0.38661  0.51672  0.04297  1.0000
  H   H873      1.0  0.46624  0.97756  0.29943  1.0000
  C   C548      1.0  0.26394  0.84549  0.38351  1.0000
  C   C549      1.0  0.49109  0.93359  0.10598  1.0000
  H   H874      1.0  0.35007  0.64490  0.16893  1.0000
  H   H875      1.0  0.30744  0.80309  0.36762  1.0000
  H   H876      1.0  0.34135  0.69338  0.17773  1.0000
  H   H877      1.0  0.27778  0.80814  0.30595  1.0000
  H   H878      1.0  0.30499  0.61282  0.29028  1.0000
  C   C550      1.0  0.27932  0.78212  0.36415  1.0000
  N   N55       1.0  0.36232  0.95729  0.22970  1.0000
  H   H879      1.0  0.30597  0.61401  0.36894  1.0000
  C   C551      1.0  0.30466  0.61771  0.31244  1.0000
  C   C552      1.0  0.29946  0.78165  0.32467  1.0000
  C   C553      1.0  0.49754  0.94139  0.16241  1.0000
  H   H880      1.0  0.31966  0.54419  0.20387  1.0000
  N   N56       1.0  0.35137  0.66848  0.19415  1.0000
  C   C554      1.0  0.34789  0.64950  0.19099  1.0000
  C   C555      1.0  0.33940  0.67895  0.17535  1.0000
  C   C556      1.0  0.36994  0.67164  0.18661  1.0000
  C   C557      1.0  0.34823  0.67385  0.22373  1.0000
  C   C558      1.0  0.45997  0.94069  0.02691  1.0000
  H   H881      1.0  0.26980  0.79021  0.37708  1.0000
  H   H882      1.0  0.42962  0.92322  0.02557  1.0000
  H   H883      1.0  0.49230  0.51135  0.13540  1.0000
  H   H884      1.0  0.29066  0.58045  0.34410  1.0000
  C   C559      1.0  0.29634  0.80770  0.35376  1.0000
  H   H885      1.0  0.38283  0.51829  0.48115  1.0000
  H   H886      1.0  0.34896  0.51283  0.16351  1.0000
  H   H887      1.0  0.42818  0.96942  0.05129  1.0000
  H   H888      1.0  0.49994  0.94388  0.18452  1.0000
  H   H889      1.0  0.25431  0.71740  0.08613  1.0000
  C   C560      1.0  0.45829  0.98999  0.29585  1.0000
  H   H890      1.0  0.44397  0.96491  0.99230  1.0000
  H   H891      1.0  0.42178  0.96004  0.00198  1.0000
  H   H892      1.0  0.30191  0.81624  0.33705  1.0000
  H   H893      1.0  0.46272  0.98282  0.35117  1.0000
  C   C561      1.0  0.27254  0.79964  0.32284  1.0000
  H   H894      1.0  0.28728  0.81634  0.36656  1.0000
  H   H895      1.0  0.46215  0.99554  0.27511  1.0000
  C   C562      1.0  0.39464  0.50240  0.01550  1.0000
  H   H896      1.0  0.26262  0.80780  0.33474  1.0000
  H   H897      1.0  0.27206  0.77080  0.35540  1.0000
  H   H898      1.0  0.36994  0.50399  0.99269  1.0000
  C   C563      1.0  0.43557  0.95442  0.00090  1.0000
  H   H899      1.0  0.25994  0.71319  0.03478  1.0000
  H   H900      1.0  0.43557  0.94336  0.98548  1.0000
  Fe  Fe113     1.0  0.40107  0.97344  0.65676  1.0000
  S   S227      1.0  0.40822  0.94711  0.67584  1.0000
  C   C564      1.0  0.39400  0.99616  0.72039  1.0000
  Fe  Fe114     1.0  0.40750  0.96055  0.59588  1.0000
  S   S228      1.0  0.41540  0.93316  0.61170  1.0000
  S   S229      1.0  0.40881  0.96292  0.54740  1.0000
  Fe  Fe115     1.0  0.39194  0.93552  0.64113  1.0000
  S   S230      1.0  0.36862  0.91660  0.64314  1.0000
  Fe  Fe116     1.0  0.43102  0.94719  0.64498  1.0000
  S   S231      1.0  0.45847  0.94115  0.66352  1.0000
  S   S232      1.0  0.38335  0.96218  0.62359  1.0000
  S   S233      1.0  0.42454  0.97426  0.62771  1.0000
  Fe  Fe117     1.0  0.40188  0.51648  0.65007  1.0000
  S   S234      1.0  0.41484  0.54181  0.66159  1.0000
  H   H901      1.0  0.42374  0.52872  0.88743  1.0000
  Fe  Fe118     1.0  0.39855  0.52554  0.58665  1.0000
  S   S235      1.0  0.41061  0.55183  0.59460  1.0000
  S   S236      1.0  0.39025  0.52054  0.54058  1.0000
  Fe  Fe119     1.0  0.43078  0.53709  0.62158  1.0000
  S   S237      1.0  0.45977  0.53608  0.60740  1.0000
  Fe  Fe120     1.0  0.39351  0.55435  0.63356  1.0000
  S   S238      1.0  0.37539  0.57921  0.63927  1.0000
  H   H902      1.0  0.38608  0.53212  0.86419  1.0000
  S   S239      1.0  0.38006  0.52902  0.62365  1.0000
  Fe  Fe121     1.0  0.26821  0.65342  0.71596  1.0000
  S   S240      1.0  0.29541  0.65686  0.69846  1.0000
  C   C565      1.0  0.26151  0.84724  0.61391  1.0000
  Fe  Fe122     1.0  0.27959  0.65876  0.77750  1.0000
  S   S241      1.0  0.30787  0.66249  0.76404  1.0000
  S   S242      1.0  0.27366  0.66426  0.82447  1.0000
  Fe  Fe123     1.0  0.29673  0.67956  0.72914  1.0000
  S   S243      1.0  0.30996  0.70431  0.71327  1.0000
  Fe  Fe124     1.0  0.30484  0.63947  0.73438  1.0000
  S   S244      1.0  0.32810  0.61887  0.73390  1.0000
  S   S245      1.0  0.26878  0.67743  0.74400  1.0000
  S   S246      1.0  0.27726  0.63441  0.75039  1.0000
  Fe  Fe125     1.0  0.27316  0.83269  0.72187  1.0000
  S   S247      1.0  0.30078  0.82191  0.71343  1.0000
  H   H903      1.0  0.27594  0.81026  0.88803  1.0000
  Fe  Fe126     1.0  0.28075  0.84099  0.78445  1.0000
  S   S248      1.0  0.30892  0.83109  0.77936  1.0000
  S   S249      1.0  0.39995  0.99474  0.81668  1.0000
  Fe  Fe127     1.0  0.30936  0.84595  0.73787  1.0000
  S   S250      1.0  0.33460  0.86175  0.73009  1.0000
  Fe  Fe128     1.0  0.29809  0.80821  0.75540  1.0000
  S   S251      1.0  0.30279  0.78004  0.77173  1.0000
  S   S252      1.0  0.28161  0.85737  0.74441  1.0000
  S   S253      1.0  0.27004  0.81758  0.76237  1.0000
  C   C566      1.0  0.30687  0.72545  0.72896  1.0000
  C   C567      1.0  0.29723  0.72795  0.75385  1.0000
  C   C568      1.0  0.29575  0.74484  0.76629  1.0000
  C   C569      1.0  0.30355  0.75947  0.75373  1.0000
  C   C570      1.0  0.31300  0.75701  0.72863  1.0000
  C   C571      1.0  0.31468  0.74008  0.71639  1.0000
  H   H904      1.0  0.29125  0.71680  0.76387  1.0000
  H   H905      1.0  0.28867  0.74650  0.78595  1.0000
  H   H906      1.0  0.31960  0.76801  0.71926  1.0000
  H   H907      1.0  0.32238  0.73822  0.69736  1.0000
  C   C572      1.0  0.36217  0.58971  0.66604  1.0000
  C   C573      1.0  0.34835  0.60163  0.65799  1.0000
  C   C574      1.0  0.33762  0.61044  0.67829  1.0000
  C   C575      1.0  0.34070  0.60764  0.70711  1.0000
  C   C576      1.0  0.35458  0.59579  0.71519  1.0000
  C   C577      1.0  0.36523  0.58689  0.69487  1.0000
  H   H908      1.0  0.34587  0.60401  0.63578  1.0000
  H   H909      1.0  0.32701  0.61944  0.67160  1.0000
  H   H910      1.0  0.35722  0.59361  0.73739  1.0000
  H   H911      1.0  0.37606  0.57814  0.70147  1.0000
  C   C578      1.0  0.48070  0.54064  0.62240  1.0000
  H   H912      1.0  0.47150  0.51394  0.51689  1.0000
  C   C579      1.0  0.48253  0.55069  0.64692  1.0000
  C   C580      1.0  0.26248  0.84353  0.64302  1.0000
  H   H913      1.0  0.47086  0.55571  0.65780  1.0000
  C   C581      1.0  0.35952  0.90131  0.66765  1.0000
  C   C582      1.0  0.34227  0.89537  0.66303  1.0000
  C   C583      1.0  0.33440  0.88338  0.68177  1.0000
  C   C584      1.0  0.34368  0.87704  0.70552  1.0000
  C   C585      1.0  0.36093  0.88300  0.71013  1.0000
  C   C586      1.0  0.36881  0.89495  0.69138  1.0000
  H   H914      1.0  0.33489  0.90007  0.64478  1.0000
  H   H915      1.0  0.32117  0.87899  0.67776  1.0000
  H   H916      1.0  0.36836  0.87811  0.72822  1.0000
  H   H917      1.0  0.38223  0.89891  0.69502  1.0000
  C   C587      1.0  0.47907  0.94262  0.64576  1.0000
  C   C588      1.0  0.49954  0.55480  0.65680  1.0000
  C   C589      1.0  0.48017  0.94297  0.61631  1.0000
  C   C590      1.0  0.26043  0.64919  0.63720  1.0000
  H   H918      1.0  0.46820  0.94280  0.60379  1.0000
  H   H919      1.0  0.29424  0.76941  0.85297  1.0000
  H   H920      1.0  0.50081  0.56298  0.67536  1.0000
  C   C591      1.0  0.28299  0.76173  0.66901  1.0000
  C   C592      1.0  0.38978  0.50612  0.48704  1.0000
  H   H921      1.0  0.29059  0.82472  0.87036  1.0000
  C   C593      1.0  0.37696  0.93792  0.73141  1.0000
  H   H922      1.0  0.36649  0.51854  0.67863  1.0000
  C   C594      1.0  0.40303  0.97966  0.52205  1.0000
  H   H923      1.0  0.36402  0.92234  0.51037  1.0000
  H   H924      1.0  0.27061  0.85631  0.60467  1.0000
  H   H925      1.0  0.42258  0.54135  0.53488  1.0000
  C   C595      1.0  0.34540  0.93575  0.72553  1.0000
  H   H926      1.0  0.27735  0.75098  0.68188  1.0000
  C   C596      1.0  0.40318  0.98218  0.73378  1.0000
  H   H927      1.0  0.27278  0.64873  0.64877  1.0000
  H   H928      1.0  0.41606  0.96552  0.48810  1.0000
  S   S254      1.0  0.41907  0.51077  0.61236  1.0000
  H   H929      1.0  0.34714  0.92562  0.70866  1.0000
  H   H930      1.0  0.33317  0.52392  0.73545  1.0000
  H   H931      1.0  0.31333  0.79016  0.82759  1.0000
  C   C597      1.0  0.25948  0.65563  0.85086  1.0000
  H   H932      1.0  0.36433  0.53323  0.73806  1.0000
  H   H933      1.0  0.29735  0.76193  0.67407  1.0000
  H   H934      1.0  0.25201  0.71283  0.56366  1.0000
  H   H935      1.0  0.35703  0.55529  0.72858  1.0000
  H   H936      1.0  0.37994  0.92829  0.71422  1.0000
  C   C598      1.0  0.40832  0.97724  0.49378  1.0000
  H   H937      1.0  0.28160  0.79080  0.63558  1.0000
  H   H938      1.0  0.28940  0.78438  0.71209  1.0000
  H   H939      1.0  0.40931  0.51307  0.94115  1.0000
  C   C599      1.0  0.39827  0.51197  0.73095  1.0000
  H   H940      1.0  0.40030  0.90633  0.52612  1.0000
  C   C600      1.0  0.39298  0.99489  0.52895  1.0000
  H   H941      1.0  0.26813  0.79542  0.71086  1.0000
  H   H942      1.0  0.33463  0.54190  0.66205  1.0000
  C   C601      1.0  0.36135  0.54220  0.71990  1.0000
  H   H943      1.0  0.41173  0.97089  0.77354  1.0000
  H   H944      1.0  0.34102  0.66817  0.68360  1.0000
  N   N57       1.0  0.34770  0.53498  0.70118  1.0000
  H   H945      1.0  0.27863  0.77768  0.87871  1.0000
  H   H946      1.0  0.27227  0.84973  0.65605  1.0000
  H   H947      1.0  0.37548  0.53740  0.89716  1.0000
  H   H948      1.0  0.36984  0.65599  0.75937  1.0000
  N   N58       1.0  0.36022  0.94798  0.72588  1.0000
  H   H949      1.0  0.35680  0.95510  0.76952  1.0000
  C   C602      1.0  0.35137  0.68207  0.73210  1.0000
  H   H950      1.0  0.27971  0.81297  0.82438  1.0000
  H   H951      1.0  0.34707  0.65035  0.75579  1.0000
  C   C603      1.0  0.31047  0.79996  0.84462  1.0000
  H   H952      1.0  0.35677  0.54938  0.66515  1.0000
  H   H953      1.0  0.40604  0.92301  0.55114  1.0000
  C   C604      1.0  0.35393  0.51754  0.69050  1.0000
  H   H954      1.0  0.37397  0.54398  0.70835  1.0000
  H   H955      1.0  0.36816  0.97093  0.74878  1.0000
  H   H956      1.0  0.25368  0.77601  0.64384  1.0000
  H   H957      1.0  0.35174  0.91160  0.53744  1.0000
  H   H958      1.0  0.44390  0.50747  0.48895  1.0000
  H   H959      1.0  0.34932  0.69207  0.71506  1.0000
  H   H960      1.0  0.44201  0.54580  0.55517  1.0000
  H   H961      1.0  0.36103  0.68729  0.74747  1.0000
  H   H962      1.0  0.35997  0.93471  0.57224  1.0000
  H   H963      1.0  0.37251  0.96598  0.69757  1.0000
  H   H964      1.0  0.34839  0.64570  0.69062  1.0000
  N   N59       1.0  0.44548  0.52507  0.52454  1.0000
  C   C605      1.0  0.37436  0.66653  0.70584  1.0000
  H   H965      1.0  0.38475  0.67139  0.72028  1.0000
  C   C606      1.0  0.25812  0.84251  0.85503  1.0000
  H   H966      1.0  0.40052  0.52494  0.77135  1.0000
  C   C607      1.0  0.26053  0.64884  0.60752  1.0000
  H   H967      1.0  0.33253  0.94287  0.72154  1.0000
  H   H968      1.0  0.36875  0.89948  0.51851  1.0000
  H   H969      1.0  0.29712  0.79349  0.66400  1.0000
  H   H970      1.0  0.37642  0.93039  0.75154  1.0000
  C   C608      1.0  0.43726  0.54206  0.53380  1.0000
  C   C609      1.0  0.36127  0.95690  0.69822  1.0000
  H   H971      1.0  0.37924  0.65362  0.69708  1.0000
  H   H972      1.0  0.30196  0.77769  0.88619  1.0000
  C   C610      1.0  0.38856  0.53485  0.88697  1.0000
  C   C611      1.0  0.35732  0.96134  0.74828  1.0000
  H   H973      1.0  0.32610  0.54598  0.72557  1.0000
  N   N60       1.0  0.35736  0.66473  0.72066  1.0000
  C   C612      1.0  0.46489  0.52660  0.52351  1.0000
  H   H974      1.0  0.38870  0.99697  0.55048  1.0000
  S   S255      1.0  0.27304  0.85047  0.82915  1.0000
  C   C613      1.0  0.40473  0.98185  0.76333  1.0000
  H   H975      1.0  0.34474  0.96910  0.74494  1.0000
  N   N61       1.0  0.27412  0.77901  0.67497  1.0000
  H   H976      1.0  0.27302  0.64824  0.59643  1.0000
  H   H977      1.0  0.26991  0.77225  0.71859  1.0000
  H   H978      1.0  0.37175  0.94558  0.54439  1.0000
  H   H979      1.0  0.40921  0.97167  0.72142  1.0000
  H   H980      1.0  0.43725  0.00002  0.78881  1.0000
  H   H981      1.0  0.40235  0.52326  0.71896  1.0000
  H   H982      1.0  0.33142  0.65588  0.71162  1.0000
  H   H983      1.0  0.36359  0.63849  0.73595  1.0000
  S   S256      1.0  0.39134  0.99668  0.68336  1.0000
  N   N62       1.0  0.39832  0.51989  0.90054  1.0000
  C   C614      1.0  0.28947  0.81112  0.87901  1.0000
  H   H984      1.0  0.37494  0.50540  0.90913  1.0000
  H   H985      1.0  0.36325  0.94721  0.68077  1.0000
  H   H986      1.0  0.29914  0.80966  0.89665  1.0000
  H   H987      1.0  0.42657  0.51061  0.54799  1.0000
  H   H988      1.0  0.34903  0.96490  0.69346  1.0000
  H   H989      1.0  0.26562  0.79843  0.84312  1.0000
  C   C615      1.0  0.28280  0.79294  0.65872  1.0000
  H   H990      1.0  0.40869  0.53623  0.93346  1.0000
  H   H991      1.0  0.44707  0.51331  0.56581  1.0000
  H   H992      1.0  0.34413  0.51169  0.67597  1.0000
  H   H993      1.0  0.32057  0.52761  0.70364  1.0000
  C   C616      1.0  0.25945  0.84851  0.88309  1.0000
  C   C617      1.0  0.34401  0.65839  0.70062  1.0000
  H   H994      1.0  0.34435  0.92853  0.74590  1.0000
  C   C618      1.0  0.33114  0.53303  0.71718  1.0000
  N   N63       1.0  0.37827  0.91783  0.54913  1.0000
  C   C619      1.0  0.37933  0.90455  0.57201  1.0000
  C   C620      1.0  0.43867  0.52059  0.49624  1.0000
  C   C621      1.0  0.39578  0.91910  0.53563  1.0000
  C   C622      1.0  0.37285  0.93519  0.56101  1.0000
  H   H995      1.0  0.38344  0.89126  0.56395  1.0000
  H   H996      1.0  0.41370  0.51345  0.86365  1.0000
  H   H997      1.0  0.38904  0.90820  0.58854  1.0000
  C   C623      1.0  0.26034  0.66242  0.87849  1.0000
  C   C624      1.0  0.49605  0.53443  0.60834  1.0000
  C   C625      1.0  0.36511  0.91256  0.52790  1.0000
  H   H998      1.0  0.35655  0.50797  0.70799  1.0000
  C   C626      1.0  0.39758  0.99574  0.77971  1.0000
  C   C627      1.0  0.40136  0.52387  0.93069  1.0000
  H   H999      1.0  0.27681  0.80622  0.66339  1.0000
  C   C628      1.0  0.41552  0.51686  0.88634  1.0000
  H   H1000     1.0  0.26971  0.67250  0.88321  1.0000
  H   H1001     1.0  0.26930  0.85801  0.88836  1.0000
  H   H1002     1.0  0.37299  0.67599  0.68792  1.0000
  H   H1003     1.0  0.36638  0.90336  0.58288  1.0000
  H   H1004     1.0  0.47029  0.53011  0.54465  1.0000
  H   H1005     1.0  0.49481  0.52667  0.58934  1.0000
  H   H1006     1.0  0.33846  0.68122  0.74315  1.0000
  H   H1007     1.0  0.44031  0.55298  0.51912  1.0000
  C   C629      1.0  0.35965  0.65187  0.74398  1.0000
  C   C630      1.0  0.34442  0.54715  0.67718  1.0000
  H   H1008     1.0  0.28175  0.75809  0.64638  1.0000
  H   H1009     1.0  0.39556  0.92936  0.51876  1.0000
  H   H1010     1.0  0.28107  0.78970  0.81768  1.0000
  H   H1011     1.0  0.38870  0.52537  0.94250  1.0000
  H   H1012     1.0  0.39606  0.54720  0.88830  1.0000
  H   H1013     1.0  0.33927  0.56033  0.68439  1.0000
  H   H1014     1.0  0.32108  0.79838  0.86081  1.0000
  H   H1015     1.0  0.38834  0.94680  0.73288  1.0000
  N   N64       1.0  0.29275  0.79766  0.85690  1.0000
  C   C631      1.0  0.27918  0.79977  0.83456  1.0000
  C   C632      1.0  0.29186  0.77981  0.86929  1.0000
  H   H1016     1.0  0.38279  0.93967  0.57643  1.0000
  H   H1017     1.0  0.31154  0.81332  0.83513  1.0000
  C   C633      1.0  0.27543  0.78290  0.70544  1.0000
  H   H1018     1.0  0.49413  0.94229  0.68446  1.0000
  C   C634      1.0  0.49684  0.94285  0.60302  1.0000
  C   C635      1.0  0.39727  0.51288  0.76061  1.0000
  C   C636      1.0  0.39353  0.99575  0.97177  1.0000
  H   H1019     1.0  0.42324  0.50571  0.89636  1.0000
  C   C637      1.0  0.49482  0.94269  0.66169  1.0000
  C   C638      1.0  0.44107  0.51105  0.54475  1.0000
  H   H1020     1.0  0.49749  0.94258  0.58026  1.0000
  H   H1021     1.0  0.46875  0.53706  0.50848  1.0000
  C   C639      1.0  0.38784  0.50388  0.89803  1.0000
  H   H1022     1.0  0.38878  0.99399  0.95044  1.0000
  H   H1023     1.0  0.42399  0.51999  0.49630  1.0000
  C   C640      1.0  0.25527  0.77853  0.66682  1.0000
  C   C641      1.0  0.39474  0.50336  0.51544  1.0000
  H   H1024     1.0  0.38501  0.50072  0.87555  1.0000
  Fe  Fe129     1.0  0.70675  0.15651  0.20579  1.0000
  S   S257      1.0  0.67843  0.15933  0.22079  1.0000
  S   S258      1.0  0.71043  0.16101  0.15798  1.0000
  Fe  Fe130     1.0  0.71970  0.15289  0.26699  1.0000
  S   S259      1.0  0.69252  0.15548  0.28571  1.0000
  H   H1025     1.0  0.68566  0.18902  0.32537  1.0000
  Fe  Fe131     1.0  0.68443  0.13701  0.25122  1.0000
  S   S260      1.0  0.66412  0.11494  0.25452  1.0000
  Fe  Fe132     1.0  0.68849  0.17751  0.25415  1.0000
  S   S261      1.0  0.67198  0.20133  0.26918  1.0000
  S   S262      1.0  0.71223  0.13285  0.23401  1.0000
  S   S263      1.0  0.71617  0.17623  0.23772  1.0000
  Fe  Fe133     1.0  0.68986  0.30879  0.25474  1.0000
  S   S264      1.0  0.71797  0.30756  0.24018  1.0000
  S   S265      1.0  0.67208  0.28510  0.25395  1.0000
  Fe  Fe134     1.0  0.68892  0.34950  0.26305  1.0000
  S   S266      1.0  0.71715  0.35076  0.24749  1.0000
  S   S267      1.0  0.67650  0.37636  0.27731  1.0000
  Fe  Fe135     1.0  0.71047  0.33122  0.21334  1.0000
  S   S268      1.0  0.71402  0.32974  0.16496  1.0000
  Fe  Fe136     1.0  0.72226  0.32704  0.27537  1.0000
  C   C642      1.0  0.74381  0.15245  0.33095  1.0000
  S   S269      1.0  0.68176  0.33187  0.22684  1.0000
  S   S270      1.0  0.69459  0.32646  0.29223  1.0000
  Fe  Fe137     1.0  0.55573  0.04664  0.34342  1.0000
  S   S271      1.0  0.56196  0.01937  0.35992  1.0000
  S   S272      1.0  0.52813  0.05476  0.32731  1.0000
  Fe  Fe138     1.0  0.59499  0.05778  0.34795  1.0000
  S   S273      1.0  0.60349  0.03088  0.36466  1.0000
  S   S274      1.0  0.61521  0.08001  0.34915  1.0000
  Fe  Fe139     1.0  0.58550  0.02035  0.33097  1.0000
  H   H1026     1.0  0.71277  0.22879  0.32919  1.0000
  Fe  Fe140     1.0  0.57925  0.03230  0.39221  1.0000
  S   S275      1.0  0.57820  0.02917  0.44061  1.0000
  S   S276      1.0  0.57850  0.04700  0.31260  1.0000
  S   S277      1.0  0.57142  0.05984  0.37722  1.0000
  Fe  Fe141     1.0  0.59099  0.47119  0.34131  1.0000
  S   S278      1.0  0.57557  0.44830  0.32596  1.0000
  H   H1027     1.0  0.70553  0.40477  0.34905  1.0000
  Fe  Fe142     1.0  0.59045  0.45930  0.40351  1.0000
  S   S279      1.0  0.57573  0.43495  0.39157  1.0000
  S   S280      1.0  0.59549  0.46267  0.45128  1.0000
  Fe  Fe143     1.0  0.59421  0.43221  0.35413  1.0000
  S   S281      1.0  0.60549  0.40530  0.33841  1.0000
  Fe  Fe144     1.0  0.55857  0.45296  0.36447  1.0000
  S   S282      1.0  0.52895  0.45890  0.37069  1.0000
  S   S283      1.0  0.61029  0.45507  0.36811  1.0000
  S   S284      1.0  0.57286  0.47730  0.37758  1.0000
  H   H1028     1.0  0.70838  0.35720  0.33334  1.0000
  H   H1029     1.0  0.61794  0.03045  0.42472  1.0000
  S   S285      1.0  0.60089  0.49248  0.31224  1.0000
  C   C643      1.0  0.74182  0.33096  0.09086  1.0000
  H   H1030     1.0  0.60464  0.46811  0.00774  1.0000
  C   C644      1.0  0.59417  0.49355  0.27655  1.0000
  H   H1031     1.0  0.56707  0.47418  0.22906  1.0000
  S   S286      1.0  0.73983  0.34717  0.43249  1.0000
  C   C645      1.0  0.63674  0.05869  0.40999  1.0000
  C   C646      1.0  0.74213  0.33999  0.39733  1.0000
  H   H1032     1.0  0.58637  0.02489  0.21164  1.0000
  C   C647      1.0  0.69636  0.18832  0.34159  1.0000
  H   H1033     1.0  0.64635  0.00117  0.14029  1.0000
  H   H1034     1.0  0.60814  0.07869  0.42341  1.0000
  H   H1035     1.0  0.71603  0.28956  0.16847  1.0000
  C   C648      1.0  0.69633  0.36124  0.34549  1.0000
  C   C649      1.0  0.54600  0.47922  0.43922  1.0000
  H   H1036     1.0  0.72362  0.18280  0.30663  1.0000
  C   C650      1.0  0.54781  0.45400  0.99181  1.0000
  H   H1037     1.0  0.63778  0.07280  0.40378  1.0000
  C   C651      1.0  0.50864  0.44890  0.36237  1.0000
  H   H1038     1.0  0.69327  0.39360  0.32241  1.0000
  C   C652      1.0  0.50777  0.43250  0.34895  1.0000
  H   H1039     1.0  0.51984  0.42540  0.34308  1.0000
  H   H1040     1.0  0.58765  0.02495  0.26394  1.0000
  S   S287      1.0  0.74651  0.32540  0.30371  1.0000
  H   H1041     1.0  0.62521  0.06494  0.47863  1.0000
  S   S288      1.0  0.74304  0.15118  0.42772  1.0000
  H   H1042     1.0  0.52069  0.03940  0.38244  1.0000
  H   H1043     1.0  0.54689  0.44336  0.00786  1.0000
  C   C653      1.0  0.65693  0.38379  0.29548  1.0000
  C   C654      1.0  0.65552  0.40149  0.30468  1.0000
  C   C655      1.0  0.64025  0.40814  0.31878  1.0000
  C   C656      1.0  0.62586  0.39731  0.32320  1.0000
  C   C657      1.0  0.62738  0.37957  0.31431  1.0000
  C   C658      1.0  0.64281  0.37281  0.30076  1.0000
  H   H1044     1.0  0.66631  0.41016  0.30078  1.0000
  H   H1045     1.0  0.63954  0.42169  0.32592  1.0000
  H   H1046     1.0  0.61642  0.37100  0.31766  1.0000
  H   H1047     1.0  0.64359  0.35919  0.29389  1.0000
  C   C659      1.0  0.65128  0.10496  0.28161  1.0000
  C   C660      1.0  0.65152  0.11060  0.30976  1.0000
  C   C661      1.0  0.64044  0.10282  0.32998  1.0000
  C   C662      1.0  0.62894  0.08928  0.32253  1.0000
  C   C663      1.0  0.62870  0.08368  0.29438  1.0000
  C   C664      1.0  0.63974  0.09148  0.27416  1.0000
  H   H1048     1.0  0.66028  0.12089  0.31602  1.0000
  H   H1049     1.0  0.64082  0.10730  0.35163  1.0000
  H   H1050     1.0  0.61998  0.07333  0.28816  1.0000
  H   H1051     1.0  0.63931  0.08702  0.25249  1.0000
  C   C665      1.0  0.67363  0.22441  0.26330  1.0000
  C   C666      1.0  0.65804  0.23472  0.26586  1.0000
  C   C667      1.0  0.65813  0.25310  0.26298  1.0000
  C   C668      1.0  0.67389  0.26178  0.25840  1.0000
  C   C669      1.0  0.68978  0.25162  0.25629  1.0000
  C   C670      1.0  0.68961  0.23289  0.25834  1.0000
  H   H1052     1.0  0.64567  0.22845  0.26997  1.0000
  H   H1053     1.0  0.64580  0.26071  0.26462  1.0000
  H   H1054     1.0  0.70208  0.25815  0.25282  1.0000
  H   H1055     1.0  0.70180  0.22511  0.25653  1.0000
  H   H1056     1.0  0.73208  0.13590  0.99325  1.0000
  C   C671      1.0  0.62413  0.03785  0.44227  1.0000
  C   C672      1.0  0.73185  0.33137  0.14034  1.0000
  H   H1057     1.0  0.70798  0.19786  0.29026  1.0000
  H   H1058     1.0  0.66360  0.27271  0.15239  1.0000
  H   H1059     1.0  0.71484  0.32774  0.10432  1.0000
  H   H1060     1.0  0.68176  0.26342  0.13229  1.0000
  H   H1061     1.0  0.74409  0.14002  0.15961  1.0000
  C   C673      1.0  0.72873  0.32870  0.35437  1.0000
  C   C674      1.0  0.72756  0.33317  0.38311  1.0000
  H   H1062     1.0  0.71756  0.32312  0.34372  1.0000
  H   H1063     1.0  0.71536  0.33130  0.39442  1.0000
  H   H1064     1.0  0.53866  0.02763  0.99368  1.0000
  C   C675      1.0  0.72757  0.15650  0.13275  1.0000
  H   H1065     1.0  0.71438  0.17206  0.10039  1.0000
  N   N65       1.0  0.71038  0.20082  0.33518  1.0000
  C   C676      1.0  0.70642  0.28501  0.15235  1.0000
  N   N66       1.0  0.62552  0.05678  0.43524  1.0000
  H   H1066     1.0  0.73046  0.18576  0.35772  1.0000
  C   C677      1.0  0.72436  0.19933  0.35702  1.0000
  H   H1067     1.0  0.56070  0.47869  0.43958  1.0000
  C   C678      1.0  0.72872  0.14707  0.37512  1.0000
  C   C679      1.0  0.72882  0.14720  0.34545  1.0000
  H   H1068     1.0  0.71716  0.14275  0.38622  1.0000
  H   H1069     1.0  0.71745  0.14284  0.33381  1.0000
  H   H1070     1.0  0.70922  0.36647  0.39790  1.0000
  N   N67       1.0  0.62729  0.15715  0.26451  1.0000
  C   C680      1.0  0.61635  0.17354  0.26779  1.0000
  C   C681      1.0  0.63209  0.15479  0.23450  1.0000
  C   C682      1.0  0.61725  0.14185  0.27405  1.0000
  C   C683      1.0  0.64355  0.15844  0.28166  1.0000
  H   H1071     1.0  0.62375  0.18533  0.26118  1.0000
  H   H1072     1.0  0.61232  0.17560  0.29015  1.0000
  H   H1073     1.0  0.60409  0.17320  0.25477  1.0000
  H   H1074     1.0  0.64073  0.14273  0.23138  1.0000
  H   H1075     1.0  0.62019  0.15334  0.22097  1.0000
  H   H1076     1.0  0.63943  0.16623  0.22643  1.0000
  H   H1077     1.0  0.62488  0.12923  0.27058  1.0000
  H   H1078     1.0  0.60456  0.14083  0.26232  1.0000
  H   H1079     1.0  0.61416  0.14263  0.29697  1.0000
  H   H1080     1.0  0.64049  0.16031  0.30441  1.0000
  H   H1081     1.0  0.65156  0.16971  0.27473  1.0000
  H   H1082     1.0  0.65210  0.14629  0.27983  1.0000
  H   H1083     1.0  0.71193  0.09436  0.01615  1.0000
  H   H1084     1.0  0.59875  0.06327  0.44785  1.0000
  C   C684      1.0  0.63343  0.06611  0.45930  1.0000
  N   N68       1.0  0.72781  0.11662  0.02563  1.0000
  C   C685      1.0  0.60770  0.06450  0.42939  1.0000
  H   H1085     1.0  0.68003  0.30841  0.16408  1.0000
  H   H1086     1.0  0.63110  0.05186  0.39139  1.0000
  H   H1087     1.0  0.61565  0.03596  0.46114  1.0000
  H   H1088     1.0  0.60141  0.05758  0.41159  1.0000
  H   H1089     1.0  0.71689  0.14303  0.02039  1.0000
  C   C686      1.0  0.58827  0.01254  0.22292  1.0000
  H   H1090     1.0  0.51331  0.45448  0.46577  1.0000
  H   H1091     1.0  0.70504  0.29583  0.13646  1.0000
  H   H1092     1.0  0.74783  0.10684  0.99700  1.0000
  H   H1093     1.0  0.54840  0.00517  0.22982  1.0000
  H   H1094     1.0  0.54073  0.00409  0.98848  1.0000
  C   C687      1.0  0.71330  0.10841  0.00995  1.0000
  H   H1095     1.0  0.66911  0.29493  0.18975  1.0000
  H   H1096     1.0  0.69693  0.22281  0.35549  1.0000
  N   N69       1.0  0.53875  0.46479  0.45616  1.0000
  H   H1097     1.0  0.56073  0.44686  0.44772  1.0000
  C   C688      1.0  0.57690  0.48292  0.23715  1.0000
  H   H1098     1.0  0.54083  0.43641  0.45814  1.0000
  H   H1099     1.0  0.70172  0.17446  0.34214  1.0000
  H   H1100     1.0  0.65034  0.05308  0.41350  1.0000
  N   N70       1.0  0.69855  0.37832  0.35987  1.0000
  C   C689      1.0  0.68168  0.38394  0.37335  1.0000
  C   C690      1.0  0.71258  0.37638  0.38156  1.0000
  C   C691      1.0  0.70360  0.39172  0.33898  1.0000
  H   H1101     1.0  0.67082  0.38550  0.35748  1.0000
  H   H1102     1.0  0.68280  0.39681  0.38439  1.0000
  H   H1103     1.0  0.67747  0.37406  0.38915  1.0000
  S   S289      1.0  0.74467  0.15226  0.29376  1.0000
  H   H1104     1.0  0.55353  0.00785  0.19322  1.0000
  H   H1105     1.0  0.69021  0.19115  0.36247  1.0000
  H   H1106     1.0  0.71610  0.38770  0.32800  1.0000
  C   C692      1.0  0.74362  0.15210  0.39053  1.0000
  N   N71       1.0  0.68920  0.28118  0.16526  1.0000
  C   C693      1.0  0.74251  0.14573  0.13879  1.0000
  C   C694      1.0  0.59577  0.47918  0.00272  1.0000
  C   C695      1.0  0.59142  0.49172  0.02390  1.0000
  C   C696      1.0  0.67674  0.27557  0.14321  1.0000
  H   H1107     1.0  0.71241  0.27320  0.14171  1.0000
  H   H1108     1.0  0.74015  0.14165  0.02756  1.0000
  C   C697      1.0  0.50825  0.04329  0.37252  1.0000
  C   C698      1.0  0.72584  0.16369  0.10538  1.0000
  H   H1109     1.0  0.70083  0.27101  0.20360  1.0000
  H   H1110     1.0  0.73871  0.32993  0.06864  1.0000
  H   H1111     1.0  0.53241  0.01549  0.20633  1.0000
  C   C699      1.0  0.71809  0.19657  0.30729  1.0000
  C   C700      1.0  0.58893  0.01261  0.25260  1.0000
  H   H1112     1.0  0.69121  0.30172  0.19574  1.0000
  C   C701      1.0  0.58514  0.49457  0.21874  1.0000
  H   H1113     1.0  0.71198  0.12422  0.06163  1.0000
  N   N72       1.0  0.61350  0.43758  0.25691  1.0000
  C   C702      1.0  0.62428  0.42118  0.25245  1.0000
  C   C703      1.0  0.59455  0.43357  0.25472  1.0000
  C   C704      1.0  0.61796  0.45077  0.23530  1.0000
  C   C705      1.0  0.61715  0.44475  0.28526  1.0000
  H   H1114     1.0  0.63866  0.42342  0.25527  1.0000
  H   H1115     1.0  0.62237  0.41578  0.23086  1.0000
  H   H1116     1.0  0.62067  0.41069  0.26764  1.0000
  H   H1117     1.0  0.59077  0.42379  0.27104  1.0000
  H   H1118     1.0  0.58600  0.44562  0.25786  1.0000
  H   H1119     1.0  0.59129  0.42803  0.23367  1.0000
  H   H1120     1.0  0.61035  0.46345  0.23842  1.0000
  H   H1121     1.0  0.61496  0.44606  0.21362  1.0000
  H   H1122     1.0  0.63224  0.45384  0.23612  1.0000
  H   H1123     1.0  0.60950  0.45731  0.28909  1.0000
  H   H1124     1.0  0.63138  0.44756  0.28805  1.0000
  H   H1125     1.0  0.61345  0.43536  0.30212  1.0000
  C   C706      1.0  0.72926  0.13511  0.01627  1.0000
  C   C707      1.0  0.70268  0.21902  0.33468  1.0000
  H   H1126     1.0  0.54153  0.49242  0.44718  1.0000
  H   H1127     1.0  0.51332  0.47802  0.46050  1.0000
  C   C708      1.0  0.74439  0.33130  0.33956  1.0000
  C   C709      1.0  0.58343  0.01217  0.46578  1.0000
  H   H1128     1.0  0.72900  0.20543  0.30189  1.0000
  C   C710      1.0  0.54604  0.44763  0.44592  1.0000
  H   H1129     1.0  0.54258  0.44548  0.42336  1.0000
  H   H1130     1.0  0.73723  0.16605  0.06369  1.0000
  H   H1131     1.0  0.69719  0.25460  0.17695  1.0000
  C   C711      1.0  0.59433  0.00485  0.00018  1.0000
  H   H1132     1.0  0.73519  0.20855  0.35287  1.0000
  H   H1133     1.0  0.68512  0.36191  0.33025  1.0000
  H   H1134     1.0  0.69186  0.22040  0.31870  1.0000
  C   C712      1.0  0.58122  0.48258  0.26601  1.0000
  H   H1135     1.0  0.57459  0.47378  0.28006  1.0000
  H   H1136     1.0  0.63730  0.03147  0.44667  1.0000
  H   H1137     1.0  0.71478  0.38904  0.39270  1.0000
  C   C713      1.0  0.72412  0.11623  0.05624  1.0000
  H   H1138     1.0  0.69360  0.35052  0.36075  1.0000
  H   H1139     1.0  0.59696  0.49023  0.04488  1.0000
  C   C714      1.0  0.73879  0.16028  0.08444  1.0000
  C   C715      1.0  0.59258  0.48034  0.47612  1.0000
  H   H1140     1.0  0.72542  0.37190  0.37209  1.0000
  C   C716      1.0  0.72827  0.32971  0.11124  1.0000
  H   H1141     1.0  0.67892  0.26392  0.19681  1.0000
  H   H1142     1.0  0.73521  0.12172  0.06861  1.0000
  H   H1143     1.0  0.72237  0.10253  0.06392  1.0000
  C   C717      1.0  0.68197  0.29725  0.17921  1.0000
  C   C718      1.0  0.74931  0.33406  0.14875  1.0000
  C   C719      1.0  0.69167  0.26700  0.18649  1.0000
  H   H1144     1.0  0.64690  0.06061  0.46434  1.0000
  H   H1145     1.0  0.67459  0.28607  0.12698  1.0000
  S   S290      1.0  0.57929  0.49441  0.18270  1.0000
  H   H1146     1.0  0.71902  0.20224  0.37844  1.0000
  H   H1147     1.0  0.74412  0.09281  0.02689  1.0000
  H   H1148     1.0  0.54183  0.47836  0.41676  1.0000
  C   C720      1.0  0.51928  0.46519  0.45330  1.0000
  H   H1149     1.0  0.51521  0.46333  0.43085  1.0000
  C   C721      1.0  0.58789  0.49765  0.46799  1.0000
  C   C722      1.0  0.50823  0.05107  0.34576  1.0000
  H   H1150     1.0  0.64735  0.00686  0.19240  1.0000
  H   H1151     1.0  0.74875  0.29745  0.38450  1.0000
  H   H1152     1.0  0.71569  0.10874  0.98674  1.0000
  H   H1153     1.0  0.59902  0.01757  0.00662  1.0000
  H   H1154     1.0  0.53952  0.46552  0.99901  1.0000
  H   H1155     1.0  0.63460  0.08044  0.45469  1.0000
  C   C723      1.0  0.74463  0.10680  0.01994  1.0000
  C   C724      1.0  0.54271  0.00472  0.20811  1.0000
  H   H1156     1.0  0.70040  0.11546  0.01392  1.0000
  H   H1157     1.0  0.56181  0.45817  0.99166  1.0000
  Fe  Fe145     1.0  0.71062  0.14478  0.70742  1.0000
  S   S291      1.0  0.68171  0.15150  0.71405  1.0000
  S   S292      1.0  0.72194  0.13391  0.66549  1.0000
  Fe  Fe146     1.0  0.71803  0.14927  0.77067  1.0000
  S   S293      1.0  0.68974  0.15656  0.78187  1.0000
  H   H1158     1.0  0.72974  0.26347  0.86397  1.0000
  Fe  Fe147     1.0  0.68265  0.13412  0.75290  1.0000
  S   S294      1.0  0.66166  0.11273  0.75715  1.0000
  Fe  Fe148     1.0  0.69075  0.17340  0.74251  1.0000
  S   S295      1.0  0.67690  0.20046  0.73706  1.0000
  S   S296      1.0  0.71101  0.12590  0.74428  1.0000
  S   S297      1.0  0.71949  0.16771  0.73340  1.0000
  Fe  Fe149     1.0  0.70288  0.30327  0.76263  1.0000
  S   S298      1.0  0.72845  0.31301  0.74534  1.0000
  S   S299      1.0  0.70438  0.27485  0.77956  1.0000
  Fe  Fe150     1.0  0.68492  0.34098  0.75917  1.0000
  S   S300      1.0  0.70969  0.35271  0.74191  1.0000
  S   S301      1.0  0.65883  0.35776  0.75858  1.0000
  Fe  Fe151     1.0  0.71214  0.32872  0.71378  1.0000
  S   S302      1.0  0.71398  0.32907  0.66518  1.0000
  Fe  Fe152     1.0  0.72391  0.33600  0.77492  1.0000
  C   C725      1.0  0.74811  0.34036  0.89778  1.0000
  S   S303      1.0  0.68660  0.31752  0.72949  1.0000
  S   S304      1.0  0.69913  0.32568  0.79389  1.0000
  Fe  Fe153     1.0  0.55914  0.03177  0.85826  1.0000
  C   C726      1.0  0.59251  0.49014  0.52568  1.0000
  S   S305      1.0  0.53007  0.02449  0.86172  1.0000
  Fe  Fe154     1.0  0.59497  0.05039  0.85048  1.0000
  S   S306      1.0  0.61086  0.02599  0.86376  1.0000
  S   S307      1.0  0.60840  0.07712  0.84467  1.0000
  Fe  Fe155     1.0  0.59188  0.01184  0.83540  1.0000
  H   H1159     1.0  0.71182  0.29138  0.86960  1.0000
  Fe  Fe156     1.0  0.59069  0.02274  0.89846  1.0000
  C   C727      1.0  0.50876  0.44137  0.83560  1.0000
  S   S308      1.0  0.57674  0.03614  0.82057  1.0000
  S   S309      1.0  0.57583  0.04802  0.88704  1.0000
  Fe  Fe157     1.0  0.58329  0.46712  0.83996  1.0000
  S   S310      1.0  0.57531  0.43976  0.82761  1.0000
  S   S311      1.0  0.74252  0.14748  0.79843  1.0000
  Fe  Fe158     1.0  0.58767  0.45825  0.90322  1.0000
  S   S312      1.0  0.58087  0.43009  0.89437  1.0000
  S   S313      1.0  0.59465  0.46427  0.94958  1.0000
  Fe  Fe159     1.0  0.59814  0.43067  0.85573  1.0000
  S   S314      1.0  0.62163  0.41086  0.84840  1.0000
  Fe  Fe160     1.0  0.55869  0.44157  0.86737  1.0000
  S   S315      1.0  0.53129  0.43282  0.88062  1.0000
  S   S316      1.0  0.60655  0.45812  0.86654  1.0000
  S   S317      1.0  0.56509  0.46964  0.87745  1.0000
  H   H1160     1.0  0.73413  0.22010  0.89651  1.0000
  C   C728      1.0  0.71755  0.29588  0.84937  1.0000
  H   H1161     1.0  0.67517  0.32418  0.66869  1.0000
  H   H1162     1.0  0.53882  0.48004  0.49447  1.0000
  H   H1163     1.0  0.74864  0.11763  0.75568  1.0000
  C   C729      1.0  0.52386  0.44211  0.96446  1.0000
  H   H1164     1.0  0.74193  0.28962  0.88925  1.0000
  H   H1165     1.0  0.64383  0.42282  0.78479  1.0000
  C   C730      1.0  0.58544  0.47331  0.72922  1.0000
  C   C731      1.0  0.58430  0.47373  0.75886  1.0000
  H   H1166     1.0  0.58229  0.46141  0.71793  1.0000
  H   H1167     1.0  0.58009  0.46225  0.77027  1.0000
  H   H1168     1.0  0.55975  0.03710  0.94113  1.0000
  H   H1169     1.0  0.68807  0.36197  0.66620  1.0000
  H   H1170     1.0  0.64415  0.35776  0.70003  1.0000
  H   H1171     1.0  0.63441  0.46435  0.82409  1.0000
  H   H1172     1.0  0.52052  0.44289  0.82305  1.0000
  C   C732      1.0  0.59024  0.48835  0.71408  1.0000
  C   C733      1.0  0.74085  0.13881  0.89431  1.0000
  C   C734      1.0  0.67757  0.35856  0.68149  1.0000
  H   H1173     1.0  0.60064  0.01776  0.76899  1.0000
  H   H1174     1.0  0.54181  0.00557  0.91083  1.0000
  C   C735      1.0  0.74172  0.18743  0.91548  1.0000
  S   S318      1.0  0.74003  0.13709  0.93154  1.0000
  H   H1175     1.0  0.74277  0.17283  0.91399  1.0000
  H   H1176     1.0  0.60837  0.44204  0.76859  1.0000
  H   H1177     1.0  0.57212  0.49692  0.94800  1.0000
  H   H1178     1.0  0.59849  0.46344  0.51177  1.0000
  H   H1179     1.0  0.53533  0.47424  0.94954  1.0000
  H   H1180     1.0  0.51795  0.05971  0.84164  1.0000
  C   C736      1.0  0.64871  0.37245  0.78396  1.0000
  C   C737      1.0  0.63222  0.38080  0.77758  1.0000
  C   C738      1.0  0.62365  0.39246  0.79693  1.0000
  C   C739      1.0  0.63150  0.39601  0.82306  1.0000
  C   C740      1.0  0.64803  0.38776  0.82931  1.0000
  C   C741      1.0  0.65658  0.37609  0.80999  1.0000
  H   H1181     1.0  0.62589  0.37806  0.75764  1.0000
  H   H1182     1.0  0.61090  0.39849  0.79176  1.0000
  H   H1183     1.0  0.65429  0.39033  0.84940  1.0000
  H   H1184     1.0  0.66922  0.36985  0.81537  1.0000
  C   C742      1.0  0.64803  0.10222  0.78271  1.0000
  C   C743      1.0  0.64610  0.10838  0.81044  1.0000
  C   C744      1.0  0.63412  0.10041  0.82906  1.0000
  C   C745      1.0  0.62427  0.08580  0.82070  1.0000
  C   C746      1.0  0.62657  0.07935  0.79322  1.0000
  C   C747      1.0  0.63820  0.08762  0.77436  1.0000
  H   H1185     1.0  0.65366  0.11940  0.81752  1.0000
  H   H1186     1.0  0.63252  0.10554  0.85022  1.0000
  H   H1187     1.0  0.61909  0.06824  0.78626  1.0000
  H   H1188     1.0  0.63953  0.08265  0.75305  1.0000
  C   C748      1.0  0.68571  0.22102  0.74728  1.0000
  C   C749      1.0  0.67818  0.23683  0.73625  1.0000
  C   C750      1.0  0.68418  0.25343  0.74498  1.0000
  C   C751      1.0  0.69754  0.25440  0.76535  1.0000
  C   C752      1.0  0.70510  0.23858  0.77630  1.0000
  C   C753      1.0  0.69938  0.22200  0.76711  1.0000
  H   H1189     1.0  0.66757  0.23624  0.72096  1.0000
  H   H1190     1.0  0.67813  0.26544  0.73652  1.0000
  H   H1191     1.0  0.71539  0.23914  0.79209  1.0000
  H   H1192     1.0  0.70526  0.20998  0.77585  1.0000
  H   H1193     1.0  0.51985  0.01199  0.80566  1.0000
  C   C754      1.0  0.72749  0.32860  0.61105  1.0000
  C   C755      1.0  0.73099  0.33231  0.63964  1.0000
  C   C756      1.0  0.65471  0.36231  0.64625  1.0000
  C   C757      1.0  0.51038  0.43692  0.86417  1.0000
  H   H1194     1.0  0.71482  0.32346  0.60520  1.0000
  C   C758      1.0  0.54360  0.46252  0.94316  1.0000
  H   H1195     1.0  0.72619  0.26450  0.82654  1.0000
  C   C759      1.0  0.73162  0.34307  0.85339  1.0000
  C   C760      1.0  0.73198  0.34139  0.88297  1.0000
  H   H1196     1.0  0.71910  0.34395  0.84231  1.0000
  H   H1197     1.0  0.71967  0.34081  0.89447  1.0000
  H   H1198     1.0  0.59442  0.48709  0.54780  1.0000
  C   C761      1.0  0.73496  0.14224  0.63726  1.0000
  H   H1199     1.0  0.53764  0.02650  0.79975  1.0000
  H   H1200     1.0  0.62772  0.46352  0.74669  1.0000
  C   C762      1.0  0.54507  0.03647  0.93956  1.0000
  H   H1201     1.0  0.65558  0.45640  0.81146  1.0000
  N   N73       1.0  0.53889  0.01942  0.95021  1.0000
  S   S319      1.0  0.59097  0.48759  0.67689  1.0000
  C   C763      1.0  0.74147  0.14343  0.83511  1.0000
  C   C764      1.0  0.72510  0.13891  0.87849  1.0000
  C   C765      1.0  0.72538  0.14127  0.84899  1.0000
  H   H1202     1.0  0.71261  0.13732  0.88910  1.0000
  H   H1203     1.0  0.71317  0.14149  0.83704  1.0000
  H   H1204     1.0  0.56812  0.43686  0.95365  1.0000
  N   N74       1.0  0.63010  0.15942  0.75727  1.0000
  C   C766      1.0  0.63625  0.15079  0.78367  1.0000
  C   C767      1.0  0.61143  0.16545  0.76040  1.0000
  C   C768      1.0  0.63162  0.14667  0.73373  1.0000
  C   C769      1.0  0.64111  0.17472  0.75133  1.0000
  H   H1205     1.0  0.65028  0.14598  0.78195  1.0000
  H   H1206     1.0  0.62831  0.13910  0.78874  1.0000
  H   H1207     1.0  0.63541  0.15999  0.80193  1.0000
  H   H1208     1.0  0.60642  0.17214  0.74090  1.0000
  H   H1209     1.0  0.60280  0.15415  0.76475  1.0000
  H   H1210     1.0  0.60981  0.17499  0.77814  1.0000
  H   H1211     1.0  0.62654  0.15246  0.71360  1.0000
  H   H1212     1.0  0.62430  0.13446  0.73817  1.0000
  H   H1213     1.0  0.64563  0.14238  0.73009  1.0000
  H   H1214     1.0  0.63732  0.18134  0.73112  1.0000
  H   H1215     1.0  0.65532  0.17064  0.74957  1.0000
  H   H1216     1.0  0.64017  0.18482  0.76836  1.0000
  C   C770      1.0  0.64916  0.34574  0.68867  1.0000
  C   C771      1.0  0.63382  0.46567  0.76779  1.0000
  N   N75       1.0  0.63346  0.44958  0.78541  1.0000
  C   C772      1.0  0.55192  0.00871  0.75573  1.0000
  H   H1217     1.0  0.72751  0.19119  0.91843  1.0000
  H   H1218     1.0  0.61407  0.43233  0.80197  1.0000
  H   H1219     1.0  0.54456  0.01578  0.73855  1.0000
  H   H1220     1.0  0.70842  0.29211  0.83209  1.0000
  C   C773      1.0  0.74333  0.15840  0.63891  1.0000
  H   H1221     1.0  0.52236  0.43102  0.97956  1.0000
  H   H1222     1.0  0.64071  0.44140  0.82751  1.0000
  H   H1223     1.0  0.55350  0.42166  0.96968  1.0000
  H   H1224     1.0  0.68393  0.34959  0.69726  1.0000
  S   S320      1.0  0.58737  0.49034  0.81067  1.0000
  C   C774      1.0  0.61494  0.44455  0.78917  1.0000
  H   H1225     1.0  0.66458  0.36581  0.62996  1.0000
  H   H1226     1.0  0.63757  0.43153  0.75084  1.0000
  C   C775      1.0  0.64354  0.43498  0.77152  1.0000
  H   H1227     1.0  0.63765  0.33929  0.67894  1.0000
  H   H1228     1.0  0.73724  0.32847  0.56805  1.0000
  N   N76       1.0  0.66261  0.35007  0.66742  1.0000
  H   H1229     1.0  0.71747  0.31054  0.84990  1.0000
  C   C776      1.0  0.55407  0.43294  0.95475  1.0000
  N   N77       1.0  0.54232  0.44789  0.96358  1.0000
  H   H1230     1.0  0.54137  0.03851  0.91700  1.0000
  C   C777      1.0  0.59611  0.00741  0.72716  1.0000
  H   H1231     1.0  0.73984  0.10896  0.70730  1.0000
  S   S321      1.0  0.59538  0.01867  0.94624  1.0000
  H   H1232     1.0  0.53850  0.45650  0.49957  1.0000
  H   H1233     1.0  0.64977  0.37482  0.65627  1.0000
  S   S322      1.0  0.74776  0.33675  0.93468  1.0000
  H   H1234     1.0  0.65475  0.33661  0.70509  1.0000
  H   H1235     1.0  0.51950  0.43742  0.94330  1.0000
  C   C778      1.0  0.74748  0.33894  0.64671  1.0000
  C   C779      1.0  0.74022  0.33140  0.58985  1.0000
  H   H1236     1.0  0.74834  0.30821  0.86898  1.0000
  H   H1237     1.0  0.59815  0.01992  0.71682  1.0000
  C   C780      1.0  0.54664  0.00489  0.93300  1.0000
  C   C781      1.0  0.73498  0.26885  0.84396  1.0000
  H   H1238     1.0  0.64758  0.46994  0.76443  1.0000
  H   H1239     1.0  0.65752  0.43843  0.76780  1.0000
  H   H1240     1.0  0.56137  0.01807  0.76503  1.0000
  H   H1241     1.0  0.67322  0.37075  0.69298  1.0000
  H   H1242     1.0  0.60712  0.45514  0.80020  1.0000
  N   N78       1.0  0.73559  0.28831  0.84494  1.0000
  H   H1243     1.0  0.51306  0.03002  0.96097  1.0000
  H   H1244     1.0  0.52123  0.02377  0.77280  1.0000
  H   H1245     1.0  0.51485  0.02114  0.92594  1.0000
  H   H1246     1.0  0.62624  0.47686  0.77783  1.0000
  H   H1247     1.0  0.74272  0.30952  0.81763  1.0000
  H   H1248     1.0  0.51458  0.45308  0.97085  1.0000
  C   C782      1.0  0.64141  0.45311  0.81330  1.0000
  C   C783      1.0  0.66905  0.33370  0.65330  1.0000
  H   H1249     1.0  0.74157  0.16656  0.65748  1.0000
  S   S323      1.0  0.74749  0.34464  0.80091  1.0000
  H   H1250     1.0  0.64336  0.35635  0.63520  1.0000
  C   C784      1.0  0.59753  0.00623  0.75670  1.0000
  C   C785      1.0  0.74742  0.34371  0.83827  1.0000
  H   H1251     1.0  0.67945  0.33644  0.63743  1.0000
  H   H1252     1.0  0.65819  0.32691  0.64235  1.0000
  H   H1253     1.0  0.57125  0.02680  0.50000  1.0000
  C   C786      1.0  0.73748  0.13191  0.61277  1.0000
  H   H1254     1.0  0.72476  0.19513  0.86660  1.0000
  H   H1255     1.0  0.55745  0.46680  0.94117  1.0000
  C   C787      1.0  0.50654  0.05212  0.84684  1.0000
  C   C788      1.0  0.50889  0.03491  0.85717  1.0000
  C   C789      1.0  0.51940  0.01925  0.94820  1.0000
  C   C790      1.0  0.57843  0.01476  0.49414  1.0000
  C   C791      1.0  0.58891  0.48088  0.97512  1.0000
  C   C792      1.0  0.59483  0.47673  0.50512  1.0000
  H   H1256     1.0  0.53916  0.45851  0.92178  1.0000
  C   C793      1.0  0.58834  0.48909  0.77355  1.0000
  C   C794      1.0  0.54379  0.46709  0.48607  1.0000
  H   H1257     1.0  0.73457  0.29077  0.79973  1.0000
  H   H1258     1.0  0.53934  0.04780  0.95176  1.0000
  C   C795      1.0  0.52914  0.01667  0.78932  1.0000
  H   H1259     1.0  0.53312  0.49344  0.73869  1.0000
  C   C796      1.0  0.57745  0.49529  0.96908  1.0000
  C   C797      1.0  0.74268  0.29488  0.81802  1.0000
  H   H1260     1.0  0.55031  0.42799  0.93351  1.0000
  H   H1261     1.0  0.73112  0.11937  0.61117  1.0000
  C   C798      1.0  0.73890  0.19072  0.86501  1.0000
  H   H1262     1.0  0.51431  0.00648  0.95577  1.0000
  H   H1263     1.0  0.73916  0.17614  0.86236  1.0000
  S   S324      1.0  0.57346  0.00658  0.87112  1.0000
  C   C799      1.0  0.74718  0.29364  0.86840  1.0000
  H   H1264     1.0  0.74404  0.14018  0.71782  1.0000
  H   H1265     1.0  0.74436  0.19637  0.84532  1.0000
  H   H1266     1.0  0.74890  0.19117  0.93497  1.0000
  C   C800      1.0  0.74806  0.13765  0.59019  1.0000
  H   H1267     1.0  0.55559  0.49947  0.74359  1.0000
  H   H1268     1.0  0.57877  0.00431  0.53676  1.0000
  H   H1269     1.0  0.53661  0.49858  0.68753  1.0000
  H   H1270     1.0  0.74832  0.26272  0.84017  1.0000
  N   N79       1.0  0.74912  0.19585  0.89019  1.0000
  C   C801      1.0  0.74804  0.21524  0.89355  1.0000
  H   H1271     1.0  0.74977  0.12952  0.57157  1.0000
  N   N80       1.0  0.53990  0.00186  0.77735  1.0000
  H   H1272     1.0  0.56127  0.00550  0.93224  1.0000
  H   H1273     1.0  0.55845  0.46665  0.48867  1.0000
  H   H1274     1.0  0.75043  0.34193  0.66850  1.0000
  C   C802      1.0  0.58266  0.00200  0.51509  1.0000
  H   H1275     1.0  0.55967  0.00235  0.80999  1.0000
  C   C803      1.0  0.59173  0.00145  0.97124  1.0000
  C   C804      1.0  0.54453  0.01710  0.97992  1.0000
  H   H1276     1.0  0.55917  0.01769  0.98200  1.0000
  Fe  Fe161     1.0  0.72219  0.65062  0.21508  1.0000
  S   S325      1.0  0.69480  0.65722  0.19893  1.0000
  C   C805      1.0  0.63820  0.98954  0.14471  1.0000
  Fe  Fe162     1.0  0.71107  0.65072  0.27748  1.0000
  S   S326      1.0  0.68289  0.65796  0.26502  1.0000
  S   S327      1.0  0.71577  0.64322  0.32424  1.0000
  Fe  Fe163     1.0  0.68558  0.63735  0.23068  1.0000
  S   S328      1.0  0.66404  0.61639  0.22969  1.0000
  Fe  Fe164     1.0  0.69438  0.67712  0.23440  1.0000
  S   S329      1.0  0.68204  0.70448  0.22543  1.0000
  S   S330      1.0  0.71333  0.62931  0.24442  1.0000
  S   S331      1.0  0.72226  0.67148  0.24910  1.0000
  Fe  Fe165     1.0  0.72462  0.84151  0.20996  1.0000
  S   S332      1.0  0.70322  0.82395  0.19485  1.0000
  H   H1277     1.0  0.59684  0.99435  0.43705  1.0000
  Fe  Fe166     1.0  0.71304  0.83974  0.27224  1.0000
  S   S333      1.0  0.69066  0.82222  0.26075  1.0000
  S   S334      1.0  0.71401  0.84733  0.31907  1.0000
  Fe  Fe167     1.0  0.71021  0.80738  0.23326  1.0000
  S   S335      1.0  0.71934  0.77842  0.23766  1.0000
  Fe  Fe168     1.0  0.68568  0.84065  0.22360  1.0000
  S   S336      1.0  0.65769  0.85152  0.21283  1.0000
  S   S337      1.0  0.73286  0.82420  0.24652  1.0000
  S   S338      1.0  0.70677  0.85896  0.23686  1.0000
  Fe  Fe169     1.0  0.58187  0.95571  0.08649  1.0000
  S   S339      1.0  0.57819  0.92845  0.10525  1.0000
  S   S340      1.0  0.57982  0.95871  0.03816  1.0000
  Fe  Fe170     1.0  0.58589  0.97183  0.14564  1.0000
  S   S341      1.0  0.58255  0.94609  0.16748  1.0000
  H   H1278     1.0  0.60415  0.51497  0.21535  1.0000
  Fe  Fe171     1.0  0.60093  0.93436  0.13484  1.0000
  S   S342      1.0  0.62771  0.92056  0.14691  1.0000
  Fe  Fe172     1.0  0.56009  0.94264  0.13658  1.0000
  S   S343      1.0  0.53380  0.93761  0.15852  1.0000
  S   S344      1.0  0.60542  0.96078  0.11409  1.0000
  S   S345      1.0  0.56270  0.96919  0.11643  1.0000
  Fe  Fe173     1.0  0.59850  0.55221  0.13501  1.0000
  S   S346      1.0  0.60307  0.52366  0.12128  1.0000
  S   S347      1.0  0.62086  0.57225  0.13724  1.0000
  Fe  Fe174     1.0  0.55777  0.54827  0.13462  1.0000
  S   S348      1.0  0.55997  0.51996  0.12207  1.0000
  S   S349      1.0  0.53087  0.56252  0.13902  1.0000
  Fe  Fe175     1.0  0.58213  0.51808  0.15380  1.0000
  H   H1279     1.0  0.72879  0.68125  0.17828  1.0000
  Fe  Fe176     1.0  0.58032  0.52792  0.09046  1.0000
  S   S350      1.0  0.57407  0.52263  0.04351  1.0000
  S   S351      1.0  0.57859  0.54619  0.16871  1.0000
  S   S352      1.0  0.57719  0.55677  0.10203  1.0000
  C   C806      1.0  0.74629  0.65933  0.34422  1.0000
  C   C807      1.0  0.51030  0.55196  0.13692  1.0000
  C   C808      1.0  0.51555  0.55863  0.03013  1.0000
  H   H1280     1.0  0.52139  0.52543  0.13686  1.0000
  H   H1281     1.0  0.67276  0.85462  0.27206  1.0000
  H   H1282     1.0  0.70668  0.60551  0.33306  1.0000
  C   C809      1.0  0.51199  0.93828  0.14421  1.0000
  H   H1283     1.0  0.66452  0.85248  0.30721  1.0000
  H   H1284     1.0  0.56717  0.52690  0.21673  1.0000
  H   H1285     1.0  0.51961  0.93212  0.10159  1.0000
  C   C810      1.0  0.63552  0.90146  0.16608  1.0000
  C   C811      1.0  0.62430  0.88844  0.17565  1.0000
  C   C812      1.0  0.63131  0.87335  0.18994  1.0000
  C   C813      1.0  0.64960  0.87104  0.19505  1.0000
  C   C814      1.0  0.66080  0.88425  0.18603  1.0000
  C   C815      1.0  0.65382  0.89924  0.17150  1.0000
  H   H1286     1.0  0.61022  0.88986  0.17169  1.0000
  H   H1287     1.0  0.62245  0.86331  0.19684  1.0000
  H   H1288     1.0  0.67483  0.88291  0.19021  1.0000
  H   H1289     1.0  0.66265  0.90924  0.16439  1.0000
  C   C816      1.0  0.65215  0.60439  0.20345  1.0000
  C   C817      1.0  0.63914  0.59266  0.21221  1.0000
  C   C818      1.0  0.62944  0.58277  0.19246  1.0000
  C   C819      1.0  0.63260  0.58441  0.16347  1.0000
  C   C820      1.0  0.64565  0.59611  0.15476  1.0000
  C   C821      1.0  0.65532  0.60602  0.17449  1.0000
  H   H1290     1.0  0.63646  0.59124  0.23447  1.0000
  H   H1291     1.0  0.61951  0.57389  0.19965  1.0000
  H   H1292     1.0  0.64828  0.59754  0.13247  1.0000
  H   H1293     1.0  0.66523  0.61490  0.16724  1.0000
  C   C822      1.0  0.69236  0.72498  0.23020  1.0000
  C   C823      1.0  0.71006  0.72587  0.23852  1.0000
  C   C824      1.0  0.71804  0.74236  0.24059  1.0000
  C   C825      1.0  0.70840  0.75815  0.23466  1.0000
  C   C826      1.0  0.69067  0.75729  0.22655  1.0000
  C   C827      1.0  0.68273  0.74076  0.22422  1.0000
  H   H1294     1.0  0.71764  0.71387  0.24327  1.0000
  H   H1295     1.0  0.73179  0.74287  0.24677  1.0000
  H   H1296     1.0  0.68309  0.76931  0.22189  1.0000
  H   H1297     1.0  0.66904  0.74020  0.21769  1.0000
  H   H1298     1.0  0.69394  0.69529  0.12683  1.0000
  C   C828      1.0  0.52886  0.98708  0.17242  1.0000
  H   H1299     1.0  0.73878  0.84243  0.41542  1.0000
  H   H1300     1.0  0.56034  0.97520  0.19006  1.0000
  H   H1301     1.0  0.72343  0.70381  0.10913  1.0000
  H   H1302     1.0  0.66411  0.96571  0.15781  1.0000
  H   H1303     1.0  0.64070  0.98989  0.21639  1.0000
  C   C829      1.0  0.58997  0.99664  0.20787  1.0000
  H   H1304     1.0  0.55955  0.56023  0.04458  1.0000
  H   H1305     1.0  0.73356  0.68525  0.12712  1.0000
  C   C830      1.0  0.58472  0.97549  0.01305  1.0000
  H   H1306     1.0  0.71501  0.87055  0.13340  1.0000
  H   H1307     1.0  0.64066  0.97969  0.12760  1.0000
  H   H1308     1.0  0.70880  0.85114  0.15172  1.0000
  C   C831      1.0  0.59351  0.98091  0.25236  1.0000
  C   C832      1.0  0.59265  0.98082  0.22274  1.0000
  H   H1309     1.0  0.54152  0.57481  0.08210  1.0000
  H   H1310     1.0  0.75059  0.80752  0.30205  1.0000
  H   H1311     1.0  0.59563  0.96862  0.26370  1.0000
  H   H1312     1.0  0.59410  0.96846  0.21161  1.0000
  C   C833      1.0  0.72812  0.84440  0.37290  1.0000
  C   C834      1.0  0.73166  0.84348  0.34375  1.0000
  H   H1313     1.0  0.67903  0.62208  0.32148  1.0000
  C   C835      1.0  0.63105  0.96659  0.17765  1.0000
  S   S353      1.0  0.58903  0.99712  0.17054  1.0000
  H   H1314     1.0  0.70434  0.67668  0.14447  1.0000
  H   H1315     1.0  0.74210  0.80475  0.35275  1.0000
  H   H1316     1.0  0.54228  0.53227  0.18294  1.0000
  C   C836      1.0  0.71069  0.72034  0.15559  1.0000
  H   H1317     1.0  0.71940  0.81053  0.31593  1.0000
  H   H1318     1.0  0.58226  0.52442  0.48185  1.0000
  N   N81       1.0  0.53544  0.98727  0.20183  1.0000
  C   C837      1.0  0.73190  0.64883  0.35028  1.0000
  C   C838      1.0  0.60226  0.50537  0.25820  1.0000
  H   H1319     1.0  0.63332  0.96066  0.19888  1.0000
  C   C839      1.0  0.74398  0.64836  0.09049  1.0000
  H   H1320     1.0  0.53419  0.53058  0.05170  1.0000
  H   H1321     1.0  0.73628  0.70304  0.18508  1.0000
  H   H1322     1.0  0.71274  0.58561  0.31412  1.0000
  H   H1323     1.0  0.54905  0.54875  0.01664  1.0000
  C   C840      1.0  0.72960  0.64412  0.13602  1.0000
  C   C841      1.0  0.72926  0.64347  0.10632  1.0000
  H   H1324     1.0  0.71834  0.63992  0.14799  1.0000
  H   H1325     1.0  0.71766  0.63880  0.09558  1.0000
  H   H1326     1.0  0.51509  0.97067  0.21694  1.0000
  N   N82       1.0  0.53130  0.55890  0.04861  1.0000
  C   C842      1.0  0.55855  0.53205  0.23396  1.0000
  C   C843      1.0  0.50938  0.53356  0.13637  1.0000
  C   C844      1.0  0.74030  0.82654  0.10751  1.0000
  H   H1327     1.0  0.54439  0.96001  0.20194  1.0000
  C   C845      1.0  0.74173  0.84159  0.39314  1.0000
  H   H1328     1.0  0.69293  0.57472  0.27629  1.0000
  H   H1329     1.0  0.53234  0.52965  0.27154  1.0000
  H   H1330     1.0  0.56103  0.54638  0.23613  1.0000
  N   N83       1.0  0.69075  0.85941  0.11890  1.0000
  C   C846      1.0  0.68350  0.87610  0.10673  1.0000
  C   C847      1.0  0.70345  0.86340  0.14158  1.0000
  C   C848      1.0  0.69990  0.84892  0.09668  1.0000
  C   C849      1.0  0.67619  0.84917  0.13067  1.0000
  H   H1331     1.0  0.67385  0.87361  0.08951  1.0000
  H   H1332     1.0  0.69418  0.88413  0.09773  1.0000
  H   H1333     1.0  0.67644  0.88428  0.12296  1.0000
  H   H1334     1.0  0.70477  0.83589  0.10491  1.0000
  H   H1335     1.0  0.71163  0.85574  0.08833  1.0000
  H   H1336     1.0  0.69099  0.84631  0.07853  1.0000
  H   H1337     1.0  0.68121  0.83653  0.14022  1.0000
  H   H1338     1.0  0.66633  0.84590  0.11416  1.0000
  H   H1339     1.0  0.66900  0.85662  0.14755  1.0000
  C   C850      1.0  0.74269  0.64616  0.39929  1.0000
  H   H1340     1.0  0.69723  0.87162  0.15846  1.0000
  H   H1341     1.0  0.69337  0.59585  0.25913  1.0000
  H   H1342     1.0  0.54398  0.54244  0.07990  1.0000
  H   H1343     1.0  0.51796  0.57354  0.08161  1.0000
  H   H1344     1.0  0.54731  0.95302  0.47491  1.0000
  C   C851      1.0  0.53245  0.54246  0.06537  1.0000
  H   H1345     1.0  0.71477  0.84739  0.37995  1.0000
  C   C852      1.0  0.54949  0.97344  0.20542  1.0000
  H   H1346     1.0  0.71503  0.69664  0.19741  1.0000
  S   S354      1.0  0.74375  0.64561  0.05344  1.0000
  S   S355      1.0  0.59292  0.99620  0.30469  1.0000
  C   C853      1.0  0.59771  0.50595  0.22939  1.0000
  C   C854      1.0  0.50866  0.93475  0.11577  1.0000
  N   N84       1.0  0.66461  0.87909  0.29122  1.0000
  C   C855      1.0  0.66276  0.88817  0.26368  1.0000
  C   C856      1.0  0.68224  0.88233  0.30341  1.0000
  C   C857      1.0  0.65072  0.88585  0.31062  1.0000
  H   H1347     1.0  0.67303  0.88329  0.24853  1.0000
  H   H1348     1.0  0.66403  0.90268  0.26582  1.0000
  H   H1349     1.0  0.64969  0.88575  0.25372  1.0000
  H   H1350     1.0  0.68419  0.87546  0.32404  1.0000
  H   H1351     1.0  0.71319  0.60674  0.29701  1.0000
  H   H1352     1.0  0.72322  0.76230  0.32991  1.0000
  H   H1353     1.0  0.63726  0.88358  0.30202  1.0000
  H   H1354     1.0  0.65173  0.87919  0.33155  1.0000
  H   H1355     1.0  0.67780  0.59290  0.34551  1.0000
  H   H1356     1.0  0.74788  0.66441  0.32308  1.0000
  H   H1357     1.0  0.68376  0.57300  0.32659  1.0000
  H   H1358     1.0  0.51627  0.54713  0.01549  1.0000
  C   C858      1.0  0.52870  0.53604  0.25106  1.0000
  H   H1359     1.0  0.55536  0.97367  0.22698  1.0000
  H   H1360     1.0  0.56307  0.52532  0.25375  1.0000
  H   H1361     1.0  0.53029  0.55052  0.25355  1.0000
  H   H1362     1.0  0.52537  0.98376  0.24366  1.0000
  C   C859      1.0  0.52077  0.98379  0.22132  1.0000
  C   C860      1.0  0.59723  0.98390  0.47968  1.0000
  C   C861      1.0  0.72447  0.69537  0.17956  1.0000
  H   H1363     1.0  0.61679  0.97040  0.17600  1.0000
  H   H1364     1.0  0.69306  0.87731  0.28938  1.0000
  H   H1365     1.0  0.52320  0.50679  0.22062  1.0000
  C   C862      1.0  0.59085  0.99201  0.02094  1.0000
  C   C863      1.0  0.68653  0.58814  0.27559  1.0000
  C   C864      1.0  0.73023  0.64230  0.37799  1.0000
  C   C865      1.0  0.70573  0.59869  0.31230  1.0000
  S   S356      1.0  0.74380  0.85452  0.18047  1.0000
  H   H1366     1.0  0.65175  0.90030  0.31424  1.0000
  C   C866      1.0  0.66106  0.97601  0.17403  1.0000
  N   N85       1.0  0.68712  0.59700  0.30336  1.0000
  C   C867      1.0  0.67853  0.61475  0.30116  1.0000
  S   S357      1.0  0.74653  0.64882  0.18722  1.0000
  H   H1367     1.0  0.68421  0.89664  0.30690  1.0000
  H   H1368     1.0  0.67266  0.58679  0.26808  1.0000
  C   C868      1.0  0.58008  0.50621  0.01781  1.0000
  H   H1369     1.0  0.66447  0.61412  0.29429  1.0000
  H   H1370     1.0  0.52033  0.53616  0.19613  1.0000
  C   C869      1.0  0.57309  0.50783  0.99027  1.0000
  H   H1371     1.0  0.63369  0.95602  0.16176  1.0000
  C   C870      1.0  0.66272  0.85993  0.28710  1.0000
  H   H1372     1.0  0.70474  0.72557  0.13566  1.0000
  H   H1373     1.0  0.73361  0.81502  0.10006  1.0000
  C   C871      1.0  0.74482  0.64938  0.15008  1.0000
  N   N86       1.0  0.73543  0.78671  0.31964  1.0000
  C   C872      1.0  0.72917  0.69935  0.12968  1.0000
  H   H1374     1.0  0.54532  0.50398  0.20750  1.0000
  C   C873      1.0  0.71834  0.79602  0.31368  1.0000
  C   C874      1.0  0.74901  0.79303  0.30005  1.0000
  H   H1375     1.0  0.64955  0.85689  0.27805  1.0000
  H   H1376     1.0  0.52348  0.97403  0.16683  1.0000
  H   H1377     1.0  0.56438  0.51899  0.98517  1.0000
  H   H1378     1.0  0.51817  0.99727  0.16889  1.0000
  N   N87       1.0  0.71624  0.70152  0.15286  1.0000
  C   C875      1.0  0.70060  0.69096  0.14673  1.0000
  C   C876      1.0  0.52982  0.57424  0.06782  1.0000
  N   N88       1.0  0.53975  0.52889  0.22781  1.0000
  C   C877      1.0  0.73348  0.76752  0.31568  1.0000
  C   C878      1.0  0.53725  0.50970  0.22509  1.0000
  H   H1379     1.0  0.61225  0.51396  0.26624  1.0000
  C   C879      1.0  0.59281  0.99658  0.45867  1.0000
  H   H1380     1.0  0.59292  0.99489  0.04302  1.0000
  C   C880      1.0  0.74084  0.79033  0.34903  1.0000
  H   H1381     1.0  0.66355  0.58505  0.31815  1.0000
  H   H1382     1.0  0.71919  0.63418  0.38305  1.0000
  C   C881      1.0  0.59159  0.99678  0.26746  1.0000
  H   H1383     1.0  0.74544  0.79033  0.27768  1.0000
  H   H1384     1.0  0.68527  0.62286  0.28528  1.0000
  H   H1385     1.0  0.53965  0.98963  0.15718  1.0000
  N   N89       1.0  0.64225  0.98189  0.17281  1.0000
  H   H1386     1.0  0.74114  0.64099  0.42037  1.0000
  C   C882      1.0  0.73902  0.83143  0.13606  1.0000
  H   H1387     1.0  0.53689  0.55220  0.20181  1.0000
  H   H1388     1.0  0.72204  0.72865  0.16117  1.0000
  C   C883      1.0  0.67764  0.58650  0.32437  1.0000
  C   C884      1.0  0.74905  0.83972  0.33510  1.0000
  H   H1389     1.0  0.73153  0.82359  0.15049  1.0000
  H   H1390     1.0  0.66453  0.97021  0.19500  1.0000
  H   H1391     1.0  0.70780  0.79180  0.32827  1.0000
  H   H1392     1.0  0.74121  0.70703  0.13369  1.0000
  C   C885      1.0  0.53457  0.53776  0.20110  1.0000
  H   H1393     1.0  0.70060  0.72226  0.17248  1.0000
  H   H1394     1.0  0.69065  0.69218  0.16401  1.0000
  H   H1395     1.0  0.52885  0.58692  0.05601  1.0000
  C   C886      1.0  0.54740  0.56021  0.03121  1.0000
  H   H1396     1.0  0.74613  0.76005  0.31982  1.0000
  H   H1397     1.0  0.72937  0.76447  0.29363  1.0000
  H   H1398     1.0  0.52045  0.54085  0.07852  1.0000
  H   H1399     1.0  0.60460  0.97197  0.47390  1.0000
  H   H1400     1.0  0.71375  0.79345  0.29180  1.0000
  C   C887      1.0  0.74988  0.83661  0.08839  1.0000
  C   C888      1.0  0.74710  0.84664  0.14567  1.0000
  H   H1401     1.0  0.73098  0.78561  0.36443  1.0000
  H   H1402     1.0  0.54711  0.57249  0.01834  1.0000
  S   S358      1.0  0.74849  0.83171  0.05203  1.0000
  H   H1403     1.0  0.51441  0.53388  0.24715  1.0000
  C   C889      1.0  0.63867  0.99539  0.19479  1.0000
  H   H1404     1.0  0.58621  0.50076  0.44584  1.0000
  H   H1405     1.0  0.62405  0.99405  0.14308  1.0000
  H   H1406     1.0  0.66995  0.98717  0.17023  1.0000
  H   H1407     1.0  0.54135  0.50251  0.24467  1.0000
  H   H1408     1.0  0.50989  0.99396  0.21918  1.0000
  H   H1409     1.0  0.51425  0.57084  0.01712  1.0000
  H   H1410     1.0  0.50321  0.55762  0.04272  1.0000
  H   H1411     1.0  0.62479  0.00064  0.19360  1.0000
  Fe  Fe177     1.0  0.72238  0.64975  0.71478  1.0000
  S   S359      1.0  0.69589  0.66237  0.70313  1.0000
  C   C890      1.0  0.52535  0.95246  0.51941  1.0000
  Fe  Fe178     1.0  0.71316  0.64513  0.77746  1.0000
  S   S360      1.0  0.68601  0.65693  0.76923  1.0000
  S   S361      1.0  0.71772  0.63632  0.82353  1.0000
  Fe  Fe179     1.0  0.68502  0.64029  0.72970  1.0000
  S   S362      1.0  0.65966  0.62429  0.72463  1.0000
  Fe  Fe180     1.0  0.69914  0.67775  0.74368  1.0000
  S   S363      1.0  0.69426  0.70604  0.75943  1.0000
  S   S364      1.0  0.71151  0.62712  0.73956  1.0000
  S   S365      1.0  0.72629  0.66648  0.75351  1.0000
  Fe  Fe181     1.0  0.72584  0.83653  0.70861  1.0000
  S   S366      1.0  0.69930  0.83161  0.68941  1.0000
  C   C891      1.0  0.69463  0.68432  0.83334  1.0000
  Fe  Fe182     1.0  0.71335  0.82990  0.76932  1.0000
  S   S367      1.0  0.68593  0.82404  0.75344  1.0000
  S   S368      1.0  0.71635  0.82700  0.81760  1.0000
  Fe  Fe183     1.0  0.69934  0.80821  0.71913  1.0000
  S   S369      1.0  0.69243  0.78167  0.69964  1.0000
  Fe  Fe184     1.0  0.68812  0.84799  0.72534  1.0000
  S   S370      1.0  0.66557  0.86926  0.72792  1.0000
  S   S371      1.0  0.72648  0.81241  0.73650  1.0000
  S   S372      1.0  0.71498  0.85451  0.74283  1.0000
  Fe  Fe185     1.0  0.59100  0.96380  0.57984  1.0000
  S   S373      1.0  0.58293  0.93595  0.58792  1.0000
  S   S374      1.0  0.59788  0.96970  0.53339  1.0000
  Fe  Fe186     1.0  0.58708  0.97202  0.64337  1.0000
  S   S375      1.0  0.57794  0.94494  0.65484  1.0000
  H   H1412     1.0  0.63231  0.96512  0.73668  1.0000
  Fe  Fe187     1.0  0.60042  0.93542  0.62661  1.0000
  S   S376      1.0  0.62198  0.91335  0.63265  1.0000
  Fe  Fe188     1.0  0.56123  0.94788  0.61512  1.0000
  S   S377      1.0  0.53319  0.94144  0.60086  1.0000
  S   S378      1.0  0.61004  0.96255  0.61660  1.0000
  S   S379      1.0  0.56892  0.97571  0.60587  1.0000
  Fe  Fe189     1.0  0.60280  0.54949  0.63777  1.0000
  S   S380      1.0  0.60841  0.52212  0.62002  1.0000
  S   S381      1.0  0.62686  0.56753  0.63933  1.0000
  Fe  Fe190     1.0  0.56239  0.54306  0.63921  1.0000
  S   S382      1.0  0.56555  0.51579  0.62112  1.0000
  S   S383      1.0  0.53600  0.55446  0.65552  1.0000
  Fe  Fe191     1.0  0.58847  0.51302  0.65156  1.0000
  C   C892      1.0  0.59529  0.99006  0.77019  1.0000
  Fe  Fe192     1.0  0.58516  0.52714  0.59090  1.0000
  S   S384      1.0  0.74620  0.63456  0.55379  1.0000
  S   S385      1.0  0.58443  0.53975  0.67134  1.0000
  S   S386      1.0  0.58033  0.55500  0.60714  1.0000
  H   H1413     1.0  0.56066  0.97525  0.54160  1.0000
  C   C893      1.0  0.51487  0.54869  0.64257  1.0000
  H   H1414     1.0  0.68929  0.87769  0.85653  1.0000
  H   H1415     1.0  0.55183  0.93685  0.54879  1.0000
  C   C894      1.0  0.74970  0.65038  0.84125  1.0000
  H   H1416     1.0  0.51896  0.98346  0.78002  1.0000
  H   H1417     1.0  0.72732  0.67599  0.81789  1.0000
  C   C895      1.0  0.68352  0.86541  0.84818  1.0000
  H   H1418     1.0  0.52347  0.94275  0.66091  1.0000
  H   H1419     1.0  0.63670  0.97730  0.66137  1.0000
  C   C896      1.0  0.63366  0.90109  0.65968  1.0000
  C   C897      1.0  0.62929  0.90240  0.68834  1.0000
  C   C898      1.0  0.63920  0.89263  0.70879  1.0000
  C   C899      1.0  0.65349  0.88122  0.70100  1.0000
  C   C900      1.0  0.65779  0.87986  0.67237  1.0000
  C   C901      1.0  0.64797  0.88973  0.65196  1.0000
  H   H1420     1.0  0.61814  0.91071  0.69474  1.0000
  H   H1421     1.0  0.63559  0.89371  0.73079  1.0000
  H   H1422     1.0  0.66869  0.87120  0.66589  1.0000
  H   H1423     1.0  0.65149  0.88850  0.62992  1.0000
  C   C902      1.0  0.65101  0.60835  0.70067  1.0000
  C   C903      1.0  0.63470  0.60074  0.70687  1.0000
  C   C904      1.0  0.62721  0.58815  0.68869  1.0000
  C   C905      1.0  0.63587  0.58298  0.66381  1.0000
  C   C906      1.0  0.65224  0.59051  0.65770  1.0000
  C   C907      1.0  0.65979  0.60301  0.67598  1.0000
  H   H1424     1.0  0.62768  0.60475  0.72577  1.0000
  H   H1425     1.0  0.61461  0.58263  0.69377  1.0000
  H   H1426     1.0  0.65914  0.58668  0.63861  1.0000
  H   H1427     1.0  0.67231  0.60866  0.67076  1.0000
  C   C908      1.0  0.69511  0.72676  0.74191  1.0000
  C   C909      1.0  0.69346  0.72840  0.71261  1.0000
  C   C910      1.0  0.69281  0.74530  0.69999  1.0000
  C   C911      1.0  0.69417  0.76069  0.71640  1.0000
  C   C912      1.0  0.69634  0.75900  0.74559  1.0000
  C   C913      1.0  0.69659  0.74216  0.75826  1.0000
  H   H1428     1.0  0.69205  0.71671  0.69982  1.0000
  H   H1429     1.0  0.69087  0.74644  0.67745  1.0000
  H   H1430     1.0  0.69729  0.77071  0.75849  1.0000
  H   H1431     1.0  0.69773  0.74111  0.78093  1.0000
  H   H1432     1.0  0.65840  0.84726  0.82127  1.0000
  H   H1433     1.0  0.66553  0.85225  0.78613  1.0000
  H   H1434     1.0  0.72039  0.67502  0.87002  1.0000
  C   C914      1.0  0.58570  0.51109  0.48853  1.0000
  C   C915      1.0  0.74592  0.64302  0.64981  1.0000
  H   H1435     1.0  0.69843  0.88486  0.80775  1.0000
  N   N90       1.0  0.72576  0.78994  0.63468  1.0000
  H   H1436     1.0  0.55878  0.50568  0.69234  1.0000
  C   C916      1.0  0.58801  0.50748  0.51753  1.0000
  H   H1437     1.0  0.53599  0.97760  0.75508  1.0000
  C   C917      1.0  0.59220  0.98648  0.50804  1.0000
  H   H1438     1.0  0.61351  0.54799  0.57827  1.0000
  C   C918      1.0  0.73424  0.79422  0.66187  1.0000
  H   H1439     1.0  0.69398  0.85470  0.84982  1.0000
  H   H1440     1.0  0.73754  0.80837  0.66297  1.0000
  N   N91       1.0  0.71044  0.69442  0.84038  1.0000
  H   H1441     1.0  0.68951  0.68777  0.81191  1.0000
  C   C919      1.0  0.58960  0.97643  0.72448  1.0000
  C   C920      1.0  0.73443  0.84385  0.60085  1.0000
  H   H1442     1.0  0.65106  0.97588  0.72213  1.0000
  C   C921      1.0  0.54655  0.97172  0.54006  1.0000
  C   C922      1.0  0.73217  0.83332  0.84350  1.0000
  C   C923      1.0  0.73003  0.82777  0.87164  1.0000
  H   H1443     1.0  0.74121  0.64052  0.92055  1.0000
  H   H1444     1.0  0.71900  0.81969  0.87694  1.0000
  H   H1445     1.0  0.52127  0.94779  0.54069  1.0000
  H   H1446     1.0  0.62565  0.54000  0.54851  1.0000
  N   N92       1.0  0.62044  0.56814  0.54915  1.0000
  S   S387      1.0  0.59702  0.98801  0.80717  1.0000
  C   C924      1.0  0.61879  0.58246  0.57026  1.0000
  H   H1447     1.0  0.58388  0.98185  0.94127  1.0000
  H   H1448     1.0  0.63119  0.58363  0.58280  1.0000
  C   C925      1.0  0.73409  0.64223  0.84889  1.0000
  C   C926      1.0  0.73124  0.63865  0.87769  1.0000
  H   H1449     1.0  0.54132  0.97542  0.48454  1.0000
  C   C927      1.0  0.62434  0.55119  0.56367  1.0000
  H   H1450     1.0  0.71928  0.63230  0.88398  1.0000
  H   H1451     1.0  0.60027  0.57948  0.52182  1.0000
  H   H1452     1.0  0.60432  0.55606  0.51753  1.0000
  H   H1453     1.0  0.63249  0.58454  0.51817  1.0000
  C   C928      1.0  0.73051  0.63823  0.63575  1.0000
  C   C929      1.0  0.73082  0.63526  0.60637  1.0000
  H   H1454     1.0  0.71839  0.63683  0.64748  1.0000
  H   H1455     1.0  0.71885  0.63161  0.59559  1.0000
  H   H1456     1.0  0.67251  0.86181  0.86233  1.0000
  H   H1457     1.0  0.55005  0.54345  0.70929  1.0000
  H   H1458     1.0  0.52297  0.94160  0.50422  1.0000
  C   C930      1.0  0.54465  0.51019  0.69250  1.0000
  H   H1459     1.0  0.70300  0.79859  0.61031  1.0000
  H   H1460     1.0  0.60809  0.57996  0.58570  1.0000
  C   C931      1.0  0.69251  0.87234  0.80081  1.0000
  H   H1461     1.0  0.69767  0.66983  0.83354  1.0000
  H   H1462     1.0  0.65189  0.93263  0.68502  1.0000
  H   H1463     1.0  0.51197  0.51402  0.71331  1.0000
  S   S388      1.0  0.59106  0.99467  0.67384  1.0000
  H   H1464     1.0  0.62122  0.94093  0.67156  1.0000
  H   H1465     1.0  0.72887  0.69659  0.87484  1.0000
  H   H1466     1.0  0.71284  0.81554  0.63085  1.0000
  H   H1467     1.0  0.55856  0.98174  0.79197  1.0000
  H   H1468     1.0  0.59814  0.51527  0.71737  1.0000
  H   H1469     1.0  0.59242  0.56422  0.54752  1.0000
  C   C932      1.0  0.66362  0.88199  0.81709  1.0000
  C   C933      1.0  0.75004  0.84069  0.64557  1.0000
  H   H1470     1.0  0.53878  0.98389  0.53417  1.0000
  C   C934      1.0  0.55122  0.53311  0.72596  1.0000
  H   H1471     1.0  0.64612  0.95637  0.65025  1.0000
  H   H1472     1.0  0.74500  0.69952  0.55037  1.0000
  C   C935      1.0  0.59219  0.99254  0.71091  1.0000
  C   C936      1.0  0.66998  0.85107  0.80853  1.0000
  C   C937      1.0  0.73292  0.68171  0.59516  1.0000
  H   H1473     1.0  0.61176  0.96192  0.68141  1.0000
  H   H1474     1.0  0.71447  0.76755  0.61452  1.0000
  H   H1475     1.0  0.56959  0.94507  0.52811  1.0000
  H   H1476     1.0  0.65197  0.87896  0.83029  1.0000
  H   H1477     1.0  0.54230  0.96780  0.56154  1.0000
  H   H1478     1.0  0.63653  0.56121  0.51334  1.0000
  C   C938      1.0  0.74383  0.70643  0.62127  1.0000
  H   H1479     1.0  0.64582  0.93574  0.72124  1.0000
  H   H1480     1.0  0.54782  0.53951  0.74644  1.0000
  C   C939      1.0  0.54174  0.50482  0.74242  1.0000
  H   H1481     1.0  0.71136  0.76856  0.65198  1.0000
  N   N93       1.0  0.53966  0.51823  0.71987  1.0000
  C   C940      1.0  0.74367  0.64334  0.89856  1.0000
  H   H1482     1.0  0.61572  0.59547  0.56021  1.0000
  C   C941      1.0  0.55038  0.99313  0.80008  1.0000
  C   C942      1.0  0.72089  0.77122  0.63473  1.0000
  H   H1483     1.0  0.69531  0.71707  0.85528  1.0000
  S   S389      1.0  0.74887  0.83767  0.54878  1.0000
  H   H1484     1.0  0.56537  0.52865  0.72704  1.0000
  H   H1485     1.0  0.57756  0.95932  0.97768  1.0000
  H   H1486     1.0  0.71911  0.68723  0.59523  1.0000
  H   H1487     1.0  0.74000  0.82832  0.91457  1.0000
  H   H1488     1.0  0.70660  0.69220  0.88521  1.0000
  C   C943      1.0  0.70579  0.71352  0.83967  1.0000
  H   H1489     1.0  0.72056  0.69512  0.79810  1.0000
  C   C944      1.0  0.74313  0.70719  0.57027  1.0000
  H   H1490     1.0  0.54180  0.98823  0.81722  1.0000
  H   H1491     1.0  0.52468  0.53352  0.60726  1.0000
  C   C945      1.0  0.70968  0.80132  0.63070  1.0000
  C   C946      1.0  0.59416  0.50371  0.72878  1.0000
  C   C947      1.0  0.71684  0.68938  0.86888  1.0000
  H   H1492     1.0  0.55393  0.93074  0.51239  1.0000
  H   H1493     1.0  0.74241  0.80692  0.61129  1.0000
  H   H1494     1.0  0.72254  0.84854  0.64172  1.0000
  H   H1495     1.0  0.70067  0.71760  0.81847  1.0000
  C   C948      1.0  0.60366  0.56700  0.53325  1.0000
  H   H1496     1.0  0.59641  0.51599  0.76962  1.0000
  H   H1497     1.0  0.73223  0.79043  0.59045  1.0000
  C   C949      1.0  0.51259  0.94281  0.61893  1.0000
  H   H1498     1.0  0.65882  0.88389  0.79495  1.0000
  H   H1499     1.0  0.74833  0.84829  0.81566  1.0000
  C   C950      1.0  0.74984  0.83891  0.58598  1.0000
  H   H1500     1.0  0.68839  0.87404  0.77835  1.0000
  H   H1501     1.0  0.64780  0.57267  0.54091  1.0000
  C   C951      1.0  0.72448  0.69043  0.81953  1.0000
  H   H1502     1.0  0.51920  0.53514  0.70196  1.0000
  C   C952      1.0  0.51303  0.53829  0.61847  1.0000
  C   C953      1.0  0.73449  0.84466  0.63051  1.0000
  C   C954      1.0  0.58569  0.98489  0.96336  1.0000
  H   H1503     1.0  0.70317  0.86186  0.80158  1.0000
  H   H1504     1.0  0.51674  0.53079  0.73891  1.0000
  H   H1505     1.0  0.67997  0.83996  0.80975  1.0000
  H   H1506     1.0  0.63666  0.55161  0.57657  1.0000
  C   C955      1.0  0.63497  0.57182  0.52949  1.0000
  H   H1507     1.0  0.68371  0.68702  0.84855  1.0000
  N   N94       1.0  0.54410  0.95736  0.51948  1.0000
  H   H1508     1.0  0.61522  0.94497  0.70761  1.0000
  S   S390      1.0  0.75055  0.84121  0.68284  1.0000
  C   C956      1.0  0.55535  0.94182  0.52750  1.0000
  S   S391      1.0  0.58554  0.52524  0.54231  1.0000
  C   C957      1.0  0.74641  0.63739  0.59086  1.0000
  C   C958      1.0  0.52105  0.52480  0.71854  1.0000
  H   H1509     1.0  0.54278  0.51977  0.67488  1.0000
  H   H1510     1.0  0.69991  0.79930  0.64783  1.0000
  H   H1511     1.0  0.73703  0.69683  0.82513  1.0000
  H   H1512     1.0  0.58959  0.96262  0.76434  1.0000
  H   H1513     1.0  0.56338  0.96687  0.49057  1.0000
  C   C959      1.0  0.59143  0.97515  0.75397  1.0000
  H   H1514     1.0  0.73267  0.76229  0.63811  1.0000
  H   H1515     1.0  0.72234  0.84705  0.58937  1.0000
  N   N95       1.0  0.67674  0.59487  0.79265  1.0000
  C   C960      1.0  0.69490  0.59631  0.80385  1.0000
  C   C961      1.0  0.67749  0.58876  0.76303  1.0000
  C   C962      1.0  0.66751  0.61235  0.79392  1.0000
  C   C963      1.0  0.66701  0.58213  0.80978  1.0000
  H   H1516     1.0  0.69487  0.60125  0.82600  1.0000
  H   H1517     1.0  0.70260  0.60580  0.79130  1.0000
  H   H1518     1.0  0.70231  0.58338  0.80345  1.0000
  H   H1519     1.0  0.68423  0.57555  0.76115  1.0000
  H   H1520     1.0  0.66400  0.58790  0.75369  1.0000
  H   H1521     1.0  0.68476  0.59807  0.74949  1.0000
  H   H1522     1.0  0.65386  0.61193  0.78506  1.0000
  H   H1523     1.0  0.67458  0.62222  0.78129  1.0000
  H   H1524     1.0  0.66662  0.61743  0.81590  1.0000
  H   H1525     1.0  0.65324  0.58083  0.80183  1.0000
  H   H1526     1.0  0.66618  0.58636  0.83225  1.0000
  H   H1527     1.0  0.67358  0.56876  0.80926  1.0000
  H   H1528     1.0  0.66431  0.94707  0.70697  1.0000
  H   H1529     1.0  0.58614  0.96499  0.71231  1.0000
  H   H1530     1.0  0.62907  0.98236  0.71112  1.0000
  H   H1531     1.0  0.66875  0.89480  0.82443  1.0000
  N   N96       1.0  0.67740  0.86772  0.81870  1.0000
  N   N97       1.0  0.63878  0.95761  0.69402  1.0000
  C   C964      1.0  0.64548  0.96594  0.66813  1.0000
  C   C965      1.0  0.62096  0.95106  0.68849  1.0000
  C   C966      1.0  0.63781  0.97079  0.71702  1.0000
  C   C967      1.0  0.65075  0.94264  0.70223  1.0000
  H   H1532     1.0  0.65898  0.97098  0.67136  1.0000
  H   H1533     1.0  0.71748  0.72157  0.84432  1.0000
  H   H1534     1.0  0.51645  0.96390  0.51371  1.0000
  C   C968      1.0  0.51149  0.94298  0.64839  1.0000
  C   C969      1.0  0.54918  0.96343  0.49109  1.0000
  H   H1535     1.0  0.73444  0.67309  0.57621  1.0000
  C   C970      1.0  0.59324  0.50406  0.75839  1.0000
  H   H1536     1.0  0.72539  0.79166  0.67997  1.0000
  H   H1537     1.0  0.54342  0.99172  0.94160  1.0000
  C   C971      1.0  0.74197  0.83261  0.89308  1.0000
  H   H1538     1.0  0.74586  0.69810  0.64051  1.0000
  H   H1539     1.0  0.52015  0.99502  0.74689  1.0000
  H   H1540     1.0  0.73448  0.67311  0.61410  1.0000
  H   H1541     1.0  0.55988  0.99783  0.74572  1.0000
  C   C972      1.0  0.52819  0.98893  0.76427  1.0000
  C   C973      1.0  0.74646  0.84385  0.83710  1.0000
  N   N98       1.0  0.74597  0.69579  0.59530  1.0000
  S   S392      1.0  0.74643  0.64742  0.68637  1.0000
  H   H1542     1.0  0.73033  0.71268  0.62264  1.0000
  H   H1543     1.0  0.53844  0.51046  0.76352  1.0000
  H   H1544     1.0  0.72958  0.71334  0.56987  1.0000
  C   C974      1.0  0.73826  0.79301  0.61143  1.0000
  H   H1545     1.0  0.74671  0.78631  0.66530  1.0000
  H   H1546     1.0  0.75051  0.78455  0.61349  1.0000
  C   C975      1.0  0.58216  0.97207  0.98411  1.0000
  Fe  Fe193     1.0  0.89676  0.01652  0.39490  1.0000
  S   S393      1.0  0.91340  0.03813  0.41152  1.0000
  H   H1547     1.0  0.76320  0.30269  0.41301  1.0000
  Fe  Fe194     1.0  0.90123  0.02765  0.33291  1.0000
  S   S394      1.0  0.91717  0.05093  0.34621  1.0000
  C   C976      1.0  0.89775  0.49148  0.46672  1.0000
  Fe  Fe195     1.0  0.93165  0.03181  0.37512  1.0000
  S   S395      1.0  0.96113  0.02383  0.37415  1.0000
  Fe  Fe196     1.0  0.89726  0.05532  0.38145  1.0000
  S   S396      1.0  0.88651  0.08260  0.39621  1.0000
  C   C977      1.0  0.77547  0.27075  0.03696  1.0000
  S   S397      1.0  0.88013  0.03379  0.36571  1.0000
  Fe  Fe197     1.0  0.89801  0.45561  0.34092  1.0000
  S   S398      1.0  0.90282  0.42725  0.35410  1.0000
  S   S399      1.0  0.89519  0.45824  0.29272  1.0000
  Fe  Fe198     1.0  0.89933  0.46735  0.40312  1.0000
  S   S400      1.0  0.90398  0.43987  0.42001  1.0000
  H   H1548     1.0  0.93665  0.01816  0.25245  1.0000
  Fe  Fe199     1.0  0.92327  0.43748  0.38385  1.0000
  S   S401      1.0  0.95077  0.42459  0.38720  1.0000
  Fe  Fe200     1.0  0.88289  0.43211  0.38877  1.0000
  S   S402      1.0  0.85805  0.41523  0.39164  1.0000
  S   S403      1.0  0.91974  0.46527  0.36867  1.0000
  S   S404      1.0  0.87708  0.46017  0.37411  1.0000
  S   S405      1.0  0.90118  0.49191  0.42990  1.0000
  H   H1549     1.0  0.87806  0.42500  0.30457  1.0000
  H   H1550     1.0  0.88345  0.44759  0.99903  1.0000
  C   C978      1.0  0.86656  0.41696  0.31030  1.0000
  C   C979      1.0  0.80181  0.10412  0.39179  1.0000
  H   H1551     1.0  0.76288  0.26645  0.08930  1.0000
  Fe  Fe201     1.0  0.77544  0.15103  0.01820  1.0000
  S   S406      1.0  0.76978  0.14327  0.06429  1.0000
  Fe  Fe202     1.0  0.76740  0.15404  0.45533  1.0000
  H   H1552     1.0  0.77244  0.30448  0.34914  1.0000
  S   S407      1.0  0.79994  0.16503  0.00452  1.0000
  S   S408      1.0  0.79518  0.15560  0.43929  1.0000
  H   H1553     1.0  0.77623  0.21282  0.46278  1.0000
  H   H1554     1.0  0.81003  0.09939  0.37372  1.0000
  H   H1555     1.0  0.75841  0.11470  0.40380  1.0000
  C   C980      1.0  0.83482  0.41566  0.31325  1.0000
  C   C981      1.0  0.75862  0.15775  0.34635  1.0000
  H   H1556     1.0  0.93418  0.03825  0.29289  1.0000
  Fe  Fe203     1.0  0.78137  0.33459  0.02642  1.0000
  S   S409      1.0  0.77705  0.33569  0.07466  1.0000
  H   H1557     1.0  0.95613  0.47832  0.43029  1.0000
  H   H1558     1.0  0.95782  0.02661  0.24375  1.0000
  S   S410      1.0  0.80986  0.32831  0.01540  1.0000
  S   S411      1.0  0.78651  0.32491  0.44454  1.0000
  H   H1559     1.0  0.77476  0.10509  0.42755  1.0000
  H   H1560     1.0  0.84620  0.33476  0.99280  1.0000
  H   H1561     1.0  0.77623  0.33761  0.13525  1.0000
  H   H1562     1.0  0.90456  0.03272  0.46986  1.0000
  H   H1563     1.0  0.82810  0.07465  0.44097  1.0000
  C   C982      1.0  0.75942  0.29192  0.39848  1.0000
  H   H1564     1.0  0.76914  0.34765  0.39341  1.0000
  H   H1565     1.0  0.77115  0.34001  0.34256  1.0000
  H   H1566     1.0  0.79042  0.30027  0.05574  1.0000
  H   H1567     1.0  0.76682  0.12060  0.35380  1.0000
  H   H1568     1.0  0.93139  0.45713  0.26329  1.0000
  S   S412      1.0  0.77153  0.31374  0.99706  1.0000
  C   C983      1.0  0.99935  0.06014  0.38730  1.0000
  H   H1569     1.0  0.81145  0.26822  0.08011  1.0000
  H   H1570     1.0  0.77001  0.16169  0.38771  1.0000
  S   S413      1.0  0.82856  0.35408  0.47163  1.0000
  N   N99       1.0  0.94935  0.46415  0.46788  1.0000
  S   S414      1.0  0.75764  0.16712  0.98953  1.0000
  H   H1571     1.0  0.94932  0.47588  0.32969  1.0000
  C   C984      1.0  0.77698  0.26231  0.08601  1.0000
  H   H1572     1.0  0.86612  0.02540  0.46801  1.0000
  C   C985      1.0  0.75364  0.14935  0.09043  1.0000
  H   H1573     1.0  0.78395  0.26372  0.10657  1.0000
  H   H1574     1.0  0.86173  0.37164  0.47011  1.0000
  C   C986      1.0  0.80231  0.22242  0.46963  1.0000
  C   C987      1.0  0.85004  0.39856  0.41480  1.0000
  C   C988      1.0  0.83279  0.39250  0.41072  1.0000
  C   C989      1.0  0.82592  0.37910  0.42794  1.0000
  C   C990      1.0  0.83629  0.37137  0.44946  1.0000
  C   C991      1.0  0.85351  0.37750  0.45366  1.0000
  C   C992      1.0  0.86032  0.39100  0.43658  1.0000
  H   H1575     1.0  0.82464  0.39819  0.39404  1.0000
  H   H1576     1.0  0.81268  0.37462  0.42433  1.0000
  H   H1577     1.0  0.94971  0.48598  0.29539  1.0000
  H   H1578     1.0  0.87361  0.39538  0.44004  1.0000
  C   C993      1.0  0.98693  0.42741  0.38433  1.0000
  C   C994      1.0  0.97044  0.43655  0.38419  1.0000
  C   C995      1.0  0.96995  0.45496  0.38207  1.0000
  H   H1579     1.0  0.98746  0.41316  0.38602  1.0000
  H   H1580     1.0  0.95742  0.46219  0.38212  1.0000
  C   C996      1.0  0.86636  0.08968  0.41313  1.0000
  C   C997      1.0  0.85318  0.07794  0.42022  1.0000
  C   C998      1.0  0.83801  0.08395  0.43524  1.0000
  C   C999      1.0  0.83547  0.10188  0.44271  1.0000
  C   C1000     1.0  0.84839  0.11371  0.43488  1.0000
  C   C1001     1.0  0.86377  0.10761  0.42044  1.0000
  H   H1581     1.0  0.85476  0.06422  0.41421  1.0000
  H   H1582     1.0  0.93024  0.47533  0.30703  1.0000
  H   H1583     1.0  0.84673  0.12753  0.44037  1.0000
  H   H1584     1.0  0.87380  0.11687  0.41502  1.0000
  C   C1002     1.0  0.98265  0.05253  0.38412  1.0000
  C   C1003     1.0  0.98158  0.03448  0.37831  1.0000
  H   H1585     1.0  0.94531  0.44047  0.44396  1.0000
  H   H1586     1.0  0.97066  0.06058  0.38634  1.0000
  H   H1587     1.0  0.75859  0.27605  0.34791  1.0000
  C   C1004     1.0  0.90706  0.47887  0.01151  1.0000
  H   H1588     1.0  0.83483  0.40332  0.30053  1.0000
  C   C1005     1.0  0.90414  0.01069  0.00685  1.0000
  H   H1589     1.0  0.90103  0.49633  0.29990  1.0000
  H   H1590     1.0  0.91384  0.46757  0.02109  1.0000
  C   C1006     1.0  0.77569  0.24123  0.46708  1.0000
  C   C1007     1.0  0.78848  0.27773  0.40144  1.0000
  H   H1591     1.0  0.77034  0.29686  0.07451  1.0000
  C   C1008     1.0  0.89662  0.47283  0.23939  1.0000
  C   C1009     1.0  0.89753  0.47617  0.26860  1.0000
  H   H1592     1.0  0.79125  0.29419  0.09224  1.0000
  H   H1593     1.0  0.84989  0.43971  0.34577  1.0000
  H   H1594     1.0  0.89443  0.45956  0.23206  1.0000
  H   H1595     1.0  0.86812  0.41311  0.33288  1.0000
  C   C1010     1.0  0.94869  0.03634  0.29642  1.0000
  C   C1011     1.0  0.75792  0.34217  0.38271  1.0000
  H   H1596     1.0  0.80048  0.27291  0.38993  1.0000
  H   H1597     1.0  0.86743  0.40463  0.29760  1.0000
  H   H1598     1.0  0.82183  0.42272  0.31007  1.0000
  S   S415      1.0  0.90402  0.49149  0.06558  1.0000
  H   H1599     1.0  0.97719  0.46775  0.28564  1.0000
  H   H1600     1.0  0.89743  0.02323  0.22417  1.0000
  H   H1601     1.0  0.78639  0.13153  0.36485  1.0000
  H   H1602     1.0  0.86509  0.43950  0.01839  1.0000
  H   H1603     1.0  0.81049  0.27532  0.04407  1.0000
  H   H1604     1.0  0.93136  0.00671  0.30128  1.0000
  C   C1012     1.0  0.78557  0.25639  0.47133  1.0000
  H   H1605     1.0  0.78354  0.26641  0.41373  1.0000
  H   H1606     1.0  0.85935  0.44039  0.26902  1.0000
  S   S416      1.0  0.89803  0.02434  0.28480  1.0000
  H   H1607     1.0  0.77606  0.25674  0.02974  1.0000
  C   C1013     1.0  0.84907  0.44300  0.32289  1.0000
  Fe  Fe204     1.0  0.80172  0.34081  0.47615  1.0000
  H   H1608     1.0  0.80499  0.25317  0.05279  1.0000
  H   H1609     1.0  0.83569  0.43938  0.27079  1.0000
  Fe  Fe205     1.0  0.80202  0.13531  0.47270  1.0000
  C   C1014     1.0  0.89009  0.47717  0.48008  1.0000
  H   H1610     1.0  0.96750  0.44802  0.44330  1.0000
  N   N100      1.0  0.78514  0.27299  0.06379  1.0000
  C   C1015     1.0  0.81184  0.24536  0.98666  1.0000
  C   C1016     1.0  0.80383  0.26714  0.06011  1.0000
  C   C1017     1.0  0.78425  0.29182  0.07197  1.0000
  H   H1611     1.0  0.89426  0.06284  0.45160  1.0000
  H   H1612     1.0  0.95130  0.03831  0.31932  1.0000
  S   S417      1.0  0.77956  0.12913  0.98625  1.0000
  C   C1018     1.0  0.80390  0.25452  0.47478  1.0000
  H   H1613     1.0  0.88582  0.46609  0.46772  1.0000
  H   H1614     1.0  0.78566  0.31079  0.37887  1.0000
  H   H1615     1.0  0.81045  0.21683  0.98778  1.0000
  H   H1616     1.0  0.97580  0.45714  0.31941  1.0000
  H   H1617     1.0  0.95110  0.46775  0.25272  1.0000
  H   H1618     1.0  0.75378  0.28146  0.41194  1.0000
  H   H1619     1.0  0.76151  0.24256  0.46420  1.0000
  H   H1620     1.0  0.84833  0.46796  0.01083  1.0000
  C   C1019     1.0  0.95565  0.44679  0.45695  1.0000
  N   N101      1.0  0.95167  0.45756  0.29515  1.0000
  C   C1020     1.0  0.97120  0.45660  0.29706  1.0000
  C   C1021     1.0  0.94496  0.47443  0.30738  1.0000
  C   C1022     1.0  0.94437  0.44266  0.31095  1.0000
  C   C1023     1.0  0.94609  0.45656  0.26528  1.0000
  H   H1621     1.0  0.97674  0.44407  0.28793  1.0000
  H   H1622     1.0  0.85397  0.04477  0.01043  1.0000
  C   C1024     1.0  0.75898  0.33798  0.35388  1.0000
  S   S418      1.0  0.81317  0.20134  0.46875  1.0000
  H   H1623     1.0  0.86715  0.47585  0.99263  1.0000
  H   H1624     1.0  0.77715  0.12688  0.41402  1.0000
  H   H1625     1.0  0.94809  0.44312  0.33364  1.0000
  H   H1626     1.0  0.94934  0.42970  0.30262  1.0000
  H   H1627     1.0  0.92967  0.44284  0.30975  1.0000
  C   C1025     1.0  0.97432  0.01675  0.29203  1.0000
  H   H1628     1.0  0.95095  0.44405  0.25526  1.0000
  H   H1629     1.0  0.78125  0.27879  0.01993  1.0000
  N   N102      1.0  0.78291  0.10622  0.38407  1.0000
  H   H1630     1.0  0.86840  0.02702  0.99847  1.0000
  C   C1026     1.0  0.94596  0.00498  0.30318  1.0000
  H   H1631     1.0  0.85761  0.04676  0.45700  1.0000
  C   C1027     1.0  0.87067  0.44082  0.99682  1.0000
  H   H1632     1.0  0.00005  0.07407  0.39196  1.0000
  H   H1633     1.0  0.79424  0.29498  0.35372  1.0000
  H   H1634     1.0  0.80725  0.11681  0.39923  1.0000
  H   H1635     1.0  0.97956  0.00349  0.28548  1.0000
  C   C1028     1.0  0.78211  0.29946  0.36524  1.0000
  C   C1029     1.0  0.77285  0.11347  0.40839  1.0000
  H   H1636     1.0  0.81168  0.26609  0.47787  1.0000
  H   H1637     1.0  0.84879  0.42002  0.26139  1.0000
  H   H1638     1.0  0.90542  0.02326  0.01735  1.0000
  H   H1639     1.0  0.76671  0.13360  0.12271  1.0000
  H   H1640     1.0  0.83660  0.45092  0.31953  1.0000
  H   H1641     1.0  0.77742  0.24802  0.08040  1.0000
  H   H1642     1.0  0.98528  0.47839  0.37890  1.0000
  H   H1643     1.0  0.95932  0.43749  0.47434  1.0000
  C   C1030     1.0  0.84828  0.43185  0.27530  1.0000
  S   S419      1.0  0.81597  0.10857  0.46182  1.0000
  H   H1644     1.0  0.86026  0.45166  0.31786  1.0000
  Fe  Fe206     1.0  0.76260  0.33949  0.46161  1.0000
  C   C1031     1.0  0.89844  0.48652  0.21941  1.0000
  H   H1645     1.0  0.77025  0.16188  0.33523  1.0000
  C   C1032     1.0  0.76285  0.33531  0.12838  1.0000
  C   C1033     1.0  0.98578  0.46412  0.38031  1.0000
  H   H1646     1.0  0.80380  0.09442  0.40924  1.0000
  H   H1647     1.0  0.95542  0.00326  0.24886  1.0000
  H   H1648     1.0  0.76331  0.25985  0.37493  1.0000
  H   H1649     1.0  0.78351  0.08288  0.35829  1.0000
  H   H1650     1.0  0.78812  0.11323  0.34094  1.0000
  S   S420      1.0  0.77425  0.27722  0.47056  1.0000
  C   C1034     1.0  0.86996  0.03881  0.46126  1.0000
  H   H1651     1.0  0.83569  0.41171  0.33593  1.0000
  H   H1652     1.0  0.75589  0.11279  0.03133  1.0000
  C   C1035     1.0  0.75923  0.33391  0.09926  1.0000
  C   C1036     1.0  0.85473  0.46859  0.98977  1.0000
  C   C1037     1.0  0.90039  0.00989  0.23136  1.0000
  H   H1653     1.0  0.89761  0.48373  0.19707  1.0000
  N   N103      1.0  0.95505  0.01865  0.28704  1.0000
  N   N104      1.0  0.84966  0.42686  0.30540  1.0000
  C   C1038     1.0  0.77603  0.08885  0.37631  1.0000
  C   C1039     1.0  0.90135  0.49310  0.02858  1.0000
  H   H1654     1.0  0.87553  0.07372  0.46766  1.0000
  H   H1655     1.0  0.78018  0.26546  0.35015  1.0000
  C   C1040     1.0  0.90040  0.49343  0.27759  1.0000
  C   C1041     1.0  0.78097  0.11841  0.35984  1.0000
  H   H1656     1.0  0.76131  0.27504  0.03885  1.0000
  C   C1042     1.0  0.85573  0.03443  0.99389  1.0000
  N   N105      1.0  0.77474  0.28503  0.38203  1.0000
  S   S421      1.0  0.77969  0.35633  0.99362  1.0000
  Fe  Fe207     1.0  0.79821  0.17592  0.47364  1.0000
  H   H1657     1.0  0.95533  0.04702  0.28484  1.0000
  C   C1043     1.0  0.76894  0.27095  0.36288  1.0000
  C   C1044     1.0  0.78398  0.22434  0.46635  1.0000
  H   H1658     1.0  0.77712  0.07942  0.39432  1.0000
  S   S422      1.0  0.91606  0.00847  0.36103  1.0000
  H   H1659     1.0  0.84490  0.02498  0.99637  1.0000
  H   H1660     1.0  0.87707  0.03719  0.44084  1.0000
  H   H1661     1.0  0.93415  0.47011  0.43050  1.0000
  H   H1662     1.0  0.93914  0.48895  0.45139  1.0000
  C   C1045     1.0  0.94454  0.47590  0.44397  1.0000
  H   H1663     1.0  0.83517  0.43983  0.99645  1.0000
  C   C1046     1.0  0.88695  0.06443  0.47185  1.0000
  H   H1664     1.0  0.76184  0.09002  0.37003  1.0000
  C   C1047     1.0  0.75853  0.15760  0.37605  1.0000
  H   H1665     1.0  0.98165  0.02687  0.28023  1.0000
  H   H1666     1.0  0.79266  0.28780  0.41699  1.0000
  C   C1048     1.0  0.90134  0.00643  0.26056  1.0000
  C   C1049     1.0  0.81224  0.23759  0.47381  1.0000
  C   C1050     1.0  0.95113  0.01658  0.25666  1.0000
  C   C1051     1.0  0.75535  0.14211  0.11775  1.0000
  H   H1667     1.0  0.82495  0.24540  0.99585  1.0000
  H   H1668     1.0  0.86611  0.32270  0.00205  1.0000
  H   H1669     1.0  0.97756  0.01839  0.31486  1.0000
  H   H1670     1.0  0.96115  0.01449  0.99767  1.0000
  C   C1052     1.0  0.99734  0.02425  0.37547  1.0000
  N   N106      1.0  0.88107  0.04729  0.48273  1.0000
  H   H1671     1.0  0.92257  0.45624  0.47366  1.0000
  H   H1672     1.0  0.82644  0.23621  0.47629  1.0000
  H   H1673     1.0  0.94926  0.00560  0.32603  1.0000
  Fe  Fe208     1.0  0.78161  0.30564  0.47975  1.0000
  H   H1674     1.0  0.87368  0.42730  0.98864  1.0000
  H   H1675     1.0  0.97558  0.47398  0.47176  1.0000
  H   H1676     1.0  0.99670  0.01029  0.37104  1.0000
  S   S423      1.0  0.81395  0.28159  0.98544  1.0000
  H   H1677     1.0  0.75237  0.33538  0.17094  1.0000
  Fe  Fe209     1.0  0.79975  0.30863  0.98447  1.0000
  C   C1053     1.0  0.85979  0.33116  0.98542  1.0000
  Fe  Fe210     1.0  0.90131  0.01581  0.89839  1.0000
  S   S424      1.0  0.90407  0.04435  0.90901  1.0000
  H   H1678     1.0  0.84493  0.40407  0.79280  1.0000
  Fe  Fe211     1.0  0.90038  0.02155  0.83406  1.0000
  S   S425      1.0  0.90286  0.05117  0.83942  1.0000
  H   H1679     1.0  0.83807  0.33858  0.94167  1.0000
  Fe  Fe212     1.0  0.92347  0.04415  0.87281  1.0000
  S   S426      1.0  0.94937  0.05794  0.88014  1.0000
  Fe  Fe213     1.0  0.88331  0.04970  0.87566  1.0000
  S   S427      1.0  0.85712  0.06535  0.88378  1.0000
  S   S428      1.0  0.77068  0.16155  0.56462  1.0000
  S   S429      1.0  0.87934  0.02072  0.86752  1.0000
  Fe  Fe214     1.0  0.89612  0.46387  0.83907  1.0000
  S   S430      1.0  0.91017  0.43761  0.84602  1.0000
  S   S431      1.0  0.88430  0.46984  0.79512  1.0000
  Fe  Fe215     1.0  0.89806  0.47211  0.90313  1.0000
  S   S432      1.0  0.91228  0.44637  0.91389  1.0000
  H   H1680     1.0  0.84774  0.29903  0.93981  1.0000
  Fe  Fe216     1.0  0.92853  0.45201  0.87487  1.0000
  S   S433      1.0  0.95804  0.45416  0.86559  1.0000
  Fe  Fe217     1.0  0.89251  0.43424  0.88407  1.0000
  S   S434      1.0  0.87452  0.41022  0.88552  1.0000
  S   S435      1.0  0.91509  0.47852  0.86603  1.0000
  S   S436      1.0  0.87763  0.45984  0.87556  1.0000
  C   C1054     1.0  0.84158  0.44137  0.97552  1.0000
  C   C1055     1.0  0.75691  0.14079  0.88035  1.0000
  H   H1681     1.0  0.85826  0.03368  0.92225  1.0000
  S   S437      1.0  0.88948  0.49163  0.56275  1.0000
  H   H1682     1.0  0.75860  0.09386  0.70516  1.0000
  S   S438      1.0  0.92223  0.01512  0.86520  1.0000
  Fe  Fe218     1.0  0.77840  0.15490  0.51843  1.0000
  C   C1056     1.0  0.87839  0.40260  0.81207  1.0000
  Fe  Fe219     1.0  0.76350  0.14647  0.95664  1.0000
  H   H1683     1.0  0.82729  0.04290  0.96240  1.0000
  S   S439      1.0  0.80728  0.15581  0.50621  1.0000
  S   S440      1.0  0.78678  0.16013  0.93881  1.0000
  C   C1057     1.0  0.82809  0.38443  0.56918  1.0000
  H   H1684     1.0  0.84804  0.42097  0.76684  1.0000
  H   H1685     1.0  0.87317  0.43618  0.82886  1.0000
  H   H1686     1.0  0.99169  0.47510  0.94994  1.0000
  H   H1687     1.0  0.87114  0.02077  0.94713  1.0000
  C   C1058     1.0  0.75413  0.16401  0.61653  1.0000
  Fe  Fe220     1.0  0.77467  0.33547  0.52376  1.0000
  H   H1688     1.0  0.87779  0.30962  0.92897  1.0000
  Fe  Fe221     1.0  0.77192  0.33482  0.96327  1.0000
  H   H1689     1.0  0.87936  0.45866  0.95091  1.0000
  S   S441      1.0  0.79913  0.31988  0.51014  1.0000
  S   S442      1.0  0.79970  0.32824  0.94862  1.0000
  C   C1059     1.0  0.84838  0.30637  0.96009  1.0000
  C   C1060     1.0  0.85495  0.41025  0.77912  1.0000
  H   H1690     1.0  0.88942  0.40744  0.82530  1.0000
  H   H1691     1.0  0.75574  0.21945  0.91235  1.0000
  C   C1061     1.0  0.76270  0.11624  0.74893  1.0000
  C   C1062     1.0  0.78591  0.23288  0.54932  1.0000
  H   H1692     1.0  0.77643  0.34062  0.89387  1.0000
  H   H1693     1.0  0.77584  0.34368  0.84156  1.0000
  H   H1694     1.0  0.75497  0.11073  0.67873  1.0000
  H   H1695     1.0  0.76122  0.19639  0.54330  1.0000
  H   H1696     1.0  0.93309  0.01186  0.93389  1.0000
  S   S443      1.0  0.75706  0.31993  0.49571  1.0000
  H   H1697     1.0  0.97592  0.03522  0.93116  1.0000
  H   H1698     1.0  0.76973  0.14460  0.84033  1.0000
  H   H1699     1.0  0.76916  0.14041  0.89220  1.0000
  Fe  Fe222     1.0  0.78213  0.17999  0.97376  1.0000
  H   H1700     1.0  0.79835  0.23638  0.56024  1.0000
  C   C1063     1.0  0.75413  0.10783  0.70174  1.0000
  H   H1701     1.0  0.94743  0.04882  0.94492  1.0000
  H   H1702     1.0  0.87639  0.43655  0.76501  1.0000
  H   H1703     1.0  0.88402  0.39222  0.79782  1.0000
  H   H1704     1.0  0.84191  0.38172  0.56190  1.0000
  H   H1705     1.0  0.77520  0.24221  0.55664  1.0000
  C   C1064     1.0  0.89576  0.01128  0.74380  1.0000
  C   C1065     1.0  0.75832  0.13846  0.71287  1.0000
  C   C1066     1.0  0.86205  0.39923  0.91194  1.0000
  C   C1067     1.0  0.86626  0.40000  0.94069  1.0000
  C   C1068     1.0  0.85642  0.39053  0.96063  1.0000
  C   C1069     1.0  0.84219  0.38015  0.95225  1.0000
  C   C1070     1.0  0.83800  0.37935  0.92349  1.0000
  C   C1071     1.0  0.84793  0.38873  0.90354  1.0000
  H   H1706     1.0  0.87743  0.40747  0.94745  1.0000
  C   C1072     1.0  0.78632  0.26120  0.96727  1.0000
  H   H1707     1.0  0.75982  0.14200  0.69022  1.0000
  H   H1708     1.0  0.84456  0.38787  0.88140  1.0000
  H   H1709     1.0  0.88625  0.32804  0.94806  1.0000
  C   C1073     1.0  0.97905  0.44460  0.87460  1.0000
  C   C1074     1.0  0.98126  0.43087  0.89420  1.0000
  H   H1710     1.0  0.82638  0.39894  0.57242  1.0000
  H   H1711     1.0  0.96979  0.42551  0.90420  1.0000
  C   C1075     1.0  0.85010  0.08413  0.90442  1.0000
  C   C1076     1.0  0.86182  0.09383  0.92071  1.0000
  C   C1077     1.0  0.85542  0.10794  0.93781  1.0000
  C   C1078     1.0  0.83725  0.11270  0.93888  1.0000
  C   C1079     1.0  0.82554  0.10304  0.92251  1.0000
  C   C1080     1.0  0.83193  0.08891  0.90544  1.0000
  H   H1712     1.0  0.87584  0.09056  0.92005  1.0000
  C   C1081     1.0  0.94711  0.01488  0.92948  1.0000
  H   H1713     1.0  0.81155  0.10649  0.92294  1.0000
  H   H1714     1.0  0.82269  0.08160  0.89295  1.0000
  C   C1082     1.0  0.97290  0.02975  0.87004  1.0000
  C   C1083     1.0  0.97070  0.04763  0.87698  1.0000
  C   C1084     1.0  0.98575  0.05731  0.88339  1.0000
  H   H1715     1.0  0.96154  0.02217  0.86464  1.0000
  H   H1716     1.0  0.98419  0.07115  0.88878  1.0000
  C   C1085     1.0  0.88769  0.47733  0.50955  1.0000
  H   H1717     1.0  0.99997  0.41340  0.91586  1.0000
  S   S444      1.0  0.77372  0.13286  0.48747  1.0000
  H   H1718     1.0  0.79761  0.20385  0.52106  1.0000
  H   H1719     1.0  0.88157  0.46632  0.51975  1.0000
  H   H1720     1.0  0.93665  0.45282  0.50391  1.0000
  C   C1086     1.0  0.89088  0.49394  0.71870  1.0000
  C   C1087     1.0  0.79598  0.20249  0.54417  1.0000
  C   C1088     1.0  0.88481  0.48321  0.74085  1.0000
  C   C1089     1.0  0.89281  0.48335  0.76776  1.0000
  H   H1721     1.0  0.86904  0.39627  0.82676  1.0000
  N   N107      1.0  0.95592  0.02211  0.95461  1.0000
  H   H1722     1.0  0.87388  0.47468  0.73706  1.0000
  C   C1090     1.0  0.77928  0.21145  0.58526  1.0000
  H   H1723     1.0  0.81579  0.35141  0.56501  1.0000
  H   H1724     1.0  0.76517  0.24496  0.95313  1.0000
  N   N108      1.0  0.81515  0.37795  0.54855  1.0000
  C   C1091     1.0  0.81757  0.38685  0.52113  1.0000
  H   H1725     1.0  0.80852  0.35354  0.52930  1.0000
  S   S445      1.0  0.76985  0.17591  0.48701  1.0000
  C   C1092     1.0  0.96352  0.47211  0.48469  1.0000
  H   H1726     1.0  0.76547  0.14818  0.72584  1.0000
  H   H1727     1.0  0.86465  0.11534  0.95020  1.0000
  S   S446      1.0  0.77600  0.20898  0.96239  1.0000
  C   C1093     1.0  0.87022  0.05479  0.96316  1.0000
  C   C1094     1.0  0.97468  0.02515  0.94807  1.0000
  C   C1095     1.0  0.87066  0.05027  0.50872  1.0000
  Fe  Fe223     1.0  0.80280  0.14396  0.97043  1.0000
  C   C1096     1.0  0.98988  0.02157  0.87034  1.0000
  H   H1728     1.0  0.76915  0.17539  0.88436  1.0000
  C   C1097     1.0  0.78349  0.11816  0.71056  1.0000
  C   C1098     1.0  0.85182  0.33415  0.93620  1.0000
  C   C1099     1.0  0.80324  0.26146  0.97920  1.0000
  S   S447      1.0  0.83003  0.13061  0.96118  1.0000
  C   C1100     1.0  0.75656  0.15374  0.59191  1.0000
  C   C1101     1.0  0.99413  0.45137  0.86175  1.0000
  H   H1729     1.0  0.86856  0.43922  0.93950  1.0000
  H   H1730     1.0  0.94707  0.02447  0.91174  1.0000
  H   H1731     1.0  0.83147  0.35523  0.53708  1.0000
  H   H1732     1.0  0.82712  0.37149  0.91657  1.0000
  C   C1102     1.0  0.99839  0.42404  0.90074  1.0000
  H   H1733     1.0  0.85884  0.05910  0.50468  1.0000
  H   H1734     1.0  0.85985  0.40006  0.76386  1.0000
  H   H1735     1.0  0.96741  0.46363  0.50302  1.0000
  H   H1736     1.0  0.89494  0.02463  0.75190  1.0000
  H   H1737     1.0  0.89370  0.43087  0.78934  1.0000
  H   H1738     1.0  0.85965  0.34627  0.93417  1.0000
  C   C1103     1.0  0.76356  0.34306  0.85309  1.0000
  H   H1739     1.0  0.82663  0.37789  0.59005  1.0000
  H   H1740     1.0  0.90867  0.46821  0.96929  1.0000
  H   H1741     1.0  0.76060  0.17644  0.61836  1.0000
  C   C1104     1.0  0.75722  0.14305  0.85090  1.0000
  C   C1105     1.0  0.79699  0.38173  0.55893  1.0000
  H   H1742     1.0  0.79430  0.39612  0.56186  1.0000
  H   H1743     1.0  0.90355  0.02191  0.96489  1.0000
  H   H1744     1.0  0.79465  0.37503  0.57946  1.0000
  S   S448      1.0  0.88858  0.49338  0.93381  1.0000
  H   H1745     1.0  0.85129  0.32775  0.91512  1.0000
  C   C1106     1.0  0.76488  0.21035  0.53983  1.0000
  H   H1746     1.0  0.78784  0.23536  0.52640  1.0000
  C   C1107     1.0  0.77820  0.24500  0.96258  1.0000
  H   H1747     1.0  0.91328  0.49476  0.79274  1.0000
  H   H1748     1.0  0.83653  0.06309  0.97476  1.0000
  C   C1108     1.0  0.86635  0.45234  0.94970  1.0000
  H   H1749     1.0  0.78875  0.10449  0.71460  1.0000
  H   H1750     1.0  0.89236  0.01927  0.70025  1.0000
  C   C1109     1.0  0.93366  0.46184  0.48586  1.0000
  H   H1751     1.0  0.99255  0.46193  0.84647  1.0000
  H   H1752     1.0  0.77954  0.27347  0.96142  1.0000
  H   H1753     1.0  0.79334  0.18838  0.54832  1.0000
  H   H1754     1.0  0.81557  0.40142  0.52288  1.0000
  S   S449      1.0  0.77791  0.35678  0.49090  1.0000
  C   C1110     1.0  0.85831  0.02814  0.94405  1.0000
  H   H1755     1.0  0.77274  0.34724  0.63125  1.0000
  H   H1756     1.0  0.85579  0.44193  0.80475  1.0000
  N   N109      1.0  0.78151  0.21431  0.55466  1.0000
  H   H1757     1.0  0.78537  0.12102  0.68772  1.0000
  C   C1111     1.0  0.90696  0.49445  0.77223  1.0000
  H   H1758     1.0  0.76740  0.10255  0.75413  1.0000
  H   H1759     1.0  0.76611  0.21233  0.51667  1.0000
  C   C1112     1.0  0.76782  0.18997  0.88678  1.0000
  H   H1760     1.0  0.86817  0.06623  0.97767  1.0000
  C   C1113     1.0  0.86244  0.43061  0.81598  1.0000
  H   H1761     1.0  0.85287  0.42493  0.83097  1.0000
  H   H1762     1.0  0.83109  0.38411  0.51255  1.0000
  H   H1763     1.0  0.79157  0.21427  0.59713  1.0000
  N   N110      1.0  0.85941  0.32203  0.95786  1.0000
  H   H1764     1.0  0.80812  0.38212  0.50496  1.0000
  N   N111      1.0  0.86959  0.41719  0.79607  1.0000
  H   H1765     1.0  0.83198  0.44857  0.96144  1.0000
  C   C1114     1.0  0.90307  0.00996  0.97722  1.0000
  C   C1115     1.0  0.81793  0.35870  0.54497  1.0000
  H   H1766     1.0  0.83455  0.31020  0.96597  1.0000
  C   C1116     1.0  0.78681  0.22888  0.96989  1.0000
  C   C1117     1.0  0.88254  0.42534  0.77719  1.0000
  N   N112      1.0  0.76467  0.12015  0.71855  1.0000
  H   H1767     1.0  0.77022  0.12550  0.76230  1.0000
  H   H1768     1.0  0.79177  0.12736  0.72276  1.0000
  H   H1769     1.0  0.90559  0.04174  0.50479  1.0000
  H   H1770     1.0  0.88828  0.41565  0.76187  1.0000
  H   H1771     1.0  0.77604  0.19748  0.58974  1.0000
  H   H1772     1.0  0.77385  0.19597  0.86785  1.0000
  S   S450      1.0  0.77297  0.34288  0.57082  1.0000
  H   H1773     1.0  0.88368  0.30722  0.96554  1.0000
  C   C1118     1.0  0.76393  0.34133  0.88273  1.0000
  C   C1119     1.0  0.89494  0.49356  0.96977  1.0000
  H   H1774     1.0  0.98193  0.03005  0.96680  1.0000
  C   C1120     1.0  0.83862  0.05175  0.96004  1.0000
  C   C1121     1.0  0.76014  0.34196  0.62545  1.0000
  H   H1775     1.0  0.88467  0.49352  0.69815  1.0000
  H   H1776     1.0  0.78690  0.37680  0.54398  1.0000
  C   C1122     1.0  0.87760  0.31648  0.94974  1.0000
  H   H1777     1.0  0.85344  0.29698  0.97655  1.0000
  H   H1778     1.0  0.76082  0.28787  0.86618  1.0000
  H   H1779     1.0  0.77592  0.19363  0.90544  1.0000
  H   H1780     1.0  0.87113  0.06021  0.94143  1.0000
  H   H1781     1.0  0.89584  0.07098  0.48703  1.0000
  H   H1782     1.0  0.80887  0.20540  0.55420  1.0000
  C   C1123     1.0  0.89296  0.49174  0.52584  1.0000
  H   H1783     1.0  0.75365  0.21896  0.54729  1.0000
  H   H1784     1.0  0.86589  0.03761  0.51735  1.0000
  H   H1785     1.0  0.85787  0.46061  0.93530  1.0000
  H   H1786     1.0  0.85997  0.39109  0.98273  1.0000
  H   H1787     1.0  0.83796  0.05721  0.93824  1.0000
  H   H1788     1.0  0.98170  0.01289  0.94054  1.0000
  H   H1789     1.0  0.87868  0.05655  0.52544  1.0000
  H   H1790     1.0  0.88324  0.04833  0.96832  1.0000
  H   H1791     1.0  0.92871  0.47467  0.49482  1.0000
  H   H1792     1.0  0.99140  0.00768  0.86530  1.0000
  H   H1793     1.0  0.76836  0.22002  0.59393  1.0000
  C   C1124     1.0  0.75664  0.33822  0.59686  1.0000
  H   H1794     1.0  0.84765  0.01842  0.94511  1.0000
  C   C1125     1.0  0.80364  0.22914  0.98218  1.0000
  H   H1795     1.0  0.95918  0.48528  0.49311  1.0000
  N   N113      1.0  0.85832  0.45077  0.97795  1.0000
  H   H1796     1.0  0.95458  0.00118  0.72255  1.0000
  N   N114      1.0  0.85572  0.04227  0.96531  1.0000
  C   C1126     1.0  0.89427  0.00818  0.71447  1.0000
  C   C1127     1.0  0.95485  0.00940  0.97819  1.0000
  H   H1797     1.0  0.89271  0.02273  0.49785  1.0000
  C   C1128     1.0  0.94699  0.03904  0.96252  1.0000
  C   C1129     1.0  0.89666  0.03566  0.48913  1.0000
  H   H1798     1.0  0.75350  0.22200  0.87482  1.0000
  H   H1799     1.0  0.84379  0.42789  0.96656  1.0000
  H   H1800     1.0  0.75648  0.28995  0.81432  1.0000
  H   H1801     1.0  0.99975  0.46467  0.91842  1.0000
  H   H1802     1.0  0.93283  0.03724  0.96769  1.0000
  S   S451      1.0  0.83074  0.36798  0.97851  1.0000
  H   H1803     1.0  0.84601  0.47678  0.97564  1.0000
  Fe  Fe224     1.0  0.80766  0.34865  0.98064  1.0000
  C   C1130     1.0  0.90412  0.47920  0.98217  1.0000
  H   H1804     1.0  0.95387  0.00248  0.92202  1.0000
  H   H1805     1.0  0.95338  0.04504  0.98123  1.0000
  H   H1806     1.0  0.94087  0.00665  0.98348  1.0000
  H   H1807     1.0  0.86704  0.34368  0.98418  1.0000
  Fe  Fe225     1.0  0.93530  0.94233  0.10036  1.0000
  S   S452      1.0  0.93113  0.96985  0.11714  1.0000
  S   S453      1.0  0.96219  0.93119  0.08559  1.0000
  Fe  Fe226     1.0  0.89499  0.93464  0.10115  1.0000
  S   S454      1.0  0.88851  0.96217  0.11747  1.0000
  S   S455      1.0  0.87221  0.91485  0.10138  1.0000
  Fe  Fe227     1.0  0.90849  0.97135  0.08599  1.0000
  C   C1131     1.0  0.89990  0.93615  0.47776  1.0000
  Fe  Fe228     1.0  0.91156  0.95844  0.14739  1.0000
  S   S456      1.0  0.91014  0.96100  0.19592  1.0000
  S   S457      1.0  0.91348  0.94429  0.06761  1.0000
  S   S458      1.0  0.91735  0.93048  0.13248  1.0000
  Fe  Fe229     1.0  0.79240  0.68178  0.01213  1.0000
  H   H1808     1.0  0.84218  0.83216  0.99375  1.0000
  H   H1809     1.0  0.87571  0.95235  0.17393  1.0000
  Fe  Fe230     1.0  0.80470  0.64211  0.00971  1.0000
  C   C1132     1.0  0.90359  0.99517  0.02305  1.0000
  S   S459      1.0  0.82543  0.61906  0.01006  1.0000
  Fe  Fe231     1.0  0.79767  0.81136  0.99077  1.0000
  S   S460      1.0  0.77343  0.66197  0.41908  1.0000
  H   H1810     1.0  0.80940  0.62060  0.10770  1.0000
  H   H1811     1.0  0.77018  0.65850  0.09273  1.0000
  H   H1812     1.0  0.83484  0.83548  0.04462  1.0000
  S   S461      1.0  0.79340  0.65951  0.04411  1.0000
  Fe  Fe232     1.0  0.77119  0.83523  0.02153  1.0000
  S   S462      1.0  0.79930  0.82645  0.03165  1.0000
  H   H1813     1.0  0.76639  0.69464  0.44834  1.0000
  Fe  Fe233     1.0  0.78245  0.83366  0.45686  1.0000
  C   C1133     1.0  0.75915  0.83792  0.38449  1.0000
  S   S463      1.0  0.77706  0.83433  0.40880  1.0000
  H   H1814     1.0  0.85226  0.94987  0.17588  1.0000
  H   H1815     1.0  0.79692  0.61271  0.13702  1.0000
  Fe  Fe234     1.0  0.80661  0.85026  0.00580  1.0000
  S   S464      1.0  0.83131  0.86732  0.01068  1.0000
  C   C1134     1.0  0.99553  0.52304  0.10438  1.0000
  H   H1816     1.0  0.80991  0.59110  0.08530  1.0000
  Fe  Fe235     1.0  0.90401  0.52606  0.15611  1.0000
  S   S465      1.0  0.90893  0.55428  0.14431  1.0000
  S   S466      1.0  0.90310  0.52188  0.20437  1.0000
  Fe  Fe236     1.0  0.90449  0.51580  0.09369  1.0000
  S   S467      1.0  0.90964  0.54314  0.07780  1.0000
  S   S468      1.0  0.79750  0.70911  0.03018  1.0000
  Fe  Fe237     1.0  0.92927  0.54379  0.11371  1.0000
  S   S469      1.0  0.95458  0.55934  0.11088  1.0000
  Fe  Fe238     1.0  0.88889  0.55212  0.10926  1.0000
  S   S470      1.0  0.86993  0.57670  0.10587  1.0000
  S   S471      1.0  0.92573  0.51578  0.12745  1.0000
  S   S472      1.0  0.88235  0.52448  0.12321  1.0000
  C   C1135     1.0  0.90514  0.98908  0.26940  1.0000
  C   C1136     1.0  0.91274  0.99463  0.45827  1.0000
  H   H1817     1.0  0.88816  0.51870  0.02902  1.0000
  H   H1818     1.0  0.85103  0.79392  0.00950  1.0000
  C   C1137     1.0  0.86828  0.93242  0.21877  1.0000
  C   C1138     1.0  0.85346  0.91470  0.18396  1.0000
  C   C1139     1.0  0.76265  0.83696  0.35532  1.0000
  C   C1140     1.0  0.97838  0.53075  0.10659  1.0000
  C   C1141     1.0  0.97601  0.54908  0.10853  1.0000
  H   H1819     1.0  0.87126  0.98449  0.47858  1.0000
  H   H1820     1.0  0.96698  0.52250  0.10654  1.0000
  C   C1142     1.0  0.77665  0.71261  0.40295  1.0000
  S   S473      1.0  0.77836  0.85978  0.99743  1.0000
  C   C1143     1.0  0.79916  0.73001  0.01342  1.0000
  H   H1821     1.0  0.79014  0.74423  0.05032  1.0000
  C   C1144     1.0  0.90312  0.50581  0.48301  1.0000
  C   C1145     1.0  0.99102  0.55958  0.10848  1.0000
  S   S474      1.0  0.90467  0.99653  0.06016  1.0000
  C   C1146     1.0  0.79579  0.61825  0.11530  1.0000
  H   H1822     1.0  0.89621  0.92701  0.18499  1.0000
  N   N115      1.0  0.78637  0.60631  0.09620  1.0000
  C   C1147     1.0  0.99858  0.92884  0.08769  1.0000
  H   H1823     1.0  0.77284  0.71042  0.47427  1.0000
  S   S475      1.0  0.76520  0.67617  0.99579  1.0000
  H   H1824     1.0  0.97279  0.94994  0.13658  1.0000
  H   H1825     1.0  0.77710  0.62723  0.06876  1.0000
  H   H1826     1.0  0.85302  0.91047  0.16140  1.0000
  H   H1827     1.0  0.85625  0.84342  0.05188  1.0000
  C   C1148     1.0  0.83773  0.60755  0.03711  1.0000
  C   C1149     1.0  0.84750  0.59199  0.03011  1.0000
  C   C1150     1.0  0.85742  0.58239  0.05070  1.0000
  C   C1151     1.0  0.85771  0.58819  0.07872  1.0000
  C   C1152     1.0  0.84802  0.60380  0.08569  1.0000
  C   C1153     1.0  0.83816  0.61345  0.06507  1.0000
  H   H1828     1.0  0.84740  0.58728  0.00858  1.0000
  H   H1829     1.0  0.86478  0.57045  0.04489  1.0000
  H   H1830     1.0  0.84822  0.60854  0.10722  1.0000
  H   H1831     1.0  0.83113  0.62559  0.07069  1.0000
  C   C1154     1.0  0.79762  0.76232  0.01760  1.0000
  C   C1155     1.0  0.78473  0.61444  0.06791  1.0000
  C   C1156     1.0  0.90787  0.97546  0.24932  1.0000
  C   C1157     1.0  0.89270  0.50772  0.01605  1.0000
  H   H1832     1.0  0.78921  0.73667  0.45977  1.0000
  H   H1833     1.0  0.77765  0.60583  0.05292  1.0000
  H   H1834     1.0  0.81000  0.70988  0.42361  1.0000
  H   H1835     1.0  0.79456  0.77398  0.03005  1.0000
  C   C1158     1.0  0.90111  0.50383  0.22838  1.0000
  C   C1159     1.0  0.85594  0.82855  0.00042  1.0000
  C   C1160     1.0  0.90691  0.97892  0.22011  1.0000
  H   H1836     1.0  0.85520  0.90258  0.19706  1.0000
  C   C1161     1.0  0.79924  0.70517  0.43736  1.0000
  H   H1837     1.0  0.94966  0.99146  0.29569  1.0000
  H   H1838     1.0  0.86465  0.93920  0.14814  1.0000
  C   C1162     1.0  0.87464  0.81422  0.03549  1.0000
  H   H1839     1.0  0.90578  0.98609  0.29170  1.0000
  H   H1840     1.0  0.76991  0.67111  0.36032  1.0000
  N   N116      1.0  0.85620  0.81928  0.02787  1.0000
  C   C1163     1.0  0.79643  0.58929  0.09405  1.0000
  H   H1841     1.0  0.84843  0.82461  0.07084  1.0000
  C   C1164     1.0  0.90193  0.97897  0.00943  1.0000
  C   C1165     1.0  0.90213  0.50712  0.25762  1.0000
  C   C1166     1.0  0.76880  0.70889  0.45184  1.0000
  H   H1842     1.0  0.90130  0.96698  0.02166  1.0000
  C   C1167     1.0  0.86089  0.90198  0.07556  1.0000
  C   C1168     1.0  0.86623  0.90083  0.04733  1.0000
  C   C1169     1.0  0.85698  0.89026  0.02796  1.0000
  C   C1170     1.0  0.84213  0.88077  0.03627  1.0000
  C   C1171     1.0  0.83679  0.88189  0.06450  1.0000
  C   C1172     1.0  0.84613  0.89235  0.08393  1.0000
  H   H1843     1.0  0.87752  0.90805  0.04041  1.0000
  H   H1844     1.0  0.86132  0.88954  0.00626  1.0000
  H   H1845     1.0  0.82546  0.87474  0.07140  1.0000
  H   H1846     1.0  0.84180  0.89306  0.10563  1.0000
  H   H1847     1.0  0.77113  0.65894  0.14503  1.0000
  C   C1173     1.0  0.98308  0.93541  0.10095  1.0000
  C   C1174     1.0  0.98460  0.94485  0.12614  1.0000
  H   H1848     1.0  0.76919  0.59712  0.12883  1.0000
  N   N117      1.0  0.78244  0.71525  0.43242  1.0000
  H   H1849     1.0  0.88079  0.80527  0.01942  1.0000
  H   H1850     1.0  0.76394  0.71990  0.39845  1.0000
  H   H1851     1.0  0.76088  0.59459  0.09347  1.0000
  H   H1852     1.0  0.76067  0.61593  0.10965  1.0000
  H   H1853     1.0  0.79792  0.61702  0.05869  1.0000
  H   H1854     1.0  0.79559  0.73945  0.42376  1.0000
  H   H1855     1.0  0.91069  0.96210  0.25650  1.0000
  H   H1856     1.0  0.88527  0.91411  0.15887  1.0000
  C   C1175     1.0  0.75889  0.65437  0.10460  1.0000
  H   H1857     1.0  0.84515  0.79605  0.04614  1.0000
  H   H1858     1.0  0.98933  0.57378  0.10994  1.0000
  C   C1176     1.0  0.78510  0.73423  0.43758  1.0000
  C   C1177     1.0  0.84864  0.83114  0.04983  1.0000
  C   C1178     1.0  0.80477  0.76403  0.99061  1.0000
  S   S476      1.0  0.81129  0.82893  0.46818  1.0000
  Fe  Fe239     1.0  0.77846  0.65625  0.46632  1.0000
  N   N118      1.0  0.91670  0.60470  0.10862  1.0000
  C   C1179     1.0  0.91351  0.59099  0.08723  1.0000
  C   C1180     1.0  0.91982  0.62163  0.09430  1.0000
  C   C1181     1.0  0.93238  0.59943  0.12573  1.0000
  C   C1182     1.0  0.90107  0.60670  0.12714  1.0000
  H   H1859     1.0  0.91076  0.57823  0.09745  1.0000
  H   H1860     1.0  0.92521  0.58861  0.07337  1.0000
  H   H1861     1.0  0.90181  0.59447  0.07376  1.0000
  H   H1862     1.0  0.92230  0.63230  0.10979  1.0000
  H   H1863     1.0  0.93150  0.62047  0.08009  1.0000
  H   H1864     1.0  0.90819  0.62592  0.08120  1.0000
  H   H1865     1.0  0.93527  0.60942  0.14212  1.0000
  H   H1866     1.0  0.94439  0.59750  0.11239  1.0000
  H   H1867     1.0  0.93048  0.58664  0.13673  1.0000
  H   H1868     1.0  0.90290  0.61699  0.14351  1.0000
  H   H1869     1.0  0.89839  0.59411  0.13826  1.0000
  H   H1870     1.0  0.88891  0.61032  0.11483  1.0000
  N   N119      1.0  0.86791  0.92701  0.18882  1.0000
  C   C1183     1.0  0.84562  0.80325  0.02570  1.0000
  C   C1184     1.0  0.89447  0.99275  0.45660  1.0000
  C   C1185     1.0  0.86499  0.94280  0.17091  1.0000
  H   H1871     1.0  0.76593  0.85932  0.08361  1.0000
  H   H1872     1.0  0.78876  0.63135  0.11696  1.0000
  H   H1873     1.0  0.88757  0.90607  0.19436  1.0000
  H   H1874     1.0  0.87530  0.80726  0.05618  1.0000
  S   S477      1.0  0.77797  0.63442  0.99363  1.0000
  C   C1186     1.0  0.79510  0.74541  0.02905  1.0000
  H   H1875     1.0  0.80374  0.70638  0.45964  1.0000
  H   H1876     1.0  0.77276  0.74229  0.43379  1.0000
  H   H1877     1.0  0.78964  0.57991  0.07994  1.0000
  H   H1878     1.0  0.88682  0.94238  0.47204  1.0000
  C   C1187     1.0  0.88544  0.98581  0.47973  1.0000
  H   H1879     1.0  0.84034  0.92097  0.18907  1.0000
  C   C1188     1.0  0.88498  0.91814  0.18146  1.0000
  H   H1880     1.0  0.85565  0.93924  0.22508  1.0000
  H   H1881     1.0  0.87911  0.94178  0.22278  1.0000
  H   H1882     1.0  0.88293  0.82605  0.03718  1.0000
  C   C1189     1.0  0.92198  0.98929  0.48271  1.0000
  H   H1883     1.0  0.78668  0.71715  0.38770  1.0000
  H   H1884     1.0  0.77608  0.83431  0.34832  1.0000
  H   H1885     1.0  0.89125  0.90200  0.47893  1.0000
  H   H1886     1.0  0.99716  0.50883  0.10274  1.0000
  H   H1887     1.0  0.90482  0.92858  0.45911  1.0000
  C   C1190     1.0  0.76853  0.60331  0.10754  1.0000
  H   H1888     1.0  0.77454  0.69838  0.39849  1.0000
  C   C1191     1.0  0.75938  0.65466  0.13426  1.0000
  H   H1889     1.0  0.76215  0.78649  0.30413  1.0000
  H   H1890     1.0  0.90412  0.52045  0.26486  1.0000
  Fe  Fe240     1.0  0.76688  0.65332  0.02621  1.0000
  H   H1891     1.0  0.79778  0.69085  0.43288  1.0000
  C   C1192     1.0  0.75863  0.85139  0.09821  1.0000
  C   C1193     1.0  0.88936  0.50785  0.98680  1.0000
  H   H1892     1.0  0.87058  0.92088  0.23297  1.0000
  C   C1194     1.0  0.75878  0.66314  0.36549  1.0000
  H   H1893     1.0  0.79812  0.58287  0.11506  1.0000
  H   H1894     1.0  0.99751  0.92142  0.06830  1.0000
  H   H1895     1.0  0.75596  0.71625  0.44889  1.0000
  H   H1896     1.0  0.86315  0.84113  0.00152  1.0000
  S   S478      1.0  0.88267  0.99921  0.42602  1.0000
  H   H1897     1.0  0.83173  0.80654  0.01936  1.0000
  H   H1898     1.0  0.90915  0.94707  0.48146  1.0000
  H   H1899     1.0  0.76352  0.86816  0.13403  1.0000
  C   C1195     1.0  0.75716  0.85642  0.12675  1.0000
  S   S479      1.0  0.80427  0.66676  0.48249  1.0000
  C   C1196     1.0  0.90320  0.99629  0.21127  1.0000
  H   H1900     1.0  0.90907  0.51691  0.47282  1.0000
  H   H1901     1.0  0.75214  0.83937  0.31285  1.0000
  C   C1197     1.0  0.75713  0.65658  0.39319  1.0000
  H   H1902     1.0  0.75388  0.78388  0.35417  1.0000
  C   C1198     1.0  0.00139  0.94734  0.13819  1.0000
  C   C1199     1.0  0.80573  0.73175  0.98602  1.0000
  H   H1903     1.0  0.90235  0.99923  0.18896  1.0000
  H   H1904     1.0  0.93619  0.99051  0.48363  1.0000
  H   H1905     1.0  0.91982  0.99993  0.44054  1.0000
  Fe  Fe241     1.0  0.93561  0.94186  0.62271  1.0000
  S   S480      1.0  0.92868  0.97037  0.61512  1.0000
  S   S481      1.0  0.96255  0.93663  0.64374  1.0000
  Fe  Fe242     1.0  0.89837  0.93072  0.60253  1.0000
  S   S482      1.0  0.88933  0.95902  0.59428  1.0000
  S   S483      1.0  0.88260  0.90550  0.59438  1.0000
  Fe  Fe243     1.0  0.91624  0.96154  0.57483  1.0000
  S   S484      1.0  0.92565  0.97491  0.53513  1.0000
  Fe  Fe244     1.0  0.90270  0.96548  0.63596  1.0000
  H   H1906     1.0  0.92207  0.90920  0.49279  1.0000
  S   S485      1.0  0.92484  0.93310  0.58103  1.0000
  S   S486      1.0  0.91002  0.93706  0.64561  1.0000
  C   C1200     1.0  0.76179  0.64201  0.60508  1.0000
  H   H1907     1.0  0.94169  0.95243  0.68351  1.0000
  C   C1201     1.0  0.79990  0.61260  0.93841  1.0000
  Fe  Fe245     1.0  0.80645  0.64239  0.51041  1.0000
  H   H1908     1.0  0.88947  0.94077  0.83315  1.0000
  S   S487      1.0  0.83073  0.62316  0.51327  1.0000
  Fe  Fe246     1.0  0.77877  0.65784  0.96448  1.0000
  H   H1909     1.0  0.92235  0.57618  0.58686  1.0000
  Fe  Fe247     1.0  0.76791  0.64601  0.52709  1.0000
  C   C1202     1.0  0.99125  0.53771  0.63704  1.0000
  H   H1910     1.0  0.89047  0.92711  0.54615  1.0000
  S   S488      1.0  0.79258  0.65618  0.54658  1.0000
  Fe  Fe248     1.0  0.77259  0.83292  0.52002  1.0000
  S   S489      1.0  0.80049  0.82744  0.53493  1.0000
  C   C1203     1.0  0.89899  0.97984  0.75143  1.0000
  H   H1911     1.0  0.75230  0.65302  0.81923  1.0000
  S   S490      1.0  0.78170  0.63114  0.49182  1.0000
  S   S491      1.0  0.77207  0.84949  0.91262  1.0000
  Fe  Fe249     1.0  0.80164  0.80826  0.49829  1.0000
  C   C1204     1.0  0.76538  0.83481  0.60105  1.0000
  Fe  Fe250     1.0  0.80779  0.84859  0.50378  1.0000
  S   S492      1.0  0.82332  0.87406  0.51202  1.0000
  C   C1205     1.0  0.79511  0.77639  0.89599  1.0000
  N   N120      1.0  0.78757  0.59147  0.55771  1.0000
  Fe  Fe251     1.0  0.90693  0.52552  0.64996  1.0000
  S   S493      1.0  0.91237  0.55333  0.63579  1.0000
  S   S494      1.0  0.91238  0.52016  0.69707  1.0000
  Fe  Fe252     1.0  0.89798  0.51472  0.58945  1.0000
  S   S495      1.0  0.90264  0.54153  0.57144  1.0000
  H   H1912     1.0  0.91142  0.61040  0.51686  1.0000
  Fe  Fe253     1.0  0.92688  0.54070  0.59943  1.0000
  S   S496      1.0  0.95224  0.55071  0.58027  1.0000
  Fe  Fe254     1.0  0.88774  0.55210  0.60899  1.0000
  S   S497      1.0  0.86752  0.57548  0.61082  1.0000
  H   H1913     1.0  0.94690  0.58698  0.55863  1.0000
  S   S498      1.0  0.88127  0.52515  0.62566  1.0000
  N   N121      1.0  0.78802  0.79481  0.89620  1.0000
  S   S499      1.0  0.77316  0.81223  0.48569  1.0000
  H   H1914     1.0  0.90511  0.51697  0.52470  1.0000
  H   H1915     1.0  0.82887  0.74518  0.49332  1.0000
  C   C1206     1.0  0.77461  0.58611  0.57909  1.0000
  C   C1207     1.0  0.80383  0.58013  0.55984  1.0000
  H   H1916     1.0  0.87840  0.94136  0.52208  1.0000
  C   C1208     1.0  0.93691  0.96407  0.69581  1.0000
  C   C1209     1.0  0.97315  0.54598  0.59630  1.0000
  C   C1210     1.0  0.97450  0.54030  0.62431  1.0000
  H   H1917     1.0  0.77425  0.69801  0.59355  1.0000
  H   H1918     1.0  0.96264  0.53824  0.63639  1.0000
  C   C1211     1.0  0.98875  0.54863  0.58097  1.0000
  H   H1919     1.0  0.79308  0.90946  0.58763  1.0000
  N   N122      1.0  0.81564  0.61669  0.92155  1.0000
  H   H1920     1.0  0.87850  0.96249  0.90167  1.0000
  H   H1921     1.0  0.76920  0.74309  0.53543  1.0000
  H   H1922     1.0  0.86992  0.98637  0.83417  1.0000
  C   C1212     1.0  0.89169  0.93533  0.52684  1.0000
  C   C1213     1.0  0.81071  0.61739  0.89135  1.0000
  H   H1923     1.0  0.91396  0.59827  0.59279  1.0000
  C   C1214     1.0  0.89528  0.99093  0.70336  1.0000
  H   H1924     1.0  0.83351  0.60220  0.94906  1.0000
  H   H1925     1.0  0.80317  0.61187  0.96131  1.0000
  H   H1926     1.0  0.97373  0.93088  0.58522  1.0000
  H   H1927     1.0  0.77498  0.81323  0.86791  1.0000
  H   H1928     1.0  0.77393  0.64355  0.59366  1.0000
  H   H1929     1.0  0.77357  0.64822  0.64519  1.0000
  C   C1215     1.0  0.84075  0.61008  0.54084  1.0000
  C   C1216     1.0  0.85245  0.59592  0.53366  1.0000
  C   C1217     1.0  0.86064  0.58513  0.55464  1.0000
  C   C1218     1.0  0.85739  0.58845  0.58325  1.0000
  C   C1219     1.0  0.84573  0.60263  0.59043  1.0000
  C   C1220     1.0  0.83750  0.61338  0.56946  1.0000
  H   H1930     1.0  0.85508  0.59318  0.51164  1.0000
  H   H1931     1.0  0.86940  0.57420  0.54863  1.0000
  H   H1932     1.0  0.84321  0.60548  0.61245  1.0000
  H   H1933     1.0  0.82893  0.62444  0.57548  1.0000
  H   H1934     1.0  0.87799  0.96888  0.81198  1.0000
  H   H1935     1.0  0.96313  0.96189  0.73382  1.0000
  N   N123      1.0  0.95096  0.97688  0.70004  1.0000
  C   C1221     1.0  0.80587  0.76058  0.50644  1.0000
  C   C1222     1.0  0.75929  0.65147  0.89088  1.0000
  C   C1223     1.0  0.80881  0.72828  0.50957  1.0000
  H   H1936     1.0  0.77609  0.57597  0.52478  1.0000
  H   H1937     1.0  0.90067  0.96873  0.76562  1.0000
  C   C1224     1.0  0.77893  0.89063  0.54544  1.0000
  N   N124      1.0  0.89862  0.92474  0.50293  1.0000
  H   H1938     1.0  0.90797  0.61822  0.55230  1.0000
  C   C1225     1.0  0.89753  0.97676  0.72214  1.0000
  H   H1939     1.0  0.80100  0.56597  0.55657  1.0000
  H   H1940     1.0  0.78917  0.62288  0.93559  1.0000
  H   H1941     1.0  0.89787  0.96339  0.71410  1.0000
  H   H1942     1.0  0.76228  0.59462  0.57800  1.0000
  C   C1226     1.0  0.90085  0.50590  0.51244  1.0000
  C   C1227     1.0  0.91305  0.98221  0.50577  1.0000
  H   H1943     1.0  0.78155  0.85729  0.56140  1.0000
  C   C1228     1.0  0.82228  0.63398  0.93025  1.0000
  C   C1229     1.0  0.75834  0.84879  0.85859  1.0000
  C   C1230     1.0  0.89468  0.98073  0.50443  1.0000
  H   H1944     1.0  0.77423  0.66110  0.85576  1.0000
  H   H1945     1.0  0.85748  0.96670  0.83058  1.0000
  H   H1946     1.0  0.88761  0.97567  0.52232  1.0000
  C   C1231     1.0  0.86562  0.89724  0.57184  1.0000
  C   C1232     1.0  0.85595  0.90797  0.55281  1.0000
  C   C1233     1.0  0.84319  0.90061  0.53477  1.0000
  C   C1234     1.0  0.83958  0.88247  0.53568  1.0000
  C   C1235     1.0  0.84889  0.87183  0.55521  1.0000
  C   C1236     1.0  0.86183  0.87915  0.57299  1.0000
  H   H1947     1.0  0.85821  0.92196  0.55206  1.0000
  H   H1948     1.0  0.83598  0.90907  0.52001  1.0000
  H   H1949     1.0  0.84637  0.85787  0.55632  1.0000
  H   H1950     1.0  0.86909  0.87065  0.58764  1.0000
  H   H1951     1.0  0.80012  0.62774  0.88739  1.0000
  C   C1237     1.0  0.98351  0.93638  0.62684  1.0000
  C   C1238     1.0  0.98536  0.93298  0.59798  1.0000
  H   H1952     1.0  0.80112  0.77273  0.91681  1.0000
  C   C1239     1.0  0.89808  0.99710  0.76253  1.0000
  C   C1240     1.0  0.91836  0.57644  0.53037  1.0000
  S   S500      1.0  0.78321  0.70750  0.53359  1.0000
  H   H1953     1.0  0.76592  0.67927  0.57552  1.0000
  H   H1954     1.0  0.76283  0.89829  0.59487  1.0000
  C   C1241     1.0  0.75623  0.84321  0.88672  1.0000
  H   H1955     1.0  0.81033  0.58142  0.58083  1.0000
  C   C1242     1.0  0.90076  0.97825  0.97989  1.0000
  H   H1956     1.0  0.88965  0.93804  0.87084  1.0000
  H   H1957     1.0  0.90638  0.96811  0.83815  1.0000
  H   H1958     1.0  0.79456  0.86022  0.59281  1.0000
  H   H1959     1.0  0.78004  0.58732  0.60085  1.0000
  C   C1243     1.0  0.79204  0.72760  0.52175  1.0000
  H   H1960     1.0  0.88557  0.90123  0.51564  1.0000
  H   H1961     1.0  0.82503  0.58958  0.92023  1.0000
  H   H1962     1.0  0.81447  0.74979  0.95410  1.0000
  C   C1244     1.0  0.79127  0.86589  0.57171  1.0000
  H   H1963     1.0  0.81307  0.80589  0.88626  1.0000
  H   H1964     1.0  0.96681  0.99385  0.67483  1.0000
  H   H1965     1.0  0.79803  0.61189  0.58383  1.0000
  H   H1966     1.0  0.79442  0.59972  0.93227  1.0000
  C   C1245     1.0  0.88658  0.91019  0.49707  1.0000
  C   C1246     1.0  0.91637  0.91732  0.51029  1.0000
  H   H1967     1.0  0.78126  0.77194  0.52155  1.0000
  H   H1968     1.0  0.76929  0.85700  0.85333  1.0000
  H   H1969     1.0  0.92708  0.56524  0.53797  1.0000
  H   H1970     1.0  0.76687  0.67945  0.61341  1.0000
  C   C1247     1.0  0.80248  0.80688  0.90243  1.0000
  S   S501      1.0  0.92318  0.51310  0.61493  1.0000
  C   C1248     1.0  0.80875  0.74866  0.97486  1.0000
  H   H1971     1.0  0.96080  0.97375  0.65777  1.0000
  C   C1249     1.0  0.79795  0.89551  0.58556  1.0000
  H   H1972     1.0  0.89936  0.96562  0.96961  1.0000
  N   N125      1.0  0.86801  0.55080  0.70974  1.0000
  C   C1250     1.0  0.88065  0.56056  0.69245  1.0000
  C   C1251     1.0  0.87611  0.54650  0.73746  1.0000
  C   C1252     1.0  0.86352  0.53431  0.69512  1.0000
  C   C1253     1.0  0.85175  0.56185  0.71383  1.0000
  H   H1973     1.0  0.80240  0.89083  0.60678  1.0000
  H   H1974     1.0  0.87527  0.56349  0.67097  1.0000
  H   H1975     1.0  0.89328  0.55279  0.68974  1.0000
  H   H1976     1.0  0.88859  0.53844  0.73503  1.0000
  H   H1977     1.0  0.87952  0.55862  0.74924  1.0000
  H   H1978     1.0  0.86717  0.53870  0.75086  1.0000
  H   H1979     1.0  0.85448  0.52627  0.70792  1.0000
  H   H1980     1.0  0.87556  0.52591  0.69095  1.0000
  H   H1981     1.0  0.85707  0.53706  0.67436  1.0000
  H   H1982     1.0  0.85463  0.57438  0.72494  1.0000
  H   H1983     1.0  0.77080  0.57219  0.57600  1.0000
  H   H1984     1.0  0.84548  0.56546  0.69321  1.0000
  H   H1985     1.0  0.87295  0.91529  0.49208  1.0000
  H   H1986     1.0  0.77759  0.83276  0.64224  1.0000
  H   H1987     1.0  0.81373  0.58382  0.54368  1.0000
  S   S502      1.0  0.77590  0.65719  0.91591  1.0000
  H   H1988     1.0  0.80559  0.60458  0.88400  1.0000
  N   N126      1.0  0.91932  0.59187  0.54932  1.0000
  H   H1989     1.0  0.89983  0.58218  0.57785  1.0000
  C   C1254     1.0  0.78894  0.75983  0.51806  1.0000
  H   H1990     1.0  0.93191  0.95905  0.71621  1.0000
  H   H1991     1.0  0.77722  0.83053  0.58994  1.0000
  C   C1255     1.0  0.76157  0.64466  0.63439  1.0000
  H   H1992     1.0  0.98786  0.55304  0.55930  1.0000
  C   C1256     1.0  0.78019  0.79931  0.86838  1.0000
  H   H1993     1.0  0.81674  0.71626  0.50681  1.0000
  H   H1994     1.0  0.84171  0.60549  0.91399  1.0000
  H   H1995     1.0  0.97745  0.97705  0.71670  1.0000
  C   C1257     1.0  0.82959  0.60286  0.92633  1.0000
  H   H1996     1.0  0.82221  0.62060  0.87794  1.0000
  S   S503      1.0  0.89353  0.98784  0.66605  1.0000
  S   S504      1.0  0.80707  0.83429  0.96563  1.0000
  H   H1997     1.0  0.93906  0.60924  0.56486  1.0000
  H   H1998     1.0  0.77368  0.90451  0.54608  1.0000
  C   C1258     1.0  0.81570  0.74471  0.50209  1.0000
  H   H1999     1.0  0.88403  0.57331  0.70240  1.0000
  C   C1259     1.0  0.76218  0.65491  0.86206  1.0000
  Fe  Fe255     1.0  0.77845  0.84207  0.95885  1.0000
  C   C1260     1.0  0.76552  0.83594  0.63071  1.0000
  Fe  Fe256     1.0  0.78814  0.67945  0.51728  1.0000
  S   S505      1.0  0.80617  0.66496  0.97916  1.0000
  H   H2000     1.0  0.81214  0.64475  0.92674  1.0000
  H   H2001     1.0  0.78452  0.76692  0.89166  1.0000
  H   H2002     1.0  0.79036  0.89012  0.53065  1.0000
  C   C1261     1.0  0.88231  0.94441  0.85292  1.0000
  H   H2003     1.0  0.99208  0.53368  0.65889  1.0000
  N   N127      1.0  0.88087  0.96378  0.85648  1.0000
  C   C1262     1.0  0.89878  0.97094  0.85781  1.0000
  C   C1263     1.0  0.87134  0.96807  0.88292  1.0000
  H   H2004     1.0  0.92555  0.97006  0.68390  1.0000
  C   C1264     1.0  0.87109  0.97172  0.83229  1.0000
  H   H2005     1.0  0.76850  0.88238  0.53605  1.0000
  H   H2006     1.0  0.90651  0.96548  0.87605  1.0000
  H   H2007     1.0  0.89813  0.98552  0.86032  1.0000
  H   H2008     1.0  0.91587  0.90873  0.52937  1.0000
  H   H2009     1.0  0.87008  0.98261  0.88622  1.0000
  H   H2010     1.0  0.85778  0.96282  0.88282  1.0000
  H   H2011     1.0  0.76278  0.78839  0.91364  1.0000
  H   H2012     1.0  0.77189  0.87951  0.61395  1.0000
  H   H2013     1.0  0.94260  0.60153  0.52934  1.0000
  C   C1265     1.0  0.90758  0.60635  0.53850  1.0000
  H   H2014     1.0  0.97180  0.95690  0.69937  1.0000
  H   H2015     1.0  0.82589  0.63402  0.95306  1.0000
  H   H2016     1.0  0.80985  0.89542  0.57172  1.0000
  C   C1266     1.0  0.91360  0.58692  0.57795  1.0000
  H   H2017     1.0  0.92575  0.92798  0.51499  1.0000
  H   H2018     1.0  0.76894  0.79077  0.86320  1.0000
  H   H2019     1.0  0.79755  0.82090  0.90304  1.0000
  H   H2020     1.0  0.86903  0.93855  0.85185  1.0000
  H   H2021     1.0  0.89355  0.60233  0.53752  1.0000
  H   H2022     1.0  0.92373  0.51396  0.75413  1.0000
  S   S506      1.0  0.76246  0.66993  0.50014  1.0000
  H   H2023     1.0  0.90465  0.57159  0.52897  1.0000
  H   H2024     1.0  0.79011  0.79788  0.85120  1.0000
  N   N128      1.0  0.78417  0.88421  0.57383  1.0000
  H   H2025     1.0  0.76926  0.81062  0.91990  1.0000
  H   H2026     1.0  0.90062  0.94622  0.53210  1.0000
  H   H2027     1.0  0.80357  0.86509  0.55895  1.0000
  C   C1267     1.0  0.78215  0.74344  0.52590  1.0000
  C   C1268     1.0  0.79201  0.61002  0.56264  1.0000
  H   H2028     1.0  0.83426  0.63744  0.91820  1.0000
  C   C1269     1.0  0.76853  0.88465  0.59249  1.0000
  H   H2029     1.0  0.78007  0.61888  0.56123  1.0000
  C   C1270     1.0  0.94431  0.99130  0.71862  1.0000
  H   H2030     1.0  0.80865  0.80386  0.92331  1.0000
  H   H2031     1.0  0.77961  0.79268  0.93925  1.0000
  S   S507      1.0  0.89980  0.99990  0.79986  1.0000
  H   H2032     1.0  0.93263  0.99842  0.70906  1.0000
  C   C1271     1.0  0.96653  0.96781  0.71313  1.0000
  C   C1272     1.0  0.77429  0.79670  0.91818  1.0000
  C   C1273     1.0  0.93776  0.59772  0.55055  1.0000
  H   H2033     1.0  0.80150  0.61463  0.54663  1.0000
  C   C1274     1.0  0.95604  0.98432  0.67251  1.0000
  H   H2034     1.0  0.80555  0.77443  0.87971  1.0000
  C   C1275     1.0  0.77980  0.58977  0.52922  1.0000
  H   H2035     1.0  0.88222  0.51900  0.97739  1.0000
  H   H2036     1.0  0.78931  0.59365  0.51259  1.0000
  C   C1276     1.0  0.99880  0.93882  0.64319  1.0000
  H   H2037     1.0  0.92266  0.57966  0.50860  1.0000
  H   H2038     1.0  0.84184  0.55482  0.72656  1.0000
  H   H2039     1.0  0.76766  0.59843  0.52677  1.0000
  H   H2040     1.0  0.75791  0.87628  0.58393  1.0000
  S   S508      1.0  0.81543  0.78092  0.49760  1.0000
  S   S509      1.0  0.77955  0.85477  0.49026  1.0000
  S   S510      1.0  0.89948  0.99210  0.92676  1.0000
  H   H2041     1.0  0.99757  0.94128  0.66557  1.0000
  H   H2042     1.0  0.94460  0.99140  0.66217  1.0000
  H   H2043     1.0  0.94002  0.98619  0.73945  1.0000
  C   C1277     1.0  0.90129  0.99370  0.96372  1.0000
  H   H2044     1.0  0.80915  0.72004  0.97391  1.0000
  C   C1278     1.0  0.90493  0.50518  0.72330  1.0000
  C   C1279     1.0  0.91286  0.50535  0.75023  1.0000
  C   C1280     1.0  0.76404  0.68777  0.59448  1.0000
  H   H2045     1.0  0.96152  0.99652  0.97284  1.0000
  S   S511      1.0  0.76916  0.81845  0.98235  1.0000
  S   S512      1.0  0.81013  0.78497  0.97660  1.0000
  H   H2046     1.0  0.75359  0.71710  0.62216  1.0000
  H   H2047     1.0  0.75277  0.71799  0.56971  1.0000
  H   H2048     1.0  0.86195  0.82024  0.98343  1.0000
