data_image0
_chemical_formula_structural       CFeSNHSFe2SFeS2CSH2CHCH2C3SCH3CHC2H2CFeCNC2HCH2CH7SCFeH4SCFeS2FeSH3SHC3SH3SCH4CSCHCH2CNH4FeH2CS2HC2H5CH3CFeHFeSHC3FeHFeSCS2NCH4C3HSCH5CHCH6C2H2CH2NSHFeC2H2CHCFeHFeS2C5H3C2HCSCHSCHNHC2HSH2C3H2SNHCH2CH3NC2H2CH2CH8FeCHSCH2SHCH4C4H3C2H2CHCH3CH4NHCHNCH2CH2C2H2SH2C3H2FeSH2SCFeSFeHSNC3SHCH2CH2C2HSCHFeCSH7C3HCH3CHCHSHFeS3FeCS2C6H2C2HCHCH4NCHFeH2SH2CHCHCHCH2CH2FeH2NH2SHCH5CHCHCH5CHNHCHSCFeSNFeSCFeSFeH2SC3SHCSH3C4HCH2CSHC2H2CHC2HCHCH2SHC2H2CH4CH4SHSCHCSCH2FeSH4FeCHCHC2H2CH2CFeNCH4NHSHC2SCSHCSHCHS2H8CNHCFeC4H3CH8C2SCHCH2SHNH3CHCHCHFeHSFeHC2H2CS2H8CH5NHNCHCHSCFeHCHC2H2CH3CSC2FeCSCSHFeCH3FeHC6H2SC2HSC2SCHNCH2CHSFeH3CHSCH6C2HC3HNSHC2SNH4FeH3CHCH5FeH2FeSFe2S2FeHFeS3HFeCHSH2C4NCHS2HCHSH4CHCHCHC2HC2SHC2H2C2H6C2HSFeSHC7SH2SHSFe2HCHCSH2CHC2HNH3CSHFeH2CHCHC2SH2C2NCSHSCH2CNHSH2C2H3CHFeCHCHFeH4FeSCFeS2FeSFeHS2H4CHC4HCH2CHCH4SH3C2H3SH2CFeSHSC2HCHCH4C2HSNHCH4CH3C2H2SH5CH2FeCH2C2SCH2C4H2C2NHCH2CH4CSFeS2FeSHFeHFeHS2HCHCSCSHNHCHCHC3H2CH2SCNH3CH2CH3SHCH5CH4
_chemical_formula_sum              "C320 Fe64 S128 N32 H512"
_cell_length_a       29.1929
_cell_length_b       32.8362
_cell_length_c       35.0802
_cell_angle_alpha    90.1156
_cell_angle_beta     89.9148
_cell_angle_gamma    89.7394

_space_group_name_H-M_alt    "P 1"
_space_group_IT_number       1

loop_
  _space_group_symop_operation_xyz
  'x, y, z'

loop_
  _atom_site_type_symbol
  _atom_site_label
  _atom_site_symmetry_multiplicity
  _atom_site_fract_x
  _atom_site_fract_y
  _atom_site_fract_z
  _atom_site_occupancy
  C   C1        1.0  0.21359  0.33525  0.34156  1.0000
  Fe  Fe1       1.0  0.57345  0.15236  0.21104  1.0000
  S   S1        1.0  0.50158  0.17643  0.20935  1.0000
  N   N1        1.0  0.24881  0.35093  0.31513  1.0000
  H   H1        1.0  0.19921  0.37289  0.27483  1.0000
  S   S2        1.0  0.50960  0.18891  0.30186  1.0000
  Fe  Fe2       1.0  0.35992  0.54075  0.34255  1.0000
  Fe  Fe3       1.0  0.49085  0.13854  0.26149  1.0000
  S   S3        1.0  0.42577  0.10411  0.27222  1.0000
  Fe  Fe4       1.0  0.52728  0.22426  0.24928  1.0000
  S   S4        1.0  0.51364  0.29013  0.23552  1.0000
  S   S5        1.0  0.56081  0.11023  0.25998  1.0000
  C   C2        1.0  0.61479  0.18966  0.38441  1.0000
  S   S6        1.0  0.60041  0.20298  0.24745  1.0000
  H   H2        1.0  0.49711  0.07376  0.31941  1.0000
  H   H3        1.0  0.43013  0.41137  0.27726  1.0000
  C   C3        1.0  0.57011  0.20198  0.39314  1.0000
  H   H4        1.0  0.59702  0.27190  0.15462  1.0000
  C   C4        1.0  0.41406  0.35970  0.31253  1.0000
  H   H5        1.0  0.17173  0.48664  0.38946  1.0000
  H   H6        1.0  0.21972  0.32216  0.26569  1.0000
  C   C5        1.0  0.47306  0.31568  0.26402  1.0000
  C   C6        1.0  0.45103  0.29602  0.29423  1.0000
  C   C7        1.0  0.42156  0.31802  0.31846  1.0000
  S   S7        1.0  0.37817  0.38714  0.34365  1.0000
  C   C8        1.0  0.57764  0.29960  0.33278  1.0000
  H   H7        1.0  0.45692  0.26399  0.29916  1.0000
  H   H8        1.0  0.40497  0.30279  0.34203  1.0000
  H   H9        1.0  0.31638  0.33467  0.29568  1.0000
  C   C9        1.0  0.46467  0.35714  0.25762  1.0000
  H   H10       1.0  0.20236  0.30412  0.33336  1.0000
  C   C10       1.0  0.43543  0.37916  0.28193  1.0000
  C   C11       1.0  0.26256  0.39217  0.32734  1.0000
  H   H11       1.0  0.56177  0.40195  0.34041  1.0000
  H   H12       1.0  0.59475  0.37420  0.30544  1.0000
  C   C12       1.0  0.37414  0.52538  0.17199  1.0000
  Fe  Fe5       1.0  0.58058  0.16321  0.29686  1.0000
  C   C13       1.0  0.56565  0.37198  0.32585  1.0000
  N   N2        1.0  0.57269  0.33865  0.35350  1.0000
  C   C14       1.0  0.22996  0.35284  0.27608  1.0000
  C   C15       1.0  0.53281  0.33665  0.37946  1.0000
  H   H13       1.0  0.30506  0.32224  0.34436  1.0000
  C   C16       1.0  0.16835  0.47753  0.35997  1.0000
  H   H14       1.0  0.15894  0.44361  0.25419  1.0000
  H   H15       1.0  0.28857  0.40517  0.30770  1.0000
  C   C17       1.0  0.16105  0.45338  0.28362  1.0000
  H   H16       1.0  0.48162  0.37255  0.23432  1.0000
  H   H17       1.0  0.54141  0.18833  0.37866  1.0000
  H   H18       1.0  0.22665  0.33391  0.37133  1.0000
  H   H19       1.0  0.48841  0.08370  0.36899  1.0000
  H   H20       1.0  0.18261  0.35521  0.34194  1.0000
  H   H21       1.0  0.23300  0.41352  0.32800  1.0000
  H   H22       1.0  0.27786  0.39189  0.35640  1.0000
  S   S8        1.0  0.41820  0.50003  0.32503  1.0000
  C   C18       1.0  0.51497  0.07626  0.34727  1.0000
  Fe  Fe6       1.0  0.29531  0.50573  0.28455  1.0000
  H   H23       1.0  0.28030  0.29209  0.30682  1.0000
  H   H24       1.0  0.53877  0.10260  0.34550  1.0000
  H   H25       1.0  0.57736  0.22106  0.16279  1.0000
  H   H26       1.0  0.60624  0.30052  0.31179  1.0000
  S   S9        1.0  0.30876  0.49023  0.34590  1.0000
  C   C19       1.0  0.41971  0.53723  0.17726  1.0000
  Fe  Fe7       1.0  0.39534  0.51399  0.26569  1.0000
  S   S10       1.0  0.34702  0.46149  0.26148  1.0000
  S   S11       1.0  0.44684  0.52992  0.22115  1.0000
  Fe  Fe8       1.0  0.36543  0.45087  0.32260  1.0000
  S   S12       1.0  0.34192  0.55951  0.28309  1.0000
  H   H27       1.0  0.53414  0.36703  0.30874  1.0000
  H   H28       1.0  0.35597  0.50991  0.19444  1.0000
  H   H29       1.0  0.21284  0.52473  0.33909  1.0000
  S   S13       1.0  0.22487  0.50767  0.25932  1.0000
  H   H30       1.0  0.25554  0.36529  0.25562  1.0000
  C   C20       1.0  0.19179  0.49890  0.33152  1.0000
  C   C21       1.0  0.18910  0.48612  0.29354  1.0000
  C   C22       1.0  0.28926  0.32366  0.31550  1.0000
  S   S14       1.0  0.62492  0.15321  0.34869  1.0000
  H   H31       1.0  0.54601  0.29192  0.31671  1.0000
  H   H32       1.0  0.50061  0.33036  0.36362  1.0000
  H   H33       1.0  0.58470  0.27400  0.35259  1.0000
  S   S15       1.0  0.60115  0.13414  0.15378  1.0000
  C   C23       1.0  0.61462  0.34642  0.37590  1.0000
  H   H34       1.0  0.47820  0.56654  0.15202  1.0000
  H   H35       1.0  0.52779  0.36574  0.39528  1.0000
  H   H36       1.0  0.62096  0.32167  0.39693  1.0000
  H   H37       1.0  0.61185  0.37535  0.39236  1.0000
  C   C24       1.0  0.14307  0.44296  0.35038  1.0000
  S   S16       1.0  0.58899  0.29024  0.47168  1.0000
  C   C25       1.0  0.59923  0.24955  0.44030  1.0000
  H   H38       1.0  0.52772  0.24177  0.42723  1.0000
  C   C26       1.0  0.56237  0.23200  0.42090  1.0000
  H   H39       1.0  0.16996  0.44827  0.50851  1.0000
  H   H40       1.0  0.28113  0.48253  0.46599  1.0000
  C   C27       1.0  0.19592  0.45908  0.48756  1.0000
  N   N3        1.0  0.22366  0.49260  0.50351  1.0000
  H   H41       1.0  0.23876  0.51734  0.44818  1.0000
  H   H42       1.0  0.62761  0.08576  0.52408  1.0000
  H   H43       1.0  0.27198  0.45204  0.53030  1.0000
  H   H44       1.0  0.53715  0.31227  0.40110  1.0000
  Fe  Fe9       1.0  0.63909  0.29408  0.52021  1.0000
  H   H45       1.0  0.16711  0.51671  0.53606  1.0000
  H   H46       1.0  0.27049  0.50254  0.54990  1.0000
  C   C28       1.0  0.19314  0.52655  0.51478  1.0000
  S   S17       1.0  0.25734  0.50575  0.63575  1.0000
  S   S18       1.0  0.63495  0.34380  0.56405  1.0000
  H   H47       1.0  0.27705  0.53322  0.48517  1.0000
  C   C29       1.0  0.25660  0.50696  0.47447  1.0000
  C   C30       1.0  0.24889  0.47801  0.53739  1.0000
  H   H48       1.0  0.21770  0.43260  0.47931  1.0000
  H   H49       1.0  0.22506  0.46784  0.56028  1.0000
  H   H50       1.0  0.17465  0.53947  0.48981  1.0000
  H   H51       1.0  0.21297  0.55171  0.52793  1.0000
  H   H52       1.0  0.34433  0.54436  0.62452  1.0000
  C   C31       1.0  0.63611  0.08610  0.49313  1.0000
  H   H53       1.0  0.60522  0.09673  0.47744  1.0000
  H   H54       1.0  0.17703  0.46894  0.46159  1.0000
  H   H55       1.0  0.63471  0.16696  0.48255  1.0000
  C   C32       1.0  0.34742  0.52297  0.64774  1.0000
  Fe  Fe10      1.0  0.25658  0.57068  0.61703  1.0000
  H   H56       1.0  0.54127  0.33101  0.77832  1.0000
  Fe  Fe11      1.0  0.57040  0.18301  0.83687  1.0000
  S   S19       1.0  0.50027  0.16783  0.81575  1.0000
  H   H57       1.0  0.19923  0.44046  0.84181  1.0000
  C   C33       1.0  0.62192  0.21094  0.75794  1.0000
  C   C34       1.0  0.50427  0.33929  0.77694  1.0000
  C   C35       1.0  0.58141  0.23359  0.75536  1.0000
  Fe  Fe12      1.0  0.49217  0.13492  0.87110  1.0000
  H   H58       1.0  0.50876  0.41989  0.79048  1.0000
  Fe  Fe13      1.0  0.47788  0.22269  0.84903  1.0000
  S   S20       1.0  0.42423  0.26356  0.82383  1.0000
  C   C36       1.0  0.33672  0.20169  0.86736  1.0000
  S   S21       1.0  0.54893  0.24132  0.86526  1.0000
  S   S22       1.0  0.63142  0.17972  0.79786  1.0000
  N   N4        1.0  0.49584  0.37258  0.74944  1.0000
  C   C37       1.0  0.51227  0.36019  0.71122  1.0000
  H   H59       1.0  0.37722  0.12101  0.81622  1.0000
  H   H60       1.0  0.55592  0.23173  0.77761  1.0000
  H   H61       1.0  0.49310  0.34796  0.80623  1.0000
  H   H62       1.0  0.29337  0.11595  0.82693  1.0000
  C   C38       1.0  0.39233  0.34100  0.83380  1.0000
  C   C39       1.0  0.41996  0.30992  0.84851  1.0000
  C   C40       1.0  0.22976  0.53305  0.73596  1.0000
  H   H63       1.0  0.48522  0.31119  0.76903  1.0000
  S   S23       1.0  0.59565  0.29547  0.65695  1.0000
  C   C41       1.0  0.39015  0.37894  0.85211  1.0000
  H   H64       1.0  0.25544  0.55013  0.71887  1.0000
  H   H65       1.0  0.49420  0.33259  0.70070  1.0000
  H   H66       1.0  0.51489  0.43516  0.74169  1.0000
  H   H67       1.0  0.37273  0.33582  0.80810  1.0000
  H   H68       1.0  0.16251  0.52583  0.78768  1.0000
  C   C42       1.0  0.57359  0.25870  0.72384  1.0000
  H   H69       1.0  0.40865  0.16041  0.83920  1.0000
  C   C43       1.0  0.29356  0.14819  0.83688  1.0000
  H   H70       1.0  0.46592  0.29255  0.89377  1.0000
  H   H71       1.0  0.22788  0.50188  0.72359  1.0000
  H   H72       1.0  0.54961  0.35290  0.71137  1.0000
  H   H73       1.0  0.26468  0.15209  0.85736  1.0000
  H   H74       1.0  0.55815  0.40380  0.76348  1.0000
  H   H75       1.0  0.54181  0.27539  0.72177  1.0000
  C   C44       1.0  0.23181  0.49925  0.84300  1.0000
  C   C45       1.0  0.18402  0.55552  0.86368  1.0000
  H   H76       1.0  0.41736  0.53903  0.65973  1.0000
  H   H77       1.0  0.36820  0.40241  0.84084  1.0000
  C   C46       1.0  0.52058  0.40946  0.76185  1.0000
  H   H78       1.0  0.50683  0.38472  0.68981  1.0000
  H   H79       1.0  0.43849  0.40550  0.72624  1.0000
  N   N5        1.0  0.33783  0.15872  0.85462  1.0000
  S   S24       1.0  0.46613  0.50954  0.83397  1.0000
  H   H80       1.0  0.33128  0.22288  0.84299  1.0000
  Fe  Fe14      1.0  0.40591  0.48494  0.86640  1.0000
  C   C47       1.0  0.19510  0.47251  0.84832  1.0000
  C   C48       1.0  0.44621  0.38154  0.74776  1.0000
  H   H81       1.0  0.37058  0.17343  0.80132  1.0000
  H   H82       1.0  0.26389  0.48772  0.83217  1.0000
  C   C49       1.0  0.16838  0.55710  0.69575  1.0000
  H   H83       1.0  0.43313  0.39281  0.77570  1.0000
  C   C50       1.0  0.22606  0.54089  0.84997  1.0000
  Fe  Fe15      1.0  0.33893  0.54567  0.83354  1.0000
  H   H84       1.0  0.42621  0.35395  0.74005  1.0000
  Fe  Fe16      1.0  0.41679  0.51126  0.78550  1.0000
  S   S25       1.0  0.35833  0.48206  0.81635  1.0000
  S   S26       1.0  0.44136  0.49493  0.72724  1.0000
  C   C51       1.0  0.31453  0.47096  0.68813  1.0000
  C   C52       1.0  0.35535  0.46916  0.70906  1.0000
  C   C53       1.0  0.39239  0.49375  0.69880  1.0000
  C   C54       1.0  0.38879  0.51998  0.66766  1.0000
  C   C55       1.0  0.37499  0.15311  0.82644  1.0000
  H   H85       1.0  0.28585  0.45204  0.69611  1.0000
  H   H86       1.0  0.35806  0.44890  0.73323  1.0000
  H   H87       1.0  0.36966  0.21073  0.88083  1.0000
  C   C56       1.0  0.44469  0.31653  0.88208  1.0000
  C   C57       1.0  0.60635  0.26182  0.69483  1.0000
  H   H88       1.0  0.24342  0.53035  0.76544  1.0000
  C   C58       1.0  0.31025  0.49862  0.65807  1.0000
  S   S27       1.0  0.56480  0.14477  0.88968  1.0000
  C   C59       1.0  0.41514  0.38587  0.88548  1.0000
  H   H89       1.0  0.28636  0.16787  0.81175  1.0000
  S   S28       1.0  0.38202  0.54645  0.88599  1.0000
  C   C60       1.0  0.15280  0.48718  0.86138  1.0000
  H   H90       1.0  0.14763  0.49799  0.74567  1.0000
  N   N6        1.0  0.18450  0.55346  0.73550  1.0000
  H   H91       1.0  0.16560  0.52680  0.68164  1.0000
  C   C61       1.0  0.34620  0.13182  0.88769  1.0000
  C   C62       1.0  0.15132  0.52922  0.75763  1.0000
  H   H92       1.0  0.34821  0.09921  0.87893  1.0000
  S   S29       1.0  0.45225  0.07664  0.87251  1.0000
  H   H93       1.0  0.54168  0.07436  0.83784  1.0000
  H   H94       1.0  0.30902  0.20726  0.88858  1.0000
  C   C63       1.0  0.14752  0.52861  0.86979  1.0000
  C   C64       1.0  0.29086  0.50129  0.93757  1.0000
  C   C65       1.0  0.31069  0.45283  0.98653  1.0000
  H   H95       1.0  0.27222  0.55007  0.99786  1.0000
  H   H96       1.0  0.32304  0.44817  0.01623  1.0000
  S   S30       1.0  0.55827  0.21747  0.97682  1.0000
  N   N7        1.0  0.55689  0.24641  0.10903  1.0000
  H   H97       1.0  0.46118  0.35946  0.92664  1.0000
  C   C66       1.0  0.61356  0.23746  0.97477  1.0000
  H   H98       1.0  0.23972  0.50378  0.00114  1.0000
  H   H99       1.0  0.36588  0.51296  0.01100  1.0000
  C   C67       1.0  0.59022  0.24217  0.14048  1.0000
  H   H100      1.0  0.53360  0.18443  0.11279  1.0000
  H   H101      1.0  0.31878  0.13491  0.90957  1.0000
  H   H102      1.0  0.58055  0.19207  0.08079  1.0000
  N   N8        1.0  0.30727  0.49663  0.97722  1.0000
  C   C68       1.0  0.54833  0.20607  0.09170  1.0000
  C   C69       1.0  0.51347  0.26324  0.12423  1.0000
  H   H103      1.0  0.48755  0.26717  0.10129  1.0000
  H   H104      1.0  0.55218  0.27662  0.05475  1.0000
  C   C70       1.0  0.62579  0.26327  0.94486  1.0000
  H   H105      1.0  0.62351  0.22960  0.13020  1.0000
  H   H106      1.0  0.37940  0.13890  0.90175  1.0000
  C   C71       1.0  0.57556  0.27411  0.07975  1.0000
  H   H107      1.0  0.37863  0.50063  0.96219  1.0000
  H   H108      1.0  0.35185  0.54857  0.97425  1.0000
  H   H109      1.0  0.52426  0.20820  0.06717  1.0000
  H   H110      1.0  0.58102  0.30525  0.09139  1.0000
  H   H111      1.0  0.51876  0.29339  0.13816  1.0000
  H   H112      1.0  0.63711  0.20564  0.02477  1.0000
  H   H113      1.0  0.31417  0.48563  0.91701  1.0000
  H   H114      1.0  0.60910  0.26287  0.06875  1.0000
  Fe  Fe17      1.0  0.53746  0.20197  0.91681  1.0000
  C   C72       1.0  0.37422  0.55628  0.10937  1.0000
  H   H115      1.0  0.33526  0.43686  0.96714  1.0000
  S   S31       1.0  0.46430  0.18870  0.90303  1.0000
  C   C73       1.0  0.35292  0.51551  0.98123  1.0000
  H   H116      1.0  0.28590  0.51348  0.03383  1.0000
  H   H117      1.0  0.25613  0.48797  0.93374  1.0000
  S   S32       1.0  0.41317  0.43368  0.90821  1.0000
  H   H118      1.0  0.31613  0.52582  0.13398  1.0000
  C   C74       1.0  0.44194  0.35439  0.90073  1.0000
  H   H119      1.0  0.27694  0.43748  0.98374  1.0000
  H   H120      1.0  0.49850  0.24288  0.14631  1.0000
  H   H121      1.0  0.60019  0.27376  0.92502  1.0000
  H   H122      1.0  0.28859  0.53394  0.92918  1.0000
  C   C75       1.0  0.27475  0.51678  0.00362  1.0000
  C   C76       1.0  0.35161  0.53425  0.13770  1.0000
  C   C77       1.0  0.42012  0.56712  0.11423  1.0000
  C   C78       1.0  0.44299  0.55730  0.14805  1.0000
  H   H123      1.0  0.32471  0.83488  0.17998  1.0000
  H   H124      1.0  0.28660  0.68203  0.21120  1.0000
  H   H125      1.0  0.48373  0.62674  0.30677  1.0000
  C   C79       1.0  0.45147  0.62260  0.29038  1.0000
  C   C80       1.0  0.25847  0.66242  0.22214  1.0000
  H   H126      1.0  0.21513  0.59219  0.23460  1.0000
  H   H127      1.0  0.48857  0.60969  0.22151  1.0000
  C   C81       1.0  0.33832  0.86580  0.17383  1.0000
  H   H128      1.0  0.37584  0.64905  0.25510  1.0000
  C   C82       1.0  0.51082  0.73824  0.15759  1.0000
  H   H129      1.0  0.40079  0.80661  0.16356  1.0000
  H   H130      1.0  0.45015  0.59011  0.28134  1.0000
  H   H131      1.0  0.42782  0.85008  0.18461  1.0000
  C   C83       1.0  0.48847  0.64190  0.23149  1.0000
  H   H132      1.0  0.49609  0.04959  0.24174  1.0000
  H   H133      1.0  0.45040  0.71476  0.24634  1.0000
  H   H134      1.0  0.14149  0.59753  0.33776  1.0000
  H   H135      1.0  0.29313  0.58734  0.20712  1.0000
  N   N9        1.0  0.24303  0.63313  0.19285  1.0000
  H   H136      1.0  0.27085  0.58386  0.15965  1.0000
  C   C84       1.0  0.40606  0.64381  0.23633  1.0000
  H   H137      1.0  0.42236  0.62786  0.31044  1.0000
  N   N10       1.0  0.44937  0.65031  0.25722  1.0000
  C   C85       1.0  0.45154  0.69299  0.27060  1.0000
  H   H138      1.0  0.40396  0.61211  0.22511  1.0000
  H   H139      1.0  0.42254  0.70047  0.29008  1.0000
  C   C86       1.0  0.50650  0.00436  0.35905  1.0000
  H   H140      1.0  0.35144  0.87833  0.20121  1.0000
  H   H141      1.0  0.60855  0.68761  0.21570  1.0000
  C   C87       1.0  0.58171  0.70221  0.19936  1.0000
  C   C88       1.0  0.60905  0.91811  0.16352  1.0000
  H   H142      1.0  0.27095  0.64651  0.24815  1.0000
  H   H143      1.0  0.48725  0.66151  0.20565  1.0000
  S   S33       1.0  0.56463  0.74662  0.26339  1.0000
  H   H144      1.0  0.52177  0.64754  0.24595  1.0000
  H   H145      1.0  0.48389  0.69895  0.28643  1.0000
  C   C89       1.0  0.28130  0.60567  0.18231  1.0000
  C   C90       1.0  0.18878  0.76619  0.17208  1.0000
  C   C91       1.0  0.23537  0.76132  0.18059  1.0000
  H   H146      1.0  0.58895  0.06826  0.39199  1.0000
  H   H147      1.0  0.48032  0.01002  0.38153  1.0000
  Fe  Fe18      1.0  0.54703  0.87832  0.33369  1.0000
  S   S34       1.0  0.49308  0.83941  0.30697  1.0000
  H   H148      1.0  0.22989  0.68292  0.23124  1.0000
  H   H149      1.0  0.30896  0.88521  0.16483  1.0000
  S   S35       1.0  0.54443  0.85731  0.22510  1.0000
  C   C92       1.0  0.51955  0.75111  0.19504  1.0000
  Fe  Fe19      1.0  0.49190  0.88789  0.26207  1.0000
  S   S36       1.0  0.42580  0.91427  0.24124  1.0000
  Fe  Fe20      1.0  0.55127  0.81307  0.27319  1.0000
  H   H150      1.0  0.40310  0.66479  0.21154  1.0000
  S   S37       1.0  0.54138  0.92896  0.29158  1.0000
  N   N11       1.0  0.53965  0.03817  0.35650  1.0000
  C   C93       1.0  0.62303  0.93407  0.38594  1.0000
  C   C94       1.0  0.42589  0.96733  0.24776  1.0000
  C   C95       1.0  0.38606  0.98705  0.26027  1.0000
  S   S38       1.0  0.32491  0.74884  0.16150  1.0000
  H   H151      1.0  0.35525  0.96968  0.26538  1.0000
  C   C96       1.0  0.20476  0.60888  0.20835  1.0000
  H   H152      1.0  0.35567  0.04404  0.27783  1.0000
  H   H153      1.0  0.59898  0.05423  0.32336  1.0000
  C   C97       1.0  0.46561  0.99002  0.24110  1.0000
  H   H154      1.0  0.17521  0.62865  0.21636  1.0000
  H   H155      1.0  0.49836  0.77445  0.20800  1.0000
  C   C98       1.0  0.22756  0.65554  0.15865  1.0000
  C   C99       1.0  0.46564  0.03226  0.24761  1.0000
  H   H156      1.0  0.57760  0.91945  0.17966  1.0000
  S   S39       1.0  0.60578  0.84800  0.30383  1.0000
  C   C100      1.0  0.38635  0.02909  0.26740  1.0000
  H   H157      1.0  0.48785  0.00003  0.33161  1.0000
  Fe  Fe21      1.0  0.59450  0.89485  0.25840  1.0000
  C   C101      1.0  0.55470  0.73272  0.21602  1.0000
  S   S40       1.0  0.37208  0.58781  0.38761  1.0000
  H   H158      1.0  0.55683  0.02495  0.29808  1.0000
  H   H159      1.0  0.59317  0.00072  0.33253  1.0000
  H   H160      1.0  0.49610  0.97517  0.23025  1.0000
  H   H161      1.0  0.19246  0.58596  0.18738  1.0000
  H   H162      1.0  0.16367  0.76551  0.19476  1.0000
  H   H163      1.0  0.24604  0.75690  0.20981  1.0000
  H   H164      1.0  0.62271  0.92357  0.35669  1.0000
  C   C102      1.0  0.57364  0.02914  0.32631  1.0000
  C   C103      1.0  0.42616  0.05178  0.26130  1.0000
  C   C104      1.0  0.57418  0.69054  0.16150  1.0000
  H   H165      1.0  0.31117  0.62294  0.17109  1.0000
  C   C105      1.0  0.41268  0.83816  0.15770  1.0000
  H   H166      1.0  0.40626  0.91972  0.16369  1.0000
  H   H167      1.0  0.52384  0.97503  0.36595  1.0000
  H   H168      1.0  0.61971  0.78686  0.16721  1.0000
  C   C106      1.0  0.56354  0.04305  0.39332  1.0000
  H   H169      1.0  0.19965  0.67751  0.16566  1.0000
  C   C107      1.0  0.26774  0.76059  0.15118  1.0000
  H   H170      1.0  0.63200  0.83608  0.18696  1.0000
  S   S41       1.0  0.54332  0.89142  0.39618  1.0000
  H   H171      1.0  0.27384  0.57506  0.37844  1.0000
  Fe  Fe22      1.0  0.23187  0.63121  0.55562  1.0000
  S   S42       1.0  0.20461  0.62990  0.49562  1.0000
  S   S43       1.0  0.24589  0.68571  0.59279  1.0000
  S   S44       1.0  0.19027  0.59898  0.59986  1.0000
  Fe  Fe23      1.0  0.30844  0.65026  0.61043  1.0000
  C   C108      1.0  0.58679  0.77698  0.47547  1.0000
  S   S45       1.0  0.29720  0.59824  0.56973  1.0000
  S   S46       1.0  0.37751  0.67847  0.61959  1.0000
  C   C109      1.0  0.25022  0.62059  0.46391  1.0000
  C   C110      1.0  0.29482  0.63090  0.47443  1.0000
  C   C111      1.0  0.33178  0.62110  0.45054  1.0000
  C   C112      1.0  0.32450  0.60047  0.41616  1.0000
  C   C113      1.0  0.58762  0.92328  0.41086  1.0000
  C   C114      1.0  0.24254  0.60097  0.42895  1.0000
  H   H172      1.0  0.30094  0.64707  0.50079  1.0000
  H   H173      1.0  0.36620  0.62930  0.45891  1.0000
  C   C115      1.0  0.59241  0.00137  0.64097  1.0000
  C   C116      1.0  0.62514  0.95959  0.46199  1.0000
  H   H174      1.0  0.56654  0.78127  0.44883  1.0000
  C   C117      1.0  0.27976  0.59044  0.40526  1.0000
  H   H175      1.0  0.54372  0.84916  0.47230  1.0000
  C   C118      1.0  0.58806  0.93708  0.44850  1.0000
  H   H176      1.0  0.52135  0.84998  0.61574  1.0000
  H   H177      1.0  0.20801  0.59332  0.42046  1.0000
  H   H178      1.0  0.58245  0.01481  0.40114  1.0000
  H   H179      1.0  0.62565  0.96908  0.49139  1.0000
  N   N12       1.0  0.60398  0.81629  0.49005  1.0000
  C   C119      1.0  0.59474  0.85669  0.61554  1.0000
  H   H180      1.0  0.56003  0.92981  0.46745  1.0000
  Fe  Fe24      1.0  0.21099  0.64968  0.63871  1.0000
  H   H181      1.0  0.57658  0.87368  0.50877  1.0000
  H   H182      1.0  0.62491  0.01882  0.63830  1.0000
  S   S47       1.0  0.59371  0.89841  0.58457  1.0000
  H   H183      1.0  0.59186  0.97824  0.61779  1.0000
  H   H184      1.0  0.56359  0.02291  0.63581  1.0000
  C   C120      1.0  0.56476  0.84355  0.49827  1.0000
  H   H185      1.0  0.54199  0.83075  0.52069  1.0000
  C   C121      1.0  0.63371  0.83529  0.46098  1.0000
  H   H186      1.0  0.61498  0.84010  0.43369  1.0000
  C   C122      1.0  0.55359  0.83877  0.62686  1.0000
  H   H187      1.0  0.56407  0.76191  0.49667  1.0000
  C   C123      1.0  0.63622  0.84192  0.62986  1.0000
  H   H188      1.0  0.61546  0.75564  0.46884  1.0000
  H   H189      1.0  0.60894  0.79544  0.54810  1.0000
  C   C124      1.0  0.63046  0.80940  0.52541  1.0000
  H   H190      1.0  0.53900  0.04989  0.41677  1.0000
  H   H191      1.0  0.44797  0.73043  0.64880  1.0000
  Fe  Fe25      1.0  0.43710  0.57100  0.84818  1.0000
  H   H192      1.0  0.38824  0.67694  0.82021  1.0000
  H   H193      1.0  0.43731  0.60878  0.68458  1.0000
  N   N13       1.0  0.48405  0.64056  0.72154  1.0000
  H   H194      1.0  0.53585  0.67859  0.74658  1.0000
  H   H195      1.0  0.41608  0.63914  0.74494  1.0000
  S   S48       1.0  0.16215  0.66908  0.68449  1.0000
  H   H196      1.0  0.33157  0.65328  0.86530  1.0000
  C   C125      1.0  0.54570  0.95835  0.68074  1.0000
  H   H197      1.0  0.55890  0.03489  0.70557  1.0000
  H   H198      1.0  0.15536  0.61134  0.75162  1.0000
  H   H199      1.0  0.45613  0.65692  0.66692  1.0000
  H   H200      1.0  0.55101  0.65716  0.70106  1.0000
  H   H201      1.0  0.51511  0.97817  0.67670  1.0000
  C   C126      1.0  0.62805  0.95429  0.68475  1.0000
  H   H202      1.0  0.45736  0.66607  0.77358  1.0000
  C   C127      1.0  0.33719  0.72198  0.67778  1.0000
  H   H203      1.0  0.52942  0.58895  0.72587  1.0000
  C   C128      1.0  0.59533  0.79341  0.66902  1.0000
  H   H204      1.0  0.55628  0.89880  0.86400  1.0000
  H   H205      1.0  0.47679  0.71526  0.86180  1.0000
  H   H206      1.0  0.52185  0.79421  0.66318  1.0000
  H   H207      1.0  0.19263  0.57532  0.67855  1.0000
  H   H208      1.0  0.31074  0.76231  0.84376  1.0000
  C   C129      1.0  0.44646  0.65934  0.74378  1.0000
  H   H209      1.0  0.38426  0.72936  0.83484  1.0000
  N   N14       1.0  0.58866  0.98197  0.67878  1.0000
  H   H210      1.0  0.37461  0.71613  0.78621  1.0000
  C   C130      1.0  0.55388  0.80724  0.65371  1.0000
  H   H211      1.0  0.51153  0.61020  0.77091  1.0000
  S   S49       1.0  0.27462  0.61889  0.65933  1.0000
  C   C131      1.0  0.41735  0.73534  0.66564  1.0000
  Fe  Fe26      1.0  0.52676  0.79782  0.83417  1.0000
  S   S50       1.0  0.47701  0.84898  0.82569  1.0000
  N   N15       1.0  0.31954  0.70067  0.82412  1.0000
  Fe  Fe27      1.0  0.55028  0.79146  0.75063  1.0000
  S   S51       1.0  0.50367  0.84308  0.73451  1.0000
  C   C132      1.0  0.48216  0.03766  0.84878  1.0000
  Fe  Fe28      1.0  0.53081  0.87414  0.78669  1.0000
  S   S52       1.0  0.56155  0.93684  0.78769  1.0000
  Fe  Fe29      1.0  0.45455  0.81268  0.77465  1.0000
  H   H212      1.0  0.47260  0.58019  0.74306  1.0000
  H   H213      1.0  0.30243  0.68549  0.76616  1.0000
  S   S53       1.0  0.49954  0.75878  0.78708  1.0000
  C   C133      1.0  0.46729  0.62959  0.68311  1.0000
  C   C134      1.0  0.53011  0.97522  0.81091  1.0000
  C   C135      1.0  0.48606  0.96805  0.82504  1.0000
  S   S54       1.0  0.58224  0.82529  0.79893  1.0000
  H   H214      1.0  0.47024  0.93867  0.82110  1.0000
  C   C136      1.0  0.31372  0.68321  0.86264  1.0000
  S   S55       1.0  0.59491  0.75990  0.70775  1.0000
  H   H215      1.0  0.32781  0.70381  0.88494  1.0000
  H   H216      1.0  0.54485  0.93410  0.65845  1.0000
  H   H217      1.0  0.60304  0.86895  0.88188  1.0000
  C   C137      1.0  0.29639  0.74076  0.82234  1.0000
  C   C138      1.0  0.45396  0.70344  0.88337  1.0000
  C   C139      1.0  0.29931  0.67294  0.79553  1.0000
  C   C140      1.0  0.52612  0.04476  0.83452  1.0000
  H   H218      1.0  0.25899  0.73810  0.82785  1.0000
  C   C141      1.0  0.18854  0.59450  0.75253  1.0000
  H   H219      1.0  0.54192  0.94296  0.70879  1.0000
  H   H220      1.0  0.30724  0.75486  0.72491  1.0000
  C   C142      1.0  0.37903  0.76855  0.71881  1.0000
  S   S56       1.0  0.38134  0.79900  0.76000  1.0000
  H   H221      1.0  0.30097  0.75523  0.79392  1.0000
  C   C143      1.0  0.46216  0.99925  0.84413  1.0000
  C   C144      1.0  0.41852  0.76182  0.69703  1.0000
  H   H222      1.0  0.58433  0.01921  0.80526  1.0000
  H   H223      1.0  0.42807  0.99371  0.85504  1.0000
  C   C145      1.0  0.55012  0.01354  0.81581  1.0000
  H   H224      1.0  0.45011  0.77676  0.70444  1.0000
  C   C146      1.0  0.33815  0.74913  0.70874  1.0000
  C   C147      1.0  0.44860  0.66139  0.88750  1.0000
  H   H225      1.0  0.51092  0.69854  0.70380  1.0000
  C   C148      1.0  0.36885  0.70583  0.81598  1.0000
  H   H226      1.0  0.30566  0.70676  0.67039  1.0000
  C   C149      1.0  0.50020  0.60341  0.74123  1.0000
  H   H227      1.0  0.27696  0.67803  0.86946  1.0000
  H   H228      1.0  0.43494  0.68843  0.73081  1.0000
  S   S57       1.0  0.47803  0.62781  0.85712  1.0000
  H   H229      1.0  0.26229  0.66770  0.80128  1.0000
  C   C150      1.0  0.52214  0.66988  0.71812  1.0000
  C   C151      1.0  0.37695  0.71474  0.65643  1.0000
  H   H230      1.0  0.17942  0.58772  0.86927  1.0000
  H   H231      1.0  0.49430  0.61412  0.66592  1.0000
  C   C152      1.0  0.58866  0.01387  0.70856  1.0000
  H   H232      1.0  0.53181  0.96142  0.89757  1.0000
  H   H233      1.0  0.21401  0.61332  0.73689  1.0000
  H   H234      1.0  0.31649  0.64262  0.79590  1.0000
  H   H235      1.0  0.19956  0.59292  0.78283  1.0000
  C   C153      1.0  0.63660  0.81018  0.65648  1.0000
  H   H236      1.0  0.62628  0.93937  0.71322  1.0000
  H   H237      1.0  0.58684  0.00031  0.73749  1.0000
  H   H238      1.0  0.62034  0.75449  0.84660  1.0000
  H   H239      1.0  0.62047  0.03250  0.70730  1.0000
  S   S58       1.0  0.26982  0.57529  0.83879  1.0000
  H   H240      1.0  0.62885  0.92965  0.66290  1.0000
  S   S59       1.0  0.54340  0.77871  0.89348  1.0000
  C   C154      1.0  0.57365  0.88861  0.89057  1.0000
  H   H241      1.0  0.60675  0.95899  0.86446  1.0000
  C   C155      1.0  0.63311  0.76869  0.87230  1.0000
  S   S60       1.0  0.39212  0.57462  0.79695  1.0000
  C   C156      1.0  0.62213  0.94782  0.89156  1.0000
  H   H242      1.0  0.61430  0.72211  0.98820  1.0000
  H   H243      1.0  0.56055  0.61938  0.98929  1.0000
  Fe  Fe30      1.0  0.36903  0.64095  0.06996  1.0000
  S   S61       1.0  0.42459  0.66303  0.03158  1.0000
  H   H244      1.0  0.37341  0.66133  0.96168  1.0000
  H   H245      1.0  0.59125  0.69760  0.02968  1.0000
  H   H246      1.0  0.52278  0.93180  0.93984  1.0000
  H   H247      1.0  0.21437  0.63453  0.13632  1.0000
  Fe  Fe31      1.0  0.38067  0.71888  0.02614  1.0000
  C   C157      1.0  0.61882  0.80030  0.93361  1.0000
  H   H248      1.0  0.52762  0.64834  0.02301  1.0000
  C   C158      1.0  0.35562  0.84758  0.10864  1.0000
  H   H249      1.0  0.27882  0.76720  0.09073  1.0000
  C   C159      1.0  0.40145  0.71523  0.93597  1.0000
  C   C160      1.0  0.42991  0.73042  0.90726  1.0000
  H   H250      1.0  0.59128  0.65194  0.93189  1.0000
  H   H251      1.0  0.49072  0.71079  0.96645  1.0000
  C   C161      1.0  0.39597  0.67320  0.93992  1.0000
  H   H252      1.0  0.41690  0.61409  0.92041  1.0000
  H   H253      1.0  0.32642  0.86627  0.09806  1.0000
  C   C162      1.0  0.39180  0.90599  0.13732  1.0000
  Fe  Fe32      1.0  0.45237  0.69419  0.08311  1.0000
  N   N16       1.0  0.55642  0.68353  0.97737  1.0000
  C   C163      1.0  0.53638  0.64547  0.99223  1.0000
  H   H254      1.0  0.19668  0.77774  0.07595  1.0000
  H   H255      1.0  0.54904  0.86911  0.90645  1.0000
  H   H256      1.0  0.38197  0.84616  0.08571  1.0000
  H   H257      1.0  0.41946  0.90602  0.11546  1.0000
  N   N17       1.0  0.37462  0.86438  0.14438  1.0000
  H   H258      1.0  0.43477  0.76295  0.90441  1.0000
  S   S62       1.0  0.32218  0.69398  0.06042  1.0000
  H   H259      1.0  0.34264  0.81614  0.11287  1.0000
  C   C164      1.0  0.60784  0.90893  0.12449  1.0000
  C   C165      1.0  0.20747  0.77332  0.10517  1.0000
  S   S63       1.0  0.52761  0.69135  0.09436  1.0000
  C   C166      1.0  0.52306  0.71719  0.98194  1.0000
  S   S64       1.0  0.37553  0.74829  0.96875  1.0000
  H   H260      1.0  0.59511  0.81124  0.95509  1.0000
  C   C167      1.0  0.54886  0.94934  0.92361  1.0000
  S   S65       1.0  0.34342  0.57687  0.07130  1.0000
  H   H261      1.0  0.58422  0.70557  0.92465  1.0000
  C   C168      1.0  0.56760  0.67808  0.93657  1.0000
  H   H262      1.0  0.53667  0.74630  0.97048  1.0000
  S   S66       1.0  0.40122  0.66665  0.12268  1.0000
  S   S67       1.0  0.41326  0.75220  0.07498  1.0000
  H   H263      1.0  0.58720  0.88959  0.96621  1.0000
  H   H264      1.0  0.51408  0.72225  0.01246  1.0000
  H   H265      1.0  0.43770  0.58419  0.09233  1.0000
  H   H266      1.0  0.36396  0.92662  0.12738  1.0000
  H   H267      1.0  0.62463  0.66872  0.99601  1.0000
  H   H268      1.0  0.44066  0.83616  0.13620  1.0000
  H   H269      1.0  0.53629  0.67251  0.91933  1.0000
  H   H270      1.0  0.57559  0.90179  0.11092  1.0000
  C   C169      1.0  0.59858  0.69337  0.99873  1.0000
  N   N18       1.0  0.58889  0.92364  0.91375  1.0000
  H   H271      1.0  0.50437  0.63749  0.97668  1.0000
  C   C170      1.0  0.17480  0.77200  0.13433  1.0000
  Fe  Fe33      1.0  0.35908  0.72180  0.11012  1.0000
  C   C171      1.0  0.25391  0.76711  0.11353  1.0000
  C   C172      1.0  0.41974  0.64636  0.91591  1.0000
  C   C173      1.0  0.60242  0.78255  0.90019  1.0000
  C   C174      1.0  0.53840  0.70815  0.14077  1.0000
  H   H272      1.0  0.55892  0.97599  0.94133  1.0000
  H   H273      1.0  0.62211  0.93433  0.96773  1.0000
  H   H274      1.0  0.48308  0.75184  0.14160  1.0000
  C   C175      1.0  0.61091  0.90877  0.94909  1.0000
  H   H275      1.0  0.63405  0.97482  0.90792  1.0000
  H   H276      1.0  0.25601  0.67333  0.14572  1.0000
  H   H277      1.0  0.59519  0.66698  0.14864  1.0000
  H   H278      1.0  0.12194  0.52979  0.24723  1.0000
  H   H279      1.0  0.75987  0.16182  0.19141  1.0000
  H   H280      1.0  0.00726  0.48167  0.25387  1.0000
  H   H281      1.0  0.67808  0.14640  0.20491  1.0000
  H   H282      1.0  0.64539  0.34831  0.35724  1.0000
  C   C176      1.0  0.01807  0.55628  0.28392  1.0000
  C   C177      1.0  0.09729  0.54542  0.26663  1.0000
  S   S68       1.0  0.00366  0.46359  0.39416  1.0000
  C   C178      1.0  0.68941  0.15101  0.17585  1.0000
  H   H283      1.0  0.10603  0.53662  0.29637  1.0000
  C   C179      1.0  0.04306  0.49056  0.26077  1.0000
  H   H284      1.0  0.05053  0.47994  0.29029  1.0000
  H   H285      1.0  0.08846  0.56498  0.38384  1.0000
  S   S69       1.0  0.12204  0.41131  0.38617  1.0000
  H   H286      1.0  0.06194  0.53253  0.19676  1.0000
  N   N19       1.0  0.04942  0.53503  0.25730  1.0000
  H   H287      1.0  0.11858  0.40482  0.30480  1.0000
  H   H288      1.0  0.06629  0.47361  0.24110  1.0000
  H   H289      1.0  0.00325  0.54143  0.20976  1.0000
  C   C180      1.0  0.73561  0.15972  0.16820  1.0000
  H   H290      1.0  0.98155  0.54992  0.27719  1.0000
  C   C181      1.0  0.03934  0.54802  0.21790  1.0000
  H   H291      1.0  0.02409  0.54675  0.31394  1.0000
  C   C182      1.0  0.13846  0.43143  0.31216  1.0000
  H   H292      1.0  0.68630  0.19692  0.39786  1.0000
  Fe  Fe34      1.0  0.71786  0.25224  0.55980  1.0000
  H   H293      1.0  0.78955  0.48200  0.59355  1.0000
  S   S70       1.0  0.76956  0.20214  0.55163  1.0000
  Fe  Fe35      1.0  0.71169  0.34416  0.56143  1.0000
  H   H294      1.0  0.81355  0.26583  0.51267  1.0000
  C   C183      1.0  0.87021  0.27354  0.57370  1.0000
  C   C184      1.0  0.79703  0.40397  0.53005  1.0000
  H   H295      1.0  0.81592  0.31725  0.52947  1.0000
  H   H296      1.0  0.75662  0.37437  0.48697  1.0000
  C   C185      1.0  0.72302  0.15999  0.60688  1.0000
  S   S71       1.0  0.72041  0.29755  0.60765  1.0000
  S   S72       1.0  0.71508  0.29898  0.51340  1.0000
  H   H297      1.0  0.94247  0.31543  0.54609  1.0000
  H   H298      1.0  0.76762  0.48517  0.52481  1.0000
  H   H299      1.0  0.67252  0.24993  0.44726  1.0000
  H   H300      1.0  0.70243  0.18713  0.61093  1.0000
  H   H301      1.0  0.88102  0.22215  0.51469  1.0000
  H   H302      1.0  0.89224  0.34722  0.54683  1.0000
  H   H303      1.0  0.74620  0.11744  0.50271  1.0000
  H   H304      1.0  0.75633  0.53350  0.50291  1.0000
  C   C186      1.0  0.90883  0.32093  0.53215  1.0000
  H   H305      1.0  0.84379  0.50930  0.54663  1.0000
  H   H306      1.0  0.73779  0.50883  0.60471  1.0000
  H   H307      1.0  0.91501  0.46424  0.59463  1.0000
  H   H308      1.0  0.81907  0.37367  0.43909  1.0000
  H   H309      1.0  0.93584  0.24256  0.52788  1.0000
  N   N20       1.0  0.87940  0.28444  0.53353  1.0000
  H   H310      1.0  0.85174  0.29852  0.58893  1.0000
  N   N21       1.0  0.67592  0.11247  0.48533  1.0000
  C   C187      1.0  0.75940  0.15997  0.58087  1.0000
  H   H311      1.0  0.90244  0.26710  0.58947  1.0000
  C   C188      1.0  0.71597  0.09737  0.50682  1.0000
  H   H312      1.0  0.91574  0.33052  0.50219  1.0000
  S   S73       1.0  0.88597  0.52911  0.64385  1.0000
  C   C189      1.0  0.68636  0.11171  0.44408  1.0000
  Fe  Fe36      1.0  0.07036  0.44559  0.42067  1.0000
  H   H313      1.0  0.81476  0.12495  0.55641  1.0000
  C   C190      1.0  0.83565  0.29326  0.51410  1.0000
  H   H314      1.0  0.84832  0.24593  0.57573  1.0000
  C   C191      1.0  0.90259  0.25011  0.51407  1.0000
  C   C192      1.0  0.82464  0.38749  0.46673  1.0000
  H   H315      1.0  0.69450  0.17552  0.49157  1.0000
  H   H316      1.0  0.84123  0.30386  0.48434  1.0000
  C   C193      1.0  0.78642  0.12498  0.57632  1.0000
  H   H317      1.0  0.70848  0.09601  0.53789  1.0000
  H   H318      1.0  0.83278  0.55721  0.52375  1.0000
  H   H319      1.0  0.90963  0.25740  0.48362  1.0000
  C   C194      1.0  0.71285  0.12454  0.62746  1.0000
  S   S74       1.0  0.75445  0.40130  0.56524  1.0000
  C   C195      1.0  0.73846  0.08893  0.62141  1.0000
  C   C196      1.0  0.78946  0.38748  0.49391  1.0000
  Fe  Fe37      1.0  0.01289  0.52215  0.42591  1.0000
  C   C197      1.0  0.87416  0.42304  0.51084  1.0000
  S   S75       1.0  0.08302  0.50662  0.44710  1.0000
  C   C198      1.0  0.83913  0.42234  0.53833  1.0000
  S   S76       1.0  0.03955  0.41761  0.47285  1.0000
  H   H320      1.0  0.69544  0.08042  0.43420  1.0000
  Fe  Fe38      1.0  0.97304  0.44014  0.44852  1.0000
  C   C199      1.0  0.86716  0.40476  0.47529  1.0000
  H   H321      1.0  0.79193  0.52802  0.62098  1.0000
  H   H322      1.0  0.98751  0.45214  0.55940  1.0000
  H   H323      1.0  0.71687  0.51284  0.53726  1.0000
  Fe  Fe39      1.0  0.04566  0.48055  0.49701  1.0000
  H   H324      1.0  0.84518  0.43481  0.56640  1.0000
  C   C200      1.0  0.93785  0.52030  0.62006  1.0000
  C   C201      1.0  0.97432  0.54756  0.62387  1.0000
  C   C202      1.0  0.01602  0.53980  0.60531  1.0000
  C   C203      1.0  0.02061  0.50559  0.58180  1.0000
  C   C204      1.0  0.98407  0.47851  0.57777  1.0000
  C   C205      1.0  0.94303  0.48544  0.59752  1.0000
  H   H325      1.0  0.65863  0.15633  0.52874  1.0000
  H   H326      1.0  0.04412  0.56097  0.60817  1.0000
  S   S77       1.0  0.97582  0.50062  0.47802  1.0000
  C   C206      1.0  0.77434  0.51298  0.59666  1.0000
  C   C207      1.0  0.77550  0.08929  0.59611  1.0000
  H   H327      1.0  0.71579  0.13180  0.43708  1.0000
  S   S78       1.0  0.07038  0.49843  0.55485  1.0000
  C   C208      1.0  0.64389  0.23627  0.43256  1.0000
  C   C209      1.0  0.66537  0.15463  0.49751  1.0000
  S   S79       1.0  0.91189  0.39928  0.44237  1.0000
  C   C210      1.0  0.82797  0.53990  0.55069  1.0000
  H   H328      1.0  0.90708  0.43619  0.51763  1.0000
  N   N22       1.0  0.77901  0.53686  0.56118  1.0000
  C   C211      1.0  0.75382  0.51632  0.53014  1.0000
  H   H329      1.0  0.84796  0.55557  0.57326  1.0000
  H   H330      1.0  0.65659  0.12213  0.42687  1.0000
  C   C212      1.0  0.65164  0.20634  0.40460  1.0000
  H   H331      1.0  0.04426  0.56621  0.50586  1.0000
  S   S80       1.0  0.64183  0.24337  0.56274  1.0000
  Fe  Fe40      1.0  0.64363  0.29333  0.60655  1.0000
  H   H332      1.0  0.68434  0.12442  0.64723  1.0000
  H   H333      1.0  0.81602  0.36891  0.88632  1.0000
  H   H334      1.0  0.68594  0.19583  0.73046  1.0000
  C   C213      1.0  0.70737  0.20280  0.87066  1.0000
  H   H335      1.0  0.66956  0.20510  0.87463  1.0000
  S   S81       1.0  0.01061  0.53655  0.87822  1.0000
  C   C214      1.0  0.87524  0.54802  0.83190  1.0000
  H   H336      1.0  0.89937  0.48583  0.76913  1.0000
  H   H337      1.0  0.72318  0.22867  0.88626  1.0000
  H   H338      1.0  0.99714  0.46010  0.78749  1.0000
  H   H339      1.0  0.92845  0.44272  0.74905  1.0000
  H   H340      1.0  0.02737  0.50226  0.71218  1.0000
  H   H341      1.0  0.98720  0.56137  0.73950  1.0000
  C   C215      1.0  0.84600  0.55251  0.80062  1.0000
  C   C216      1.0  0.64685  0.23895  0.69708  1.0000
  H   H342      1.0  0.71271  0.13324  0.83080  1.0000
  C   C217      1.0  0.98948  0.49286  0.78224  1.0000
  C   C218      1.0  0.99501  0.48461  0.71391  1.0000
  C   C219      1.0  0.92226  0.47594  0.74546  1.0000
  H   H343      1.0  0.93628  0.54833  0.71356  1.0000
  N   N23       1.0  0.72526  0.16324  0.88428  1.0000
  S   S82       1.0  0.10626  0.45387  0.86425  1.0000
  H   H344      1.0  0.00418  0.45188  0.71731  1.0000
  C   C220      1.0  0.95543  0.54284  0.74047  1.0000
  C   C221      1.0  0.65463  0.21348  0.72870  1.0000
  S   S83       1.0  0.88623  0.49926  0.85008  1.0000
  N   N24       1.0  0.96560  0.49905  0.74555  1.0000
  H   H345      1.0  0.97730  0.48780  0.68599  1.0000
  H   H346      1.0  0.02239  0.50977  0.78340  1.0000
  H   H347      1.0  0.82835  0.52631  0.78915  1.0000
  H   H348      1.0  0.96816  0.50376  0.80653  1.0000
  Fe  Fe41      1.0  0.04693  0.47984  0.89709  1.0000
  H   H349      1.0  0.71796  0.09963  0.87107  1.0000
  H   H350      1.0  0.79190  0.18753  0.89623  1.0000
  H   H351      1.0  0.66687  0.12979  0.86442  1.0000
  C   C222      1.0  0.70488  0.12989  0.86173  1.0000
  H   H352      1.0  0.67222  0.24108  0.67468  1.0000
  C   C223      1.0  0.77563  0.16232  0.87995  1.0000
  H   H353      1.0  0.93398  0.55496  0.76422  1.0000
  H   H354      1.0  0.11502  0.54009  0.88017  1.0000
  H   H355      1.0  0.71436  0.20717  0.83973  1.0000
  H   H356      1.0  0.11696  0.54397  0.75813  1.0000
  H   H357      1.0  0.90302  0.48046  0.71835  1.0000
  Fe  Fe42      1.0  0.94664  0.50090  0.88933  1.0000
  H   H358      1.0  0.78595  0.16556  0.84957  1.0000
  H   H359      1.0  0.79052  0.13323  0.89075  1.0000
  Fe  Fe43      1.0  0.84640  0.13967  0.98438  1.0000
  S   S84       1.0  0.78385  0.16657  0.01098  1.0000
  Fe  Fe44      1.0  0.98203  0.46527  0.96319  1.0000
  Fe  Fe45      1.0  0.90570  0.21128  0.00748  1.0000
  S   S85       1.0  0.84820  0.24425  0.03696  1.0000
  S   S86       1.0  0.97484  0.23872  0.99661  1.0000
  Fe  Fe46      1.0  0.82968  0.18261  0.05983  1.0000
  H   H360      1.0  0.81163  0.34375  0.98976  1.0000
  Fe  Fe47      1.0  0.80716  0.22568  0.98630  1.0000
  S   S87       1.0  0.76237  0.27015  0.95542  1.0000
  S   S88       1.0  0.89147  0.15087  0.03513  1.0000
  S   S89       1.0  0.86557  0.19742  0.95469  1.0000
  H   H361      1.0  0.72939  0.16841  0.07205  1.0000
  Fe  Fe48      1.0  0.00750  0.55079  0.94077  1.0000
  C   C224      1.0  0.69200  0.23804  0.99725  1.0000
  H   H362      1.0  0.92493  0.36429  0.05972  1.0000
  S   S90       1.0  0.83291  0.08205  0.95164  1.0000
  H   H363      1.0  0.71742  0.22861  0.01777  1.0000
  H   H364      1.0  0.98319  0.54439  0.08461  1.0000
  C   C225      1.0  0.97367  0.29168  0.00320  1.0000
  C   C226      1.0  0.94785  0.30882  0.03278  1.0000
  C   C227      1.0  0.94499  0.35121  0.03676  1.0000
  C   C228      1.0  0.96713  0.37666  0.01071  1.0000
  N   N25       1.0  0.84720  0.36942  0.94178  1.0000
  C   C229      1.0  0.99733  0.31710  0.97796  1.0000
  H   H365      1.0  0.93073  0.28936  0.05305  1.0000
  S   S91       1.0  0.95852  0.42944  0.01396  1.0000
  S   S92       1.0  0.04966  0.49703  0.95897  1.0000
  H   H366      1.0  0.01765  0.30389  0.95523  1.0000
  C   C230      1.0  0.75050  0.16553  0.13059  1.0000
  H   H367      1.0  0.90856  0.40383  0.95029  1.0000
  S   S93       1.0  0.80899  0.17360  0.12125  1.0000
  H   H368      1.0  0.01139  0.37915  0.96156  1.0000
  H   H369      1.0  0.80270  0.08553  0.11648  1.0000
  H   H370      1.0  0.85205  0.30399  0.94040  1.0000
  H   H371      1.0  0.86297  0.37086  0.00157  1.0000
  C   C231      1.0  0.70466  0.26172  0.96588  1.0000
  H   H372      1.0  0.67551  0.15925  0.92948  1.0000
  C   C232      1.0  0.71887  0.16297  0.10084  1.0000
  H   H373      1.0  0.72636  0.12853  0.93623  1.0000
  C   C233      1.0  0.99365  0.35963  0.98143  1.0000
  H   H374      1.0  0.81239  0.39859  0.98864  1.0000
  C   C234      1.0  0.67325  0.15288  0.10827  1.0000
  C   C235      1.0  0.71327  0.15804  0.92490  1.0000
  H   H375      1.0  0.99277  0.54762  0.01485  1.0000
  C   C236      1.0  0.67129  0.27553  0.94045  1.0000
  C   C237      1.0  0.65843  0.14699  0.14574  1.0000
  S   S94       1.0  0.93979  0.52061  0.94994  1.0000
  H   H376      1.0  0.90376  0.32923  0.95355  1.0000
  C   C238      1.0  0.87650  0.40485  0.93333  1.0000
  C   C239      1.0  0.83281  0.37074  0.98219  1.0000
  H   H377      1.0  0.72854  0.18260  0.94250  1.0000
  H   H378      1.0  0.88650  0.40579  0.90271  1.0000
  C   C240      1.0  0.64642  0.22564  0.00158  1.0000
  C   C241      1.0  0.87324  0.33141  0.93466  1.0000
  H   H379      1.0  0.85899  0.43414  0.94019  1.0000
  H   H380      1.0  0.64942  0.14979  0.08487  1.0000
  H   H381      1.0  0.68084  0.29439  0.91649  1.0000
  H   H382      1.0  0.78290  0.34499  0.92301  1.0000
  H   H383      1.0  0.77058  0.09485  0.07388  1.0000
  H   H384      1.0  0.78652  0.39942  0.92126  1.0000
  C   C242      1.0  0.80635  0.37075  0.91697  1.0000
  C   C243      1.0  0.79064  0.07134  0.08946  1.0000
  H   H385      1.0  0.88560  0.32951  0.90472  1.0000
  S   S95       1.0  0.98307  0.44266  0.90286  1.0000
  Fe  Fe49      1.0  0.08058  0.68851  0.23824  1.0000
  S   S96       1.0  0.09823  0.67276  0.17782  1.0000
  H   H386      1.0  0.65515  0.75301  0.22316  1.0000
  C   C244      1.0  0.89259  0.72307  0.17950  1.0000
  C   C245      1.0  0.09284  0.64357  0.32066  1.0000
  C   C246      1.0  0.10757  0.61012  0.34227  1.0000
  C   C247      1.0  0.07755  0.59164  0.36830  1.0000
  C   C248      1.0  0.03326  0.60735  0.37337  1.0000
  C   C249      1.0  0.01962  0.64208  0.35330  1.0000
  C   C250      1.0  0.04925  0.66002  0.32685  1.0000
  S   S97       1.0  0.65444  0.92619  0.23144  1.0000
  H   H387      1.0  0.98559  0.65459  0.35742  1.0000
  H   H388      1.0  0.03813  0.68648  0.31099  1.0000
  S   S98       1.0  0.00683  0.67009  0.23336  1.0000
  H   H389      1.0  0.71035  0.85305  0.20798  1.0000
  S   S99       1.0  0.00527  0.72255  0.15345  1.0000
  Fe  Fe50      1.0  0.02365  0.65960  0.17196  1.0000
  Fe  Fe51      1.0  0.99529  0.73491  0.21573  1.0000
  H   H390      1.0  0.00644  0.85749  0.16432  1.0000
  C   C251      1.0  0.69122  0.92633  0.16004  1.0000
  H   H391      1.0  0.91508  0.69947  0.19025  1.0000
  C   C252      1.0  0.97569  0.84115  0.15364  1.0000
  S   S100      1.0  0.06755  0.75481  0.22643  1.0000
  H   H392      1.0  0.66506  0.80221  0.24340  1.0000
  H   H393      1.0  0.72358  0.93239  0.17389  1.0000
  C   C253      1.0  0.68001  0.77851  0.22426  1.0000
  H   H394      1.0  0.04436  0.58141  0.21441  1.0000
  C   C254      1.0  0.89319  0.76197  0.19579  1.0000
  C   C255      1.0  0.86334  0.79210  0.18237  1.0000
  H   H395      1.0  0.71180  0.76681  0.23795  1.0000
  N   N26       1.0  0.68933  0.79497  0.18585  1.0000
  H   H396      1.0  0.86363  0.82213  0.19512  1.0000
  H   H397      1.0  0.94507  0.85401  0.16839  1.0000
  H   H398      1.0  0.02266  0.58988  0.28260  1.0000
  C   C256      1.0  0.70786  0.76232  0.16108  1.0000
  S   S101      1.0  0.93459  0.77397  0.22986  1.0000
  H   H399      1.0  0.68774  0.96519  0.38032  1.0000
  Fe  Fe52      1.0  0.07840  0.73730  0.16536  1.0000
  H   H400      1.0  0.74018  0.74928  0.17280  1.0000
  H   H401      1.0  0.73014  0.84206  0.16062  1.0000
  C   C257      1.0  0.65099  0.92474  0.18165  1.0000
  H   H402      1.0  0.68302  0.73689  0.15788  1.0000
  C   C258      1.0  0.83463  0.78383  0.15134  1.0000
  H   H403      1.0  0.75618  0.81716  0.20080  1.0000
  C   C259      1.0  0.64636  0.81094  0.16925  1.0000
  C   C260      1.0  0.72306  0.82824  0.18892  1.0000
  S   S102      1.0  0.12665  0.66182  0.28308  1.0000
  H   H404      1.0  0.97902  0.80895  0.16302  1.0000
  H   H405      1.0  0.10343  0.57869  0.26392  1.0000
  C   C261      1.0  0.86324  0.71462  0.14901  1.0000
  C   C262      1.0  0.02524  0.70303  0.63134  1.0000
  N   N27       1.0  0.05889  0.63011  0.50816  1.0000
  C   C263      1.0  0.09110  0.62588  0.54039  1.0000
  S   S103      1.0  0.87137  0.63940  0.60401  1.0000
  H   H406      1.0  0.91885  0.84068  0.56707  1.0000
  S   S104      1.0  0.74999  0.69311  0.61044  1.0000
  C   C264      1.0  0.82883  0.78524  0.57370  1.0000
  H   H407      1.0  0.11673  0.65092  0.54061  1.0000
  H   H408      1.0  0.64606  0.86568  0.47049  1.0000
  C   C265      1.0  0.03338  0.66892  0.51162  1.0000
  N   N28       1.0  0.94952  0.83829  0.62272  1.0000
  H   H409      1.0  0.06386  0.71462  0.58016  1.0000
  S   S105      1.0  0.97224  0.71298  0.60993  1.0000
  H   H410      1.0  0.97993  0.84547  0.56722  1.0000
  H   H411      1.0  0.05700  0.69543  0.51124  1.0000
  C   C266      1.0  0.06539  0.70524  0.60962  1.0000
  C   C267      1.0  0.08476  0.62967  0.47189  1.0000
  H   H412      1.0  0.10420  0.60071  0.46808  1.0000
  H   H413      1.0  0.66797  0.85553  0.62117  1.0000
  H   H414      1.0  0.76336  0.59736  0.54125  1.0000
  C   C268      1.0  0.02620  0.59591  0.50871  1.0000
  H   H415      1.0  0.87782  0.82567  0.62971  1.0000
  Fe  Fe53      1.0  0.81365  0.66784  0.63675  1.0000
  C   C269      1.0  0.99351  0.82567  0.64001  1.0000
  H   H416      1.0  0.07285  0.62639  0.56827  1.0000
  C   C270      1.0  0.73668  0.77388  0.59265  1.0000
  H   H417      1.0  0.01331  0.67029  0.53865  1.0000
  Fe  Fe54      1.0  0.91599  0.67931  0.63996  1.0000
  H   H418      1.0  0.00881  0.67286  0.48762  1.0000
  H   H419      1.0  0.79570  0.06199  0.59174  1.0000
  H   H420      1.0  0.83630  0.72089  0.58234  1.0000
  H   H421      1.0  0.00121  0.59814  0.48485  1.0000
  Fe  Fe55      1.0  0.72591  0.99308  0.60000  1.0000
  S   S106      1.0  0.66595  0.99165  0.56059  1.0000
  C   C271      1.0  0.66129  0.96950  0.43759  1.0000
  Fe  Fe56      1.0  0.76561  0.91493  0.56841  1.0000
  S   S107      1.0  0.70854  0.90642  0.52666  1.0000
  S   S108      1.0  0.82191  0.86813  0.57042  1.0000
  Fe  Fe57      1.0  0.71650  0.97312  0.51600  1.0000
  S   S109      1.0  0.70895  0.99498  0.45589  1.0000
  Fe  Fe58      1.0  0.66311  0.92546  0.57485  1.0000
  H   H422      1.0  0.06158  0.63312  0.44695  1.0000
  S   S110      1.0  0.77775  0.98074  0.55385  1.0000
  S   S111      1.0  0.71931  0.92808  0.61812  1.0000
  H   H423      1.0  0.86425  0.78905  0.56583  1.0000
  H   H424      1.0  0.91469  0.78207  0.63431  1.0000
  H   H425      1.0  0.95428  0.79661  0.57545  1.0000
  H   H426      1.0  0.11016  0.65485  0.47067  1.0000
  C   C272      1.0  0.91172  0.81526  0.64050  1.0000
  H   H427      1.0  0.70118  0.76960  0.60051  1.0000
  C   C273      1.0  0.81285  0.74642  0.58287  1.0000
  C   C274      1.0  0.79943  0.81889  0.57566  1.0000
  C   C275      1.0  0.76706  0.74076  0.59317  1.0000
  C   C276      1.0  0.75991  0.57819  0.56723  1.0000
  H   H428      1.0  0.11052  0.59666  0.53862  1.0000
  C   C277      1.0  0.75301  0.81304  0.58399  1.0000
  H   H429      1.0  0.99997  0.79251  0.63570  1.0000
  H   H430      1.0  0.73014  0.83888  0.58480  1.0000
  C   C278      1.0  0.10761  0.69458  0.62583  1.0000
  H   H431      1.0  0.02290  0.84225  0.62722  1.0000
  C   C279      1.0  0.95074  0.82987  0.58131  1.0000
  H   H432      1.0  0.77782  0.59438  0.59079  1.0000
  H   H433      1.0  0.00641  0.59506  0.53584  1.0000
  H   H434      1.0  0.64314  0.05406  0.48434  1.0000
  H   H435      1.0  0.90897  0.89264  0.61610  1.0000
  S   S112      1.0  0.72205  0.04328  0.64315  1.0000
  H   H436      1.0  0.66436  0.81617  0.45469  1.0000
  H   H437      1.0  0.66049  0.78906  0.52042  1.0000
  H   H438      1.0  0.96976  0.90076  0.61589  1.0000
  C   C280      1.0  0.94200  0.88236  0.62901  1.0000
  C   C281      1.0  0.65974  0.95763  0.39927  1.0000
  H   H439      1.0  0.64367  0.83852  0.53719  1.0000
  H   H440      1.0  0.13852  0.69555  0.60880  1.0000
  H   H441      1.0  0.72292  0.57714  0.57486  1.0000
  S   S113      1.0  0.99367  0.58382  0.40373  1.0000
  H   H442      1.0  0.72618  0.06619  0.49771  1.0000
  H   H443      1.0  0.97069  0.57449  0.64125  1.0000
  C   C282      1.0  0.07000  0.68290  0.68639  1.0000
  Fe  Fe59      1.0  0.86222  0.66119  0.71209  1.0000
  S   S114      1.0  0.85853  0.67195  0.77498  1.0000
  H   H444      1.0  0.07180  0.67473  0.71622  1.0000
  S   S115      1.0  0.92522  0.63326  0.68652  1.0000
  C   C283      1.0  0.86315  0.62475  0.79807  1.0000
  C   C284      1.0  0.89095  0.62058  0.83032  1.0000
  H   H445      1.0  0.91133  0.81905  0.67201  1.0000
  C   C285      1.0  0.84045  0.59070  0.78345  1.0000
  H   H446      1.0  0.90855  0.64685  0.84174  1.0000
  C   C286      1.0  0.89741  0.58214  0.84698  1.0000
  H   H447      1.0  0.81817  0.59379  0.75913  1.0000
  H   H448      1.0  0.71439  0.74290  0.68962  1.0000
  H   H449      1.0  0.99386  0.83141  0.67128  1.0000
  H   H450      1.0  0.70076  0.68903  0.78276  1.0000
  C   C287      1.0  0.71618  0.71933  0.71234  1.0000
  C   C288      1.0  0.69678  0.76747  0.76211  1.0000
  H   H451      1.0  0.99699  0.69222  0.68713  1.0000
  S   S116      1.0  0.81276  0.62023  0.68217  1.0000
  N   N29       1.0  0.73077  0.73683  0.74926  1.0000
  H   H452      1.0  0.74049  0.69544  0.70214  1.0000
  C   C289      1.0  0.02763  0.69244  0.66986  1.0000
  H   H453      1.0  0.66871  0.79997  0.66844  1.0000
  H   H454      1.0  0.68154  0.70545  0.71438  1.0000
  H   H455      1.0  0.75924  0.68009  0.76890  1.0000
  H   H456      1.0  0.66277  0.75337  0.76747  1.0000
  C   C290      1.0  0.77589  0.75645  0.74469  1.0000
  H   H457      1.0  0.65283  0.92930  0.88378  1.0000
  H   H458      1.0  0.78787  0.77017  0.77196  1.0000
  H   H459      1.0  0.74654  0.71602  0.80591  1.0000
  C   C291      1.0  0.68047  0.77225  0.87822  1.0000
  C   C292      1.0  0.73435  0.70406  0.77797  1.0000
  H   H460      1.0  0.70762  0.78260  0.78903  1.0000
  H   H461      1.0  0.70440  0.76065  0.85729  1.0000
  S   S117      1.0  0.85791  0.71138  0.66915  1.0000
  H   H462      1.0  0.69145  0.79159  0.74027  1.0000
  H   H463      1.0  0.13457  0.57281  0.69408  1.0000
  H   H464      1.0  0.77477  0.78087  0.72275  1.0000
  H   H465      1.0  0.94057  0.88986  0.65994  1.0000
  H   H466      1.0  0.80244  0.73393  0.73587  1.0000
  C   C293      1.0  0.10985  0.68334  0.66421  1.0000
  H   H467      1.0  0.91965  0.57898  0.87143  1.0000
  H   H468      1.0  0.66115  0.97101  0.68306  1.0000
  Fe  Fe60      1.0  0.87558  0.59599  0.65304  1.0000
  C   C294      1.0  0.64859  0.90700  0.10360  1.0000
  H   H469      1.0  0.88123  0.62386  0.96613  1.0000
  H   H470      1.0  0.86345  0.60485  0.01196  1.0000
  C   C295      1.0  0.96781  0.88733  0.10051  1.0000
  C   C296      1.0  0.99726  0.57150  0.07165  1.0000
  S   S118      1.0  0.02092  0.61267  0.96517  1.0000
  C   C297      1.0  0.90002  0.66501  0.05379  1.0000
  H   H471      1.0  0.87416  0.64718  0.06997  1.0000
  H   H472      1.0  0.92311  0.60926  0.00067  1.0000
  C   C298      1.0  0.00961  0.60465  0.09437  1.0000
  C   C299      1.0  0.01966  0.60867  0.01498  1.0000
  C   C300      1.0  0.03288  0.64163  0.03775  1.0000
  C   C301      1.0  0.02822  0.63950  0.07751  1.0000
  H   H473      1.0  0.04651  0.66882  0.02465  1.0000
  H   H474      1.0  0.03853  0.66496  0.09499  1.0000
  C   C302      1.0  0.84369  0.68505  0.00707  1.0000
  C   C303      1.0  0.88909  0.62422  0.99718  1.0000
  N   N30       1.0  0.88925  0.66615  0.01262  1.0000
  H   H475      1.0  0.95905  0.67702  0.99603  1.0000
  C   C304      1.0  0.92423  0.69039  0.99242  1.0000
  H   H476      1.0  0.92531  0.72225  0.00322  1.0000
  H   H477      1.0  0.83414  0.68621  0.97637  1.0000
  C   C305      1.0  0.79162  0.00409  0.11695  1.0000
  H   H478      1.0  0.90059  0.69615  0.06641  1.0000
  H   H479      1.0  0.91743  0.69152  0.96121  1.0000
  H   H480      1.0  0.84286  0.71683  0.01815  1.0000
  H   H481      1.0  0.93400  0.65065  0.05911  1.0000
  C   C306      1.0  0.01257  0.82573  0.09365  1.0000
  S   S119      1.0  0.80218  0.73532  0.09369  1.0000
  Fe  Fe61      1.0  0.81688  0.87406  0.03229  1.0000
  S   S120      1.0  0.75561  0.88279  0.99454  1.0000
  S   S121      1.0  0.87082  0.92081  0.04480  1.0000
  Fe  Fe62      1.0  0.78584  0.79155  0.06018  1.0000
  S   S122      1.0  0.72152  0.79290  0.02601  1.0000
  H   H482      1.0  0.81652  0.66806  0.02257  1.0000
  Fe  Fe63      1.0  0.76623  0.81713  0.97935  1.0000
  H   H483      1.0  0.82178  0.99473  0.09942  1.0000
  Fe  Fe64      1.0  0.71593  0.85835  0.04370  1.0000
  H   H484      1.0  0.93110  0.78956  0.10806  1.0000
  S   S123      1.0  0.83177  0.81041  0.01219  1.0000
  S   S124      1.0  0.77611  0.85455  0.08312  1.0000
  H   H485      1.0  0.67805  0.82144  0.96343  1.0000
  C   C307      1.0  0.69688  0.79059  0.91153  1.0000
  H   H486      1.0  0.82149  0.06433  0.07202  1.0000
  C   C308      1.0  0.72305  0.04545  0.12069  1.0000
  S   S125      1.0  0.99961  0.60277  0.14349  1.0000
  C   C309      1.0  0.82954  0.99989  0.96316  1.0000
  S   S126      1.0  0.75589  0.79430  0.91972  1.0000
  H   H487      1.0  0.86323  0.68453  0.13640  1.0000
  N   N31       1.0  0.97156  0.84407  0.11172  1.0000
  H   H488      1.0  0.77673  0.00856  0.04160  1.0000
  C   C310      1.0  0.84622  0.03715  0.97654  1.0000
  H   H489      1.0  0.72604  0.03950  0.04414  1.0000
  C   C311      1.0  0.87252  0.03812  0.00983  1.0000
  H   H490      1.0  0.92638  0.82308  0.06752  1.0000
  C   C312      1.0  0.83804  0.96393  0.98354  1.0000
  C   C313      1.0  0.86316  0.96506  0.01742  1.0000
  C   C314      1.0  0.88109  0.00212  0.03021  1.0000
  H   H491      1.0  0.82588  0.93528  0.97255  1.0000
  H   H492      1.0  0.90123  0.00313  0.05606  1.0000
  C   C315      1.0  0.66590  0.80540  0.93869  1.0000
  H   H493      1.0  0.72097  0.91838  0.10438  1.0000
  H   H494      1.0  0.80993  0.99881  0.93704  1.0000
  S   S127      1.0  0.11649  0.77541  0.12333  1.0000
  C   C316      1.0  0.74729  0.01719  0.06023  1.0000
  N   N32       1.0  0.76311  0.03451  0.09683  1.0000
  H   H495      1.0  0.01622  0.79292  0.10101  1.0000
  H   H496      1.0  0.93705  0.90210  0.11344  1.0000
  H   H497      1.0  0.01119  0.82798  0.06204  1.0000
  C   C317      1.0  0.93015  0.82209  0.09908  1.0000
  H   H498      1.0  0.89856  0.83596  0.11141  1.0000
  H   H499      1.0  0.72631  0.98935  0.06473  1.0000
  C   C318      1.0  0.68993  0.91759  0.12096  1.0000
  H   H500      1.0  0.04462  0.84090  0.10328  1.0000
  H   H501      1.0  0.96436  0.89064  0.06902  1.0000
  H   H502      1.0  0.88656  0.06651  0.01978  1.0000
  S   S128      1.0  0.64827  0.88777  0.05703  1.0000
  H   H503      1.0  0.80469  0.01641  0.14444  1.0000
  C   C319      1.0  0.83517  0.74531  0.13424  1.0000
  H   H504      1.0  0.71579  0.77385  0.13198  1.0000
  H   H505      1.0  0.99844  0.90493  0.10953  1.0000
  H   H506      1.0  0.70182  0.01830  0.12754  1.0000
  H   H507      1.0  0.81234  0.80732  0.14068  1.0000
  H   H508      1.0  0.77185  0.97607  0.12341  1.0000
  C   C320      1.0  0.00267  0.57337  0.03206  1.0000
  H   H509      1.0  0.64180  0.88997  0.94268  1.0000
  H   H510      1.0  0.70044  0.06792  0.10612  1.0000
  H   H511      1.0  0.65197  0.82335  0.14009  1.0000
  H   H512      1.0  0.73370  0.05958  0.14818  1.0000
