data_image0
_chemical_formula_structural       HC2SHFeSH2FeSCSC6H3CH2C2SHFeHCHSFeSHSHNH3FeH3CHC3HCH3SHC2SH2NH2CSFeSFe2HS2H2C2H2CH2CH2S2HNH2S2CHCHC2HCSC4HC2HCHFeSFeSH2S2FeC3H3FeHCSHCSHNHCHSH3CH2CH2CH3CH3NCSH2CH3CH2NCHNSH2FeS2C6H4CFeCH3SHCSHFeSHFeH2CHSH2CH2C2H5C7H3CHNCHCH2FeH3C2SHSH5SFeSFeSFeSHC6HNH2CH7CH2C3H2NC4H10CH3CHCSC6H6CNHNHSH8C2HC2H2C2H4CFeS2FeSHFe2S2H2C2H2C6H4NHSH2CH2C2H2CH4CHSNHCHC2H2SH4CH3CH3C6SH3C3H2CH2NH4CH3CH2CH2SCH2CFeSFeSFeHFeSHSHCHC6H5NC2NCH9CHCH2SCH4CHC2H2SH4CFeS2CH2FeS2C6H4FeNFeCHSH2CSHC2H2C2H6C3HC2HNHSHCH9C2HC4H3NCH5CHFeH2SH2S2CSFeS2HC6H4NH3FeC2HCH2FeH2CSCS2Fe2SCHSHC2SFeH5SH2FeSHFeS3H2C4SHC6H7SH3FeHNC5H2FeH2FeCSHCH5SH3FeH3S2FeC2SCSH3CSCHSHSCHC6H4C3HSCH3SHSFeH2CFeHNCHC2H5CNC2H4
_chemical_formula_sum              "H384 C240 S96 Fe48 N24"
_cell_length_a       33.9116
_cell_length_b       34.149
_cell_length_c       44.1241
_cell_angle_alpha    90.0654
_cell_angle_beta     89.9455
_cell_angle_gamma    119.674

_space_group_name_H-M_alt    "P 1"
_space_group_IT_number       1

loop_
  _space_group_symop_operation_xyz
  'x, y, z'

loop_
  _atom_site_type_symbol
  _atom_site_label
  _atom_site_symmetry_multiplicity
  _atom_site_fract_x
  _atom_site_fract_y
  _atom_site_fract_z
  _atom_site_occupancy
  H   H1        1.0  0.51115  0.04221  0.20664  1.0000
  C   C1        1.0  0.35523  0.08634  0.10701  1.0000
  C   C2        1.0  0.33427  0.14196  0.09320  1.0000
  S   S1        1.0  0.44742  0.20448  0.02455  1.0000
  H   H2        1.0  0.32365  0.34699  0.21139  1.0000
  Fe  Fe1       1.0  0.38702  0.09184  0.19535  1.0000
  S   S2        1.0  0.46278  0.13813  0.19293  1.0000
  H   H3        1.0  0.19127  0.24289  0.04667  1.0000
  H   H4        1.0  0.08345  0.22199  0.11475  1.0000
  Fe  Fe2       1.0  0.44675  0.19413  0.19212  1.0000
  S   S3        1.0  0.48365  0.25557  0.16304  1.0000
  C   C3        1.0  0.29899  0.45965  0.24741  1.0000
  S   S4        1.0  0.37139  0.14840  0.18968  1.0000
  C   C4        1.0  0.45876  0.22024  0.06269  1.0000
  C   C5        1.0  0.46057  0.25960  0.07349  1.0000
  C   C6        1.0  0.46897  0.27081  0.10434  1.0000
  C   C7        1.0  0.47385  0.24184  0.12450  1.0000
  C   C8        1.0  0.47132  0.20215  0.11374  1.0000
  C   C9        1.0  0.46479  0.19190  0.08277  1.0000
  H   H5        1.0  0.45590  0.28156  0.05807  1.0000
  H   H6        1.0  0.27737  0.01883  0.16592  1.0000
  H   H7        1.0  0.24226  0.25855  0.23215  1.0000
  C   C10       1.0  0.06209  0.23666  0.12220  1.0000
  H   H8        1.0  0.29965  0.27948  0.24477  1.0000
  H   H9        1.0  0.38014  0.12197  0.05166  1.0000
  C   C11       1.0  0.26091  0.28399  0.03212  1.0000
  C   C12       1.0  0.22077  0.27622  0.04709  1.0000
  S   S5        1.0  0.16717  0.30042  0.08069  1.0000
  H   H10       1.0  0.06694  0.28137  0.07108  1.0000
  Fe  Fe3       1.0  0.37573  0.15460  0.24077  1.0000
  H   H11       1.0  0.25811  0.06913  0.07294  1.0000
  C   C13       1.0  0.34344  0.09710  0.05445  1.0000
  H   H12       1.0  0.35168  0.05276  0.10205  1.0000
  S   S6        1.0  0.45042  0.20321  0.24253  1.0000
  Fe  Fe4       1.0  0.09880  0.36372  0.15378  1.0000
  S   S7        1.0  0.38494  0.09373  0.24633  1.0000
  H   H13       1.0  0.34441  0.08572  0.13091  1.0000
  S   S8        1.0  0.36815  0.02758  0.16874  1.0000
  H   H14       1.0  0.31435  0.15122  0.07765  1.0000
  N   N1        1.0  0.27570  0.32720  0.24807  1.0000
  H   H15       1.0  0.47086  0.30152  0.11265  1.0000
  H   H16       1.0  0.49852  0.50078  0.00855  1.0000
  H   H17       1.0  0.39191  0.11161  0.10571  1.0000
  Fe  Fe5       1.0  0.45987  0.14253  0.24329  1.0000
  H   H18       1.0  0.37048  0.16873  0.09108  1.0000
  H   H19       1.0  0.26203  0.25679  0.02030  1.0000
  H   H20       1.0  0.27399  0.02808  0.08383  1.0000
  C   C14       1.0  0.43316  0.02605  0.23376  1.0000
  H   H21       1.0  0.32348  0.14329  0.11684  1.0000
  C   C15       1.0  0.27968  0.06254  0.08878  1.0000
  C   C16       1.0  0.29922  0.32710  0.03217  1.0000
  C   C17       1.0  0.26782  0.28057  0.24921  1.0000
  H   H22       1.0  0.04171  0.25875  0.19595  1.0000
  C   C18       1.0  0.21855  0.31129  0.06242  1.0000
  H   H23       1.0  0.46385  0.16168  0.07435  1.0000
  H   H24       1.0  0.50992  0.43444  0.00525  1.0000
  H   H25       1.0  0.08505  0.27361  0.12387  1.0000
  S   S9        1.0  0.15217  0.34339  0.15954  1.0000
  H   H26       1.0  0.47524  0.17975  0.12916  1.0000
  C   C19       1.0  0.22312  0.44900  0.24310  1.0000
  C   C20       1.0  0.29694  0.36204  0.04755  1.0000
  S   S10       1.0  0.10583  0.36956  0.10294  1.0000
  H   H27       1.0  0.26577  0.32572  0.19981  1.0000
  H   H28       1.0  0.32921  0.46272  0.23686  1.0000
  N   N2        1.0  0.32814  0.09701  0.08584  1.0000
  H   H29       1.0  0.32471  0.10638  0.03786  1.0000
  H   H30       1.0  0.25596  0.38157  0.07423  1.0000
  C   C21       1.0  0.25702  0.35422  0.06266  1.0000
  S   S11       1.0  0.02691  0.33139  0.17286  1.0000
  Fe  Fe6       1.0  0.20101  0.41774  0.16263  1.0000
  S   S12       1.0  0.26549  0.44794  0.19006  1.0000
  Fe  Fe7       1.0  0.15763  0.44233  0.11107  1.0000
  Fe  Fe8       1.0  0.16257  0.35390  0.10907  1.0000
  H   H31       1.0  0.51224  0.03041  0.24610  1.0000
  S   S13       1.0  0.14724  0.43800  0.16152  1.0000
  S   S14       1.0  0.21477  0.42670  0.11271  1.0000
  H   H32       1.0  0.32626  0.39550  0.04773  1.0000
  H   H33       1.0  0.19440  0.44343  0.22933  1.0000
  C   C22       1.0  0.26185  0.45225  0.22946  1.0000
  C   C23       1.0  0.04421  0.24416  0.07041  1.0000
  H   H34       1.0  0.33854  0.06349  0.04792  1.0000
  H   H35       1.0  0.26698  0.06167  0.11220  1.0000
  C   C24       1.0  0.29130  0.34606  0.21742  1.0000
  H   H36       1.0  0.44621  0.05440  0.21740  1.0000
  H   H37       1.0  0.06539  0.22979  0.06197  1.0000
  C   C25       1.0  0.49682  0.01482  0.22386  1.0000
  H   H38       1.0  0.29712  0.38109  0.21567  1.0000
  H   H39       1.0  0.20585  0.30654  0.23861  1.0000
  S   S15       1.0  0.16917  0.50044  0.07983  1.0000
  S   S16       1.0  0.35052  0.33982  0.01305  1.0000
  H   H40       1.0  0.04903  0.22393  0.14535  1.0000
  N   N3        1.0  0.02484  0.22610  0.10064  1.0000
  H   H41       1.0  0.27318  0.19221  0.30625  1.0000
  H   H42       1.0  0.29136  0.26434  0.33174  1.0000
  S   S17       1.0  0.50975  0.13695  0.27483  1.0000
  S   S18       1.0  0.37478  0.35274  0.33198  1.0000
  C   C26       1.0  0.11680  0.28068  0.46491  1.0000
  H   H43       1.0  0.29967  0.34197  0.29398  1.0000
  C   C27       1.0  0.38175  0.25634  0.28185  1.0000
  H   H44       1.0  0.42529  0.32627  0.29338  1.0000
  C   C28       1.0  0.39197  0.29712  0.29627  1.0000
  C   C29       1.0  0.44059  0.36393  0.39895  1.0000
  H   H45       1.0  0.10562  0.24676  0.45705  1.0000
  C   C30       1.0  0.15868  0.31621  0.45481  1.0000
  S   S19       1.0  0.19267  0.30436  0.42980  1.0000
  C   C31       1.0  0.33897  0.21817  0.28542  1.0000
  C   C32       1.0  0.30635  0.22158  0.30328  1.0000
  C   C33       1.0  0.35960  0.30037  0.31438  1.0000
  C   C34       1.0  0.31658  0.26245  0.31774  1.0000
  H   H46       1.0  0.15730  0.40150  0.49421  1.0000
  C   C35       1.0  0.08936  0.28861  0.48528  1.0000
  C   C36       1.0  0.45731  0.44006  0.38880  1.0000
  H   H47       1.0  0.19243  0.45252  0.28517  1.0000
  C   C37       1.0  0.14567  0.36773  0.48592  1.0000
  H   H48       1.0  0.41619  0.40398  0.44181  1.0000
  Fe  Fe9       1.0  0.28511  0.43062  0.35817  1.0000
  S   S20       1.0  0.25796  0.46843  0.33190  1.0000
  Fe  Fe10      1.0  0.35051  0.44191  0.40863  1.0000
  S   S21       1.0  0.25716  0.35602  0.35413  1.0000
  H   H49       1.0  0.44960  0.35992  0.37529  1.0000
  H   H50       1.0  0.32602  0.46881  0.29274  1.0000
  S   S22       1.0  0.35765  0.44700  0.35821  1.0000
  S   S23       1.0  0.27968  0.43158  0.40877  1.0000
  Fe  Fe11      1.0  0.32968  0.37180  0.35920  1.0000
  C   C38       1.0  0.25897  0.46088  0.29262  1.0000
  C   C39       1.0  0.29723  0.46307  0.27900  1.0000
  C   C40       1.0  0.22204  0.45413  0.27465  1.0000
  H   H51       1.0  0.40706  0.25443  0.26802  1.0000
  H   H52       1.0  0.34320  0.35534  0.26634  1.0000
  H   H53       1.0  0.45987  0.39426  0.45662  1.0000
  Fe  Fe12      1.0  0.25546  0.35777  0.40534  1.0000
  H   H54       1.0  0.31801  0.39058  0.27032  1.0000
  C   C41       1.0  0.45306  0.41516  0.44044  1.0000
  S   S24       1.0  0.32484  0.16600  0.26780  1.0000
  H   H55       1.0  0.20502  0.38746  0.45794  1.0000
  C   C42       1.0  0.17282  0.35988  0.46529  1.0000
  S   S25       1.0  0.32604  0.36745  0.41006  1.0000
  H   H56       1.0  0.47666  0.47619  0.39561  1.0000
  N   N4        1.0  0.46666  0.41135  0.40919  1.0000
  H   H57       1.0  0.44665  0.34110  0.41376  1.0000
  C   C43       1.0  0.31067  0.35507  0.27060  1.0000
  H   H58       1.0  0.40343  0.35152  0.39898  1.0000
  S   S26       1.0  0.40576  0.48897  0.44115  1.0000
  H   H59       1.0  0.42083  0.43001  0.38939  1.0000
  H   H60       1.0  0.05741  0.26090  0.49298  1.0000
  H   H61       1.0  0.46581  0.43714  0.36482  1.0000
  C   C44       1.0  0.10385  0.33219  0.49608  1.0000
  H   H62       1.0  0.25532  0.26510  0.27191  1.0000
  H   H63       1.0  0.47143  0.45072  0.44862  1.0000
  C   C45       1.0  0.51570  0.42642  0.40849  1.0000
  H   H64       1.0  0.22038  0.31334  0.27824  1.0000
  H   H65       1.0  0.27294  0.51135  0.39776  1.0000
  C   C46       1.0  0.23305  0.32716  0.25519  1.0000
  H   H66       1.0  0.23791  0.36190  0.25460  1.0000
  H   H67       1.0  0.02459  0.26953  0.31260  1.0000
  H   H68       1.0  0.44653  0.04073  0.25655  1.0000
  C   C47       1.0  0.05865  0.41261  0.58996  1.0000
  H   H69       1.0  0.06390  0.38609  0.57906  1.0000
  H   H70       1.0  0.08120  0.49911  0.60022  1.0000
  H   H71       1.0  0.08486  0.42872  0.60791  1.0000
  N   N5        1.0  0.06123  0.44584  0.56747  1.0000
  C   C48       1.0  0.05447  0.48051  0.58293  1.0000
  S   S27       1.0  0.07177  0.34401  0.52277  1.0000
  H   H72       1.0  0.13404  0.48478  0.56931  1.0000
  H   H73       1.0  0.11202  0.44153  0.54083  1.0000
  C   C49       1.0  0.10617  0.46720  0.55258  1.0000
  H   H74       1.0  0.10914  0.49218  0.53528  1.0000
  H   H75       1.0  0.03086  0.39798  0.53127  1.0000
  H   H76       1.0  0.05482  0.50551  0.56660  1.0000
  C   C50       1.0  0.02548  0.42278  0.54438  1.0000
  H   H77       1.0  0.02487  0.39537  0.60138  1.0000
  H   H78       1.0  0.02461  0.44697  0.52792  1.0000
  N   N6        1.0  0.48769  0.46053  0.96868  1.0000
  C   C51       1.0  0.49433  0.46703  0.93556  1.0000
  H   H79       1.0  0.40566  0.20495  0.81516  1.0000
  N   N7        1.0  0.44929  0.24594  0.85125  1.0000
  S   S28       1.0  0.37628  0.29267  0.93796  1.0000
  H   H80       1.0  0.41738  0.44334  0.96663  1.0000
  H   H81       1.0  0.50264  0.28487  0.81948  1.0000
  Fe  Fe13      1.0  0.36038  0.22057  0.94301  1.0000
  S   S29       1.0  0.31215  0.16432  0.91132  1.0000
  S   S30       1.0  0.43353  0.23963  0.94574  1.0000
  C   C52       1.0  0.34561  0.06028  0.86956  1.0000
  C   C53       1.0  0.37568  0.09287  0.89011  1.0000
  C   C54       1.0  0.36557  0.12443  0.90328  1.0000
  C   C55       1.0  0.32540  0.12419  0.89577  1.0000
  C   C56       1.0  0.29531  0.09168  0.87513  1.0000
  C   C57       1.0  0.30526  0.05975  0.86211  1.0000
  H   H82       1.0  0.40688  0.09341  0.89614  1.0000
  H   H83       1.0  0.38875  0.14869  0.91941  1.0000
  H   H84       1.0  0.26414  0.09123  0.86914  1.0000
  H   H85       1.0  0.28185  0.03497  0.84625  1.0000
  C   C58       1.0  0.47466  0.28608  0.83186  1.0000
  Fe  Fe14      1.0  0.42427  0.24352  0.99574  1.0000
  C   C59       1.0  0.48050  0.24398  0.87379  1.0000
  H   H86       1.0  0.45208  0.28897  0.81481  1.0000
  H   H87       1.0  0.45601  0.20064  0.82044  1.0000
  H   H88       1.0  0.49019  0.31765  0.84566  1.0000
  S   S31       1.0  0.36014  0.02073  0.85475  1.0000
  H   H89       1.0  0.40952  0.17386  0.84658  1.0000
  C   C60       1.0  0.42935  0.20463  0.83247  1.0000
  S   S32       1.0  0.34978  0.22038  0.99349  1.0000
  H   H90       1.0  0.39355  0.22004  0.88244  1.0000
  Fe  Fe15      1.0  0.37233  0.29429  0.98887  1.0000
  S   S33       1.0  0.49744  0.36194  0.90911  1.0000
  H   H91       1.0  0.49546  0.27430  0.88877  1.0000
  Fe  Fe16      1.0  0.44950  0.31174  0.94426  1.0000
  H   H92       1.0  0.47578  0.48344  0.92603  1.0000
  H   H93       1.0  0.46263  0.21371  0.88855  1.0000
  C   C61       1.0  0.41257  0.24915  0.86707  1.0000
  H   H94       1.0  0.42612  0.28027  0.88108  1.0000
  S   S34       1.0  0.44695  0.31752  0.99489  1.0000
  H   H95       1.0  0.38755  0.24946  0.85092  1.0000
  H   H96       1.0  0.48171  0.43425  0.92361  1.0000
  C   C62       1.0  0.51462  0.44061  0.98040  1.0000
  H   H97       1.0  0.50911  0.24235  0.86266  1.0000
  H   H98       1.0  0.42673  0.39610  0.96479  1.0000
  C   C63       1.0  0.43912  0.42989  0.97530  1.0000
  C   C64       1.0  0.50280  0.50453  0.98351  1.0000
  H   H99       1.0  0.43279  0.42424  0.00012  1.0000
  H   H100      1.0  0.50436  0.40767  0.96936  1.0000
  H   H101      1.0  0.30916  0.62979  0.10472  1.0000
  H   H102      1.0  0.20946  0.52959  0.13786  1.0000
  H   H103      1.0  0.39010  0.95793  0.19446  1.0000
  C   C65       1.0  0.42788  0.97439  0.19458  1.0000
  C   C66       1.0  0.15825  0.54558  0.08650  1.0000
  C   C67       1.0  0.17143  0.57953  0.06442  1.0000
  C   C68       1.0  0.16531  0.61704  0.06919  1.0000
  C   C69       1.0  0.14565  0.62088  0.09610  1.0000
  C   C70       1.0  0.13226  0.58681  0.11811  1.0000
  C   C71       1.0  0.13865  0.54944  0.11344  1.0000
  H   H104      1.0  0.18676  0.57698  0.04353  1.0000
  H   H105      1.0  0.17589  0.64298  0.05206  1.0000
  H   H106      1.0  0.11686  0.58939  0.13896  1.0000
  C   C72       1.0  0.31934  0.59782  0.15786  1.0000
  H   H107      1.0  0.44026  0.00159  0.17719  1.0000
  N   N8        1.0  0.28134  0.57449  0.13632  1.0000
  C   C73       1.0  0.28981  0.54429  0.11672  1.0000
  H   H108      1.0  0.09030  0.63157  0.03878  1.0000
  C   C74       1.0  0.27724  0.60796  0.11732  1.0000
  H   H109      1.0  0.26174  0.52628  0.10009  1.0000
  H   H110      1.0  0.35213  0.61818  0.14577  1.0000
  Fe  Fe17      1.0  0.15759  0.72891  0.07310  1.0000
  H   H111      1.0  0.05434  0.65942  0.07462  1.0000
  H   H112      1.0  0.07116  0.65070  0.00698  1.0000
  H   H113      1.0  0.32289  0.57318  0.17257  1.0000
  C   C75       1.0  0.02652  0.65009  0.05786  1.0000
  C   C76       1.0  0.23880  0.54761  0.15344  1.0000
  S   S35       1.0  0.13649  0.66702  0.10314  1.0000
  H   H114      1.0  0.03459  0.57958  0.07615  1.0000
  S   S36       1.0  0.16006  0.72658  0.02255  1.0000
  H   H115      1.0  0.29258  0.51823  0.13030  1.0000
  H   H116      1.0  0.23099  0.56915  0.16839  1.0000
  H   H117      1.0  0.24988  0.59112  0.10012  1.0000
  H   H118      1.0  0.32169  0.56328  0.10347  1.0000
  H   H119      1.0  0.24061  0.52179  0.16789  1.0000
  S   S37       1.0  0.11206  0.75973  0.07329  1.0000
  Fe  Fe18      1.0  0.21970  0.79618  0.02573  1.0000
  S   S38       1.0  0.17821  0.83044  0.02146  1.0000
  Fe  Fe19      1.0  0.17685  0.82724  0.07260  1.0000
  S   S39       1.0  0.18603  0.88786  0.10035  1.0000
  Fe  Fe20      1.0  0.11740  0.76047  0.02241  1.0000
  S   S40       1.0  0.22172  0.79639  0.07670  1.0000
  H   H120      1.0  0.27604  0.89623  0.10421  1.0000
  C   C77       1.0  0.23674  0.92615  0.11954  1.0000
  C   C78       1.0  0.23765  0.96118  0.13695  1.0000
  C   C79       1.0  0.27737  0.99240  0.15239  1.0000
  C   C80       1.0  0.31667  0.98885  0.15051  1.0000
  C   C81       1.0  0.31584  0.95401  0.13300  1.0000
  C   C82       1.0  0.27617  0.92285  0.11760  1.0000
  H   H121      1.0  0.20724  0.96387  0.13869  1.0000
  N   N9        1.0  0.44673  0.99271  0.22486  1.0000
  H   H122      1.0  0.34607  0.95106  0.13121  1.0000
  H   H123      1.0  0.03580  0.68014  0.04345  1.0000
  C   C83       1.0  0.06144  0.62201  0.02285  1.0000
  H   H124      1.0  0.31400  0.62092  0.17296  1.0000
  H   H125      1.0  0.43733  0.94908  0.18695  1.0000
  H   H126      1.0  0.26869  0.63009  0.13109  1.0000
  H   H127      1.0  0.43837  0.92981  0.24128  1.0000
  H   H128      1.0  0.50851  0.99053  0.21795  1.0000
  H   H129      1.0  0.05762  0.59298  0.00915  1.0000
  H   H130      1.0  0.12816  0.52356  0.13059  1.0000
  C   C84       1.0  0.42892  0.95575  0.24728  1.0000
  H   H131      1.0  0.39553  0.01080  0.23427  1.0000
  H   H132      1.0  0.39118  0.93866  0.24863  1.0000
  C   C85       1.0  0.48327  0.56757  0.45570  1.0000
  C   C86       1.0  0.45348  0.54195  0.43232  1.0000
  C   C87       1.0  0.46216  0.55914  0.40281  1.0000
  H   H133      1.0  0.47689  0.55456  0.47861  1.0000
  H   H134      1.0  0.43988  0.53952  0.38454  1.0000
  N   N10       1.0  0.33792  0.57210  0.39704  1.0000
  C   C88       1.0  0.35364  0.56155  0.42556  1.0000
  C   C89       1.0  0.35443  0.55709  0.37096  1.0000
  C   C90       1.0  0.35596  0.62126  0.39503  1.0000
  C   C91       1.0  0.28773  0.54855  0.39650  1.0000
  H   H135      1.0  0.34129  0.57174  0.44581  1.0000
  H   H136      1.0  0.39138  0.57905  0.42681  1.0000
  H   H137      1.0  0.27477  0.55529  0.37507  1.0000
  H   H138      1.0  0.34411  0.63374  0.41437  1.0000
  H   H139      1.0  0.34238  0.56353  0.34903  1.0000
  H   H140      1.0  0.34490  0.63041  0.37372  1.0000
  H   H141      1.0  0.39379  0.63997  0.39540  1.0000
  H   H142      1.0  0.39215  0.57433  0.37035  1.0000
  H   H143      1.0  0.34157  0.52023  0.37198  1.0000
  H   H144      1.0  0.34145  0.52485  0.42770  1.0000
  C   C92       1.0  0.49998  0.60188  0.39693  1.0000
  H   H145      1.0  0.27378  0.55885  0.41583  1.0000
  H   H146      1.0  0.50643  0.61501  0.37407  1.0000
  H   H147      1.0  0.44246  0.96863  0.27036  1.0000
  C   C93       1.0  0.52126  0.61016  0.44979  1.0000
  H   H148      1.0  0.03402  0.77181  0.64480  1.0000
  C   C94       1.0  0.48665  0.91989  0.73603  1.0000
  S   S41       1.0  0.06791  0.71564  0.66626  1.0000
  C   C95       1.0  0.15196  0.83327  0.73172  1.0000
  C   C96       1.0  0.10702  0.82179  0.72462  1.0000
  C   C97       1.0  0.08001  0.78478  0.70561  1.0000
  C   C98       1.0  0.09813  0.75949  0.69294  1.0000
  C   C99       1.0  0.14297  0.77096  0.70011  1.0000
  C   C100      1.0  0.16964  0.80737  0.71956  1.0000
  H   H149      1.0  0.04538  0.77252  0.57651  1.0000
  H   H150      1.0  0.04548  0.77624  0.70053  1.0000
  H   H151      1.0  0.15742  0.75178  0.69035  1.0000
  H   H152      1.0  0.03948  0.84192  0.57951  1.0000
  H   H153      1.0  0.48316  0.93131  0.71385  1.0000
  H   H154      1.0  0.11893  0.81770  0.64401  1.0000
  C   C101      1.0  0.47983  0.75928  0.67542  1.0000
  N   N11       1.0  0.07372  0.82225  0.61189  1.0000
  H   H155      1.0  0.49554  0.83820  0.65156  1.0000
  N   N12       1.0  0.49337  0.80179  0.69190  1.0000
  H   H156      1.0  0.11354  0.86707  0.64793  1.0000
  S   S42       1.0  0.40205  0.90931  0.74698  1.0000
  H   H157      1.0  0.42918  0.79935  0.68568  1.0000
  H   H158      1.0  0.10040  0.87523  0.57865  1.0000
  H   H159      1.0  0.43335  0.77274  0.71978  1.0000
  H   H160      1.0  0.20419  0.81588  0.72467  1.0000
  H   H161      1.0  0.46207  0.72955  0.69063  1.0000
  H   H162      1.0  0.14616  0.86269  0.61724  1.0000
  H   H163      1.0  0.06899  0.88260  0.60885  1.0000
  H   H164      1.0  0.03040  0.82230  0.64756  1.0000
  C   C102      1.0  0.07059  0.85711  0.59392  1.0000
  C   C103      1.0  0.03310  0.79880  0.63133  1.0000
  H   H165      1.0  0.10634  0.80567  0.57625  1.0000
  C   C104      1.0  0.11489  0.84348  0.63106  1.0000
  C   C105      1.0  0.45260  0.80156  0.70409  1.0000
  H   H166      1.0  0.09303  0.84163  0.73396  1.0000
  H   H167      1.0  0.45675  0.75480  0.65621  1.0000
  C   C106      1.0  0.07604  0.78931  0.59125  1.0000
  C   C107      1.0  0.51745  0.84023  0.67093  1.0000
  H   H168      1.0  0.46180  0.83282  0.71717  1.0000
  H   H169      1.0  0.50658  0.77845  0.73396  1.0000
  H   H170      1.0  0.07817  0.76236  0.60420  1.0000
  H   H171      1.0  0.51002  0.75869  0.66587  1.0000
  C   C108      1.0  0.52383  0.80611  0.71717  1.0000
  Fe  Fe21      1.0  0.27871  0.85471  0.82933  1.0000
  S   S43       1.0  0.25091  0.90202  0.82905  1.0000
  S   S44       1.0  0.23893  0.79257  0.85772  1.0000
  Fe  Fe22      1.0  0.34699  0.90496  0.77911  1.0000
  S   S45       1.0  0.32216  0.95516  0.77405  1.0000
  H   H172      1.0  0.18370  0.80503  0.80619  1.0000
  Fe  Fe23      1.0  0.32329  0.95752  0.82513  1.0000
  Fe  Fe24      1.0  0.25138  0.89502  0.77827  1.0000
  S   S46       1.0  0.35146  0.91002  0.82993  1.0000
  S   S47       1.0  0.27605  0.84517  0.77894  1.0000
  H   H173      1.0  0.09732  0.80550  0.78965  1.0000
  H   H174      1.0  0.10086  0.77311  0.86982  1.0000
  C   C109      1.0  0.45713  0.89388  0.78633  1.0000
  C   C110      1.0  0.12803  0.77474  0.85480  1.0000
  H   H175      1.0  0.43071  0.88462  0.80313  1.0000
  H   H176      1.0  0.32647  0.94478  0.89100  1.0000
  C   C111      1.0  0.25175  0.79852  0.89652  1.0000
  C   C112      1.0  0.21630  0.78226  0.91765  1.0000
  C   C113      1.0  0.22577  0.78860  0.94875  1.0000
  C   C114      1.0  0.27072  0.81033  0.95886  1.0000
  C   C115      1.0  0.30620  0.82554  0.93777  1.0000
  C   C116      1.0  0.29675  0.81993  0.90657  1.0000
  H   H177      1.0  0.18143  0.76532  0.91006  1.0000
  H   H178      1.0  0.19821  0.77688  0.96486  1.0000
  H   H179      1.0  0.34101  0.84219  0.94556  1.0000
  H   H180      1.0  0.32422  0.83213  0.89030  1.0000
  N   N13       1.0  0.28571  0.94160  0.92930  1.0000
  H   H181      1.0  0.32927  0.91335  0.92241  1.0000
  S   S48       1.0  0.28298  0.82089  0.99761  1.0000
  H   H182      1.0  0.28308  0.90218  0.96814  1.0000
  H   H183      1.0  0.13499  0.74743  0.86188  1.0000
  C   C117      1.0  0.26043  0.90989  0.95411  1.0000
  H   H184      1.0  0.06235  0.72255  0.79332  1.0000
  H   H185      1.0  0.27234  0.97351  0.89189  1.0000
  C   C118      1.0  0.07305  0.72691  0.81753  1.0000
  C   C119      1.0  0.15196  0.77211  0.80366  1.0000
  H   H186      1.0  0.15960  0.80725  0.85929  1.0000
  H   H187      1.0  0.14299  0.76779  0.77918  1.0000
  C   C120      1.0  0.30611  0.92151  0.90951  1.0000
  H   H188      1.0  0.13862  0.84113  0.81680  1.0000
  H   H189      1.0  0.22619  0.91904  0.90163  1.0000
  H   H190      1.0  0.23309  0.87710  0.94517  1.0000
  H   H191      1.0  0.07999  0.80801  0.82782  1.0000
  C   C121      1.0  0.45194  0.90802  0.75759  1.0000
  H   H192      1.0  0.07790  0.69798  0.82378  1.0000
  S   S49       1.0  0.06121  0.72663  0.98687  1.0000
  N   N14       1.0  0.11505  0.77038  0.82248  1.0000
  H   H193      1.0  0.04441  0.72439  0.83141  1.0000
  C   C122      1.0  0.49631  0.89112  0.79323  1.0000
  H   H194      1.0  0.16022  0.74552  0.81028  1.0000
  C   C123      1.0  0.10727  0.80784  0.81389  1.0000
  C   C124      1.0  0.25439  0.95067  0.91127  1.0000
  H   H195      1.0  0.24429  0.92367  0.96953  1.0000
  H   H196      1.0  0.23916  0.96698  0.92521  1.0000
  S   S50       1.0  0.18471  0.88023  0.75563  1.0000
  H   H197      1.0  0.49974  0.87981  0.81545  1.0000
  H   H198      1.0  0.27960  0.89010  0.89861  1.0000
  H   H199      1.0  0.34609  0.97846  0.95601  1.0000
  H   H200      1.0  0.30798  0.00095  0.95675  1.0000
  C   C125      1.0  0.32207  0.98427  0.94212  1.0000
  H   H201      1.0  0.48298  0.52044  0.97534  1.0000
  H   H202      1.0  0.34222  0.00847  0.92385  1.0000
  H   H203      1.0  0.61339  0.12537  0.20135  1.0000
  C   C126      1.0  0.00777  0.25132  0.20193  1.0000
  H   H204      1.0  0.58336  0.27012  0.23811  1.0000
  H   H205      1.0  0.63299  0.22273  0.21474  1.0000
  H   H206      1.0  0.54898  0.22289  0.16048  1.0000
  C   C127      1.0  0.57997  0.22338  0.16935  1.0000
  C   C128      1.0  0.99277  0.28134  0.19373  1.0000
  C   C129      1.0  0.94867  0.27130  0.20192  1.0000
  C   C130      1.0  0.91976  0.23182  0.21814  1.0000
  C   C131      1.0  0.93461  0.20175  0.22640  1.0000
  C   C132      1.0  0.97870  0.21162  0.21808  1.0000
  S   S51       1.0  0.68562  0.12701  0.23598  1.0000
  H   H207      1.0  0.93664  0.29417  0.19554  1.0000
  H   H208      1.0  0.88582  0.22453  0.22401  1.0000
  H   H209      1.0  0.56977  0.18881  0.17740  1.0000
  C   C133      1.0  0.56756  0.13067  0.23302  1.0000
  C   C134      1.0  0.56839  0.24597  0.21894  1.0000
  C   C135      1.0  0.60656  0.12831  0.22496  1.0000
  H   H210      1.0  0.65890  0.28152  0.22358  1.0000
  H   H211      1.0  0.60355  0.23093  0.14989  1.0000
  C   C136      1.0  0.99521  0.17670  0.09871  1.0000
  H   H212      1.0  0.63892  0.31180  0.16298  1.0000
  H   H213      1.0  0.66714  0.26386  0.18683  1.0000
  N   N15       1.0  0.60116  0.25697  0.19388  1.0000
  H   H214      1.0  0.96669  0.16749  0.08260  1.0000
  H   H215      1.0  0.98018  0.16208  0.12120  1.0000
  H   H216      1.0  0.96972  0.23994  0.09556  1.0000
  H   H217      1.0  0.55683  0.21164  0.22816  1.0000
  C   C137      1.0  0.64186  0.25631  0.20521  1.0000
  H   H218      1.0  0.54432  0.12916  0.21574  1.0000
  H   H219      1.0  0.99053  0.18857  0.22440  1.0000
  H   H220      1.0  0.58405  0.30357  0.17311  1.0000
  C   C138      1.0  0.61420  0.30225  0.18196  1.0000
  H   H221      1.0  0.01447  0.16001  0.09080  1.0000
  H   H222      1.0  0.62985  0.32850  0.19987  1.0000
  C   C139      1.0  0.63687  0.12971  0.24726  1.0000
  H   H223      1.0  0.53780  0.24719  0.21125  1.0000
  H   H224      1.0  0.98311  0.23418  0.13414  1.0000
  S   S52       1.0  0.89976  0.15231  0.24775  1.0000
  C   C140      1.0  0.99804  0.24689  0.11132  1.0000
  H   H225      1.0  0.01727  0.23680  0.05337  1.0000
  H   H226      1.0  0.01939  0.28415  0.11336  1.0000
  C   C141      1.0  0.93977  0.22159  0.33486  1.0000
  Fe  Fe25      1.0  0.83289  0.13684  0.27050  1.0000
  S   S53       1.0  0.80859  0.18705  0.27225  1.0000
  Fe  Fe26      1.0  0.75767  0.07115  0.31426  1.0000
  S   S54       1.0  0.72934  0.11835  0.31903  1.0000
  Fe  Fe27      1.0  0.73794  0.12744  0.26876  1.0000
  H   H227      1.0  0.94511  0.29997  0.35016  1.0000
  Fe  Fe28      1.0  0.80191  0.17301  0.32222  1.0000
  S   S55       1.0  0.82792  0.23092  0.35529  1.0000
  H   H228      1.0  0.66176  0.07620  0.45177  1.0000
  S   S56       1.0  0.82982  0.12588  0.32106  1.0000
  H   H229      1.0  0.90976  0.21673  0.34818  1.0000
  C   C142      1.0  0.55850  0.13435  0.26349  1.0000
  H   H230      1.0  0.68169  0.06356  0.37047  1.0000
  C   C143      1.0  0.85318  0.20169  0.45208  1.0000
  C   C144      1.0  0.84686  0.17128  0.42878  1.0000
  C   C145      1.0  0.84035  0.18060  0.39886  1.0000
  C   C146      1.0  0.84045  0.22060  0.39207  1.0000
  C   C147      1.0  0.84917  0.25216  0.41513  1.0000
  C   C148      1.0  0.85550  0.24272  0.44517  1.0000
  H   H231      1.0  0.84637  0.14012  0.43403  1.0000
  H   H232      1.0  0.83429  0.15635  0.38127  1.0000
  H   H233      1.0  0.84951  0.28330  0.40996  1.0000
  H   H234      1.0  0.86020  0.26627  0.46313  1.0000
  H   H235      1.0  0.52704  0.42416  0.38518  1.0000
  N   N16       1.0  0.95822  0.26280  0.31613  1.0000
  C   C149      1.0  0.62767  0.13325  0.27772  1.0000
  C   C150      1.0  0.66954  0.05520  0.39425  1.0000
  N   N17       1.0  0.70683  0.08046  0.41601  1.0000
  C   C151      1.0  0.72548  0.12943  0.41150  1.0000
  H   H236      1.0  0.75301  0.14952  0.42804  1.0000
  H   H237      1.0  0.96544  0.22302  0.35119  1.0000
  H   H238      1.0  0.98732  0.33421  0.32262  1.0000
  H   H239      1.0  0.69895  0.13928  0.41429  1.0000
  H   H240      1.0  0.77019  0.08484  0.42829  1.0000
  H   H241      1.0  0.74019  0.14019  0.38838  1.0000
  H   H242      1.0  0.01096  0.29711  0.28297  1.0000
  H   H243      1.0  0.65072  0.13442  0.29507  1.0000
  H   H244      1.0  0.89384  0.25913  0.30847  1.0000
  C   C152      1.0  0.58861  0.13546  0.28576  1.0000
  H   H245      1.0  0.71667  0.08710  0.46425  1.0000
  C   C153      1.0  0.68935  0.06824  0.44729  1.0000
  H   H246      1.0  0.75888  0.08009  0.38830  1.0000
  H   H247      1.0  0.90811  0.22874  0.28172  1.0000
  S   S57       1.0  0.85114  0.18434  0.48972  1.0000
  C   C154      1.0  0.92246  0.25990  0.29563  1.0000
  H   H248      1.0  0.64151  0.06291  0.39723  1.0000
  H   H249      1.0  0.98585  0.23696  0.28293  1.0000
  H   H250      1.0  0.58182  0.13825  0.30940  1.0000
  H   H251      1.0  0.93567  0.28901  0.27977  1.0000
  C   C155      1.0  0.97365  0.30256  0.33605  1.0000
  H   H252      1.0  0.00078  0.30594  0.35182  1.0000
  C   C156      1.0  0.74295  0.06887  0.41105  1.0000
  C   C157      1.0  0.99671  0.26689  0.29791  1.0000
  H   H253      1.0  0.53628  0.46209  0.41611  1.0000
  H   H254      1.0  0.92880  0.19104  0.32050  1.0000
  S   S58       1.0  0.76246  0.07716  0.26326  1.0000
  H   H255      1.0  0.72948  0.03181  0.41221  1.0000
  H   H256      1.0  0.67548  0.03158  0.45153  1.0000
  H   H257      1.0  0.52401  0.40542  0.42360  1.0000
  H   H258      1.0  0.65518  0.01814  0.39666  1.0000
  C   C158      1.0  0.84916  0.05470  0.57289  1.0000
  Fe  Fe29      1.0  0.93274  0.22215  0.58377  1.0000
  S   S59       1.0  0.87569  0.23413  0.57118  1.0000
  S   S60       1.0  0.92413  0.16633  0.61621  1.0000
  C   C159      1.0  0.79205  0.49353  0.62304  1.0000
  H   H259      1.0  0.75711  0.47105  0.61445  1.0000
  H   H260      1.0  0.78186  0.04739  0.51367  1.0000
  Fe  Fe30      1.0  0.89943  0.23527  0.52339  1.0000
  S   S61       1.0  0.98311  0.29609  0.58803  1.0000
  S   S62       1.0  0.95485  0.22048  0.53588  1.0000
  C   C160      1.0  0.78767  0.06203  0.65877  1.0000
  C   C161      1.0  0.79180  0.10028  0.64388  1.0000
  C   C162      1.0  0.83362  0.13316  0.63171  1.0000
  C   C163      1.0  0.87190  0.12796  0.63392  1.0000
  C   C164      1.0  0.86804  0.09003  0.64921  1.0000
  C   C165      1.0  0.82613  0.05715  0.66154  1.0000
  H   H261      1.0  0.76237  0.10458  0.64184  1.0000
  H   H262      1.0  0.83610  0.16240  0.62048  1.0000
  H   H263      1.0  0.89751  0.08582  0.65125  1.0000
  H   H264      1.0  0.87951  0.06531  0.51525  1.0000
  Fe  Fe31      1.0  0.92730  0.30850  0.57192  1.0000
  N   N18       1.0  0.83500  0.07220  0.54693  1.0000
  Fe  Fe32      1.0  0.99935  0.29559  0.53857  1.0000
  C   C166      1.0  0.93130  0.49769  0.58107  1.0000
  H   H265      1.0  0.81453  0.12169  0.53868  1.0000
  S   S63       1.0  0.73332  0.02114  0.67236  1.0000
  H   H266      1.0  0.83628  0.45681  0.59530  1.0000
  H   H267      1.0  0.79853  0.09497  0.57511  1.0000
  C   C167      1.0  0.78170  0.44074  0.66285  1.0000
  S   S64       1.0  0.94516  0.31068  0.52248  1.0000
  H   H268      1.0  0.02119  0.46499  0.59485  1.0000
  C   C168      1.0  0.79347  0.03517  0.53324  1.0000
  C   C169      1.0  0.82563  0.10783  0.55754  1.0000
  H   H269      1.0  0.78065  0.41263  0.60566  1.0000
  H   H270      1.0  0.76519  0.02011  0.55000  1.0000
  C   C170      1.0  0.87180  0.09127  0.52415  1.0000
  C   C171      1.0  0.81453  0.43735  0.61484  1.0000
  H   H271      1.0  0.77883  0.46294  0.68026  1.0000
  H   H272      1.0  0.91336  0.40144  0.54468  1.0000
  H   H273      1.0  0.79548  0.42105  0.67436  1.0000
  H   H274      1.0  0.93883  0.43577  0.63900  1.0000
  H   H275      1.0  0.85649  0.13655  0.56761  1.0000
  H   H276      1.0  0.74682  0.41653  0.65489  1.0000
  C   C172      1.0  0.92560  0.41336  0.59254  1.0000
  C   C173      1.0  0.93425  0.44431  0.61615  1.0000
  C   C174      1.0  0.93787  0.48654  0.61039  1.0000
  H   H277      1.0  0.94581  0.51043  0.62865  1.0000
  C   C175      1.0  0.92292  0.46686  0.55742  1.0000
  C   C176      1.0  0.92034  0.42501  0.56304  1.0000
  H   H278      1.0  0.91787  0.47521  0.53462  1.0000
  N   N19       1.0  0.81119  0.46756  0.63749  1.0000
  H   H279      1.0  0.82999  0.41805  0.62474  1.0000
  S   S65       1.0  0.92196  0.36099  0.60133  1.0000
  H   H280      1.0  0.87310  0.48082  0.65962  1.0000
  C   C177      1.0  0.85687  0.49904  0.64926  1.0000
  H   H281      1.0  0.90370  0.11892  0.53406  1.0000
  H   H282      1.0  0.88137  0.08151  0.58303  1.0000
  H   H283      1.0  0.99136  0.40391  0.55498  1.0000
  H   H284      1.0  0.82313  0.04207  0.59125  1.0000
  H   H285      1.0  0.85501  0.02666  0.56601  1.0000
  H   H286      1.0  0.82354  0.02802  0.67306  1.0000
  H   H287      1.0  0.86280  0.10593  0.50458  1.0000
  H   H288      1.0  0.55418  0.44103  0.87388  1.0000
  H   H289      1.0  0.64231  0.44622  0.96462  1.0000
  C   C178      1.0  0.55362  0.40694  0.91516  1.0000
  C   C179      1.0  0.57323  0.44209  0.89381  1.0000
  H   H290      1.0  0.56451  0.38166  0.95714  1.0000
  C   C180      1.0  0.57882  0.40866  0.94068  1.0000
  C   C181      1.0  0.62297  0.44532  0.94487  1.0000
  C   C182      1.0  0.64259  0.48064  0.92365  1.0000
  C   C183      1.0  0.61739  0.47889  0.89808  1.0000
  H   H291      1.0  0.55157  0.46284  0.97598  1.0000
  H   H292      1.0  0.63212  0.50574  0.88152  1.0000
  H   H293      1.0  0.53093  0.48824  0.92965  1.0000
  N   N20       1.0  0.01927  0.61100  0.03935  1.0000
  C   C184      1.0  0.98241  0.60022  0.01733  1.0000
  H   H294      1.0  0.95005  0.59196  0.02893  1.0000
  H   H295      1.0  0.94399  0.77073  0.00471  1.0000
  H   H296      1.0  0.97550  0.56285  0.07241  1.0000
  H   H297      1.0  0.00142  0.54184  0.04626  1.0000
  H   H298      1.0  0.01655  0.77212  0.01638  1.0000
  C   C185      1.0  0.00702  0.57200  0.05941  1.0000
  H   H299      1.0  0.99546  0.64310  0.07067  1.0000
  Fe  Fe33      1.0  0.66752  0.80114  0.49423  1.0000
  H   H300      1.0  0.60615  0.71801  0.33319  1.0000
  H   H301      1.0  0.62144  0.76688  0.37768  1.0000
  S   S66       1.0  0.57655  0.68147  0.41183  1.0000
  H   H302      1.0  0.66433  0.72657  0.37073  1.0000
  H   H303      1.0  0.64714  0.73451  0.30310  1.0000
  S   S67       1.0  0.64082  0.72639  0.49605  1.0000
  S   S68       1.0  0.70264  0.74142  0.43502  1.0000
  C   C186      1.0  0.64842  0.79527  0.36441  1.0000
  S   S69       1.0  0.74025  0.81990  0.48680  1.0000
  Fe  Fe34      1.0  0.72234  0.81498  0.43731  1.0000
  S   S70       1.0  0.76655  0.86680  0.40174  1.0000
  S   S71       1.0  0.65129  0.80043  0.44498  1.0000
  H   H304      1.0  0.70486  0.74194  0.34037  1.0000
  C   C187      1.0  0.75448  0.90840  0.38729  1.0000
  C   C188      1.0  0.78325  0.93913  0.36530  1.0000
  C   C189      1.0  0.77313  0.97079  0.35208  1.0000
  C   C190      1.0  0.73366  0.97148  0.36043  1.0000
  C   C191      1.0  0.70513  0.94098  0.38255  1.0000
  C   C192      1.0  0.71569  0.91003  0.39614  1.0000
  H   H305      1.0  0.81343  0.93831  0.35831  1.0000
  H   H306      1.0  0.71746  0.77847  0.37240  1.0000
  H   H307      1.0  0.67452  0.94118  0.38919  1.0000
  H   H308      1.0  0.69349  0.88717  0.41327  1.0000
  N   N21       1.0  0.66880  0.77903  0.34152  1.0000
  H   H309      1.0  0.61640  0.76433  0.30881  1.0000
  H   H310      1.0  0.68975  0.83730  0.31309  1.0000
  H   H311      1.0  0.73174  0.84176  0.33958  1.0000
  Fe  Fe35      1.0  0.63176  0.72711  0.44543  1.0000
  C   C193      1.0  0.63303  0.74758  0.32066  1.0000
  C   C194      1.0  0.70397  0.81785  0.32436  1.0000
  H   H312      1.0  0.67437  0.81821  0.38083  1.0000
  C   C195      1.0  0.68972  0.75537  0.35688  1.0000
  H   H313      1.0  0.71989  0.80692  0.30668  1.0000
  H   H314      1.0  0.63324  0.81432  0.35388  1.0000
  Fe  Fe36      1.0  0.71339  0.74507  0.48561  1.0000
  H   H315      1.0  0.54384  0.62956  0.46805  1.0000
  H   H316      1.0  0.79539  0.99401  0.33505  1.0000
  C   C196      1.0  0.52975  0.62763  0.42037  1.0000
  S   S72       1.0  0.71719  0.00837  0.34352  1.0000
  C   C197      1.0  0.88938  0.62961  0.73771  1.0000
  S   S73       1.0  0.94974  0.60607  0.65598  1.0000
  S   S74       1.0  0.87672  0.61398  0.60993  1.0000
  Fe  Fe37      1.0  0.89313  0.62218  0.65956  1.0000
  Fe  Fe38      1.0  0.93651  0.60262  0.60596  1.0000
  S   S75       1.0  0.93152  0.54871  0.57297  1.0000
  C   C198      1.0  0.84469  0.60110  0.72845  1.0000
  H   H317      1.0  0.91678  0.64159  0.72143  1.0000
  S   S76       1.0  0.83253  0.58560  0.69022  1.0000
  H   H318      1.0  0.00139  0.78262  0.61759  1.0000
  C   C199      1.0  0.82974  0.68779  0.56173  1.0000
  C   C200      1.0  0.80938  0.58547  0.74977  1.0000
  S   S77       1.0  0.64142  0.84296  0.74355  1.0000
  Fe  Fe39      1.0  0.92614  0.68800  0.60710  1.0000
  H   H319      1.0  0.76054  0.64675  0.54669  1.0000
  H   H320      1.0  0.83031  0.66060  0.57389  1.0000
  H   H321      1.0  0.77475  0.56329  0.74266  1.0000
  H   H322      1.0  0.82674  0.78463  0.51728  1.0000
  H   H323      1.0  0.71180  0.78065  0.63692  1.0000
  S   S78       1.0  0.98518  0.67650  0.59873  1.0000
  H   H324      1.0  0.80264  0.79437  0.60765  1.0000
  H   H325      1.0  0.66599  0.74016  0.57687  1.0000
  Fe  Fe40      1.0  0.70798  0.95655  0.70000  1.0000
  S   S79       1.0  0.63203  0.91127  0.69576  1.0000
  H   H326      1.0  0.55262  0.92732  0.72634  1.0000
  Fe  Fe41      1.0  0.64829  0.85532  0.69354  1.0000
  S   S80       1.0  0.61051  0.79533  0.66287  1.0000
  S   S81       1.0  0.72403  0.90021  0.69437  1.0000
  S   S82       1.0  0.65801  0.84813  0.52525  1.0000
  H   H327      1.0  0.69754  0.71229  0.56837  1.0000
  H   H328      1.0  0.75887  0.83185  0.62261  1.0000
  C   C201      1.0  0.78864  0.71472  0.53004  1.0000
  C   C202      1.0  0.82725  0.75761  0.52971  1.0000
  C   C203      1.0  0.86690  0.76540  0.54529  1.0000
  C   C204      1.0  0.86846  0.73050  0.56129  1.0000
  S   S83       1.0  0.93872  0.69732  0.65750  1.0000
  H   H329      1.0  0.89668  0.79854  0.54469  1.0000
  C   C205      1.0  0.62213  0.80980  0.62452  1.0000
  C   C206      1.0  0.64684  0.85503  0.61589  1.0000
  C   C207      1.0  0.65718  0.86634  0.58526  1.0000
  C   C208      1.0  0.64371  0.83253  0.56324  1.0000
  C   C209      1.0  0.61894  0.78723  0.57181  1.0000
  C   C210      1.0  0.60780  0.77587  0.60245  1.0000
  H   H330      1.0  0.65802  0.88140  0.63279  1.0000
  H   H331      1.0  0.67607  0.90142  0.57866  1.0000
  H   H332      1.0  0.60780  0.76108  0.55478  1.0000
  H   H333      1.0  0.58853  0.74084  0.60909  1.0000
  H   H334      1.0  0.67825  0.71169  0.60643  1.0000
  H   H335      1.0  0.77547  0.74297  0.58640  1.0000
  H   H336      1.0  0.70315  0.81218  0.60786  1.0000
  S   S84       1.0  0.91910  0.74168  0.58059  1.0000
  H   H337      1.0  0.79554  0.69295  0.73430  1.0000
  H   H338      1.0  0.83618  0.67900  0.74909  1.0000
  H   H339      1.0  0.87942  0.52072  0.63080  1.0000
  Fe  Fe42      1.0  0.63130  0.90310  0.74614  1.0000
  H   H340      1.0  0.72631  0.81139  0.55583  1.0000
  N   N22       1.0  0.73506  0.77492  0.59250  1.0000
  C   C211      1.0  0.76941  0.76356  0.60336  1.0000
  C   C212      1.0  0.75154  0.80226  0.56460  1.0000
  C   C213      1.0  0.72693  0.80096  0.61605  1.0000
  C   C214      1.0  0.69232  0.73291  0.58583  1.0000
  C   C215      1.0  0.79018  0.68002  0.54621  1.0000
  H   H341      1.0  0.78389  0.83415  0.56856  1.0000
  H   H342      1.0  0.75839  0.74371  0.62472  1.0000
  Fe  Fe43      1.0  0.99461  0.68100  0.64941  1.0000
  H   H343      1.0  0.55435  0.80523  0.70883  1.0000
  H   H344      1.0  0.75777  0.78355  0.54628  1.0000
  Fe  Fe44      1.0  0.71580  0.89204  0.74526  1.0000
  C   C216      1.0  0.52593  0.91739  0.74299  1.0000
  S   S85       1.0  0.73689  0.70272  0.51208  1.0000
  H   H345      1.0  0.85540  0.73062  0.72885  1.0000
  C   C217      1.0  0.82946  0.70732  0.74524  1.0000
  H   H346      1.0  0.85567  0.52168  0.66695  1.0000
  H   H347      1.0  0.53589  0.83844  0.72953  1.0000
  H   H348      1.0  0.52839  0.87294  0.68262  1.0000
  H   H349      1.0  0.54842  0.84128  0.66134  1.0000
  H   H350      1.0  0.79051  0.51778  0.63931  1.0000
  S   S86       1.0  0.70587  0.95238  0.75104  1.0000
  H   H351      1.0  0.84657  0.79191  0.75097  1.0000
  H   H352      1.0  0.79925  0.00762  0.52490  1.0000
  H   H353      1.0  0.81322  0.51353  0.60347  1.0000
  Fe  Fe45      1.0  0.74498  0.59108  0.90480  1.0000
  H   H354      1.0  0.82622  0.78762  0.78893  1.0000
  H   H355      1.0  0.79152  0.58657  0.79672  1.0000
  H   H356      1.0  0.71926  0.92646  0.81251  1.0000
  S   S87       1.0  0.82052  0.61710  0.90759  1.0000
  S   S88       1.0  0.74798  0.60895  0.85533  1.0000
  Fe  Fe46      1.0  0.82375  0.64113  0.85985  1.0000
  C   C218      1.0  0.86357  0.62715  0.78952  1.0000
  C   C219      1.0  0.81877  0.59871  0.78030  1.0000
  S   S89       1.0  0.75134  0.65647  0.92123  1.0000
  C   C220      1.0  0.89878  0.64234  0.76822  1.0000
  S   S90       1.0  0.87715  0.64579  0.82712  1.0000
  H   H357      1.0  0.93348  0.66420  0.77533  1.0000
  H   H358      1.0  0.80262  0.66997  0.80092  1.0000
  H   H359      1.0  0.92038  0.68075  0.93027  1.0000
  C   C221      1.0  0.00979  0.72723  0.97995  1.0000
  S   S91       1.0  0.76252  0.88193  0.77770  1.0000
  C   C222      1.0  0.94106  0.70057  0.94909  1.0000
  H   H360      1.0  0.63022  0.81131  0.83466  1.0000
  S   S92       1.0  0.83455  0.70921  0.87315  1.0000
  H   H361      1.0  0.99264  0.68209  0.94183  1.0000
  S   S93       1.0  0.71445  0.69911  0.84648  1.0000
  C   C223      1.0  0.53077  0.90257  0.77157  1.0000
  H   H362      1.0  0.72353  0.90292  0.87853  1.0000
  C   C224      1.0  0.72963  0.75010  0.82700  1.0000
  C   C225      1.0  0.69926  0.75059  0.80553  1.0000
  C   C226      1.0  0.70923  0.79036  0.78982  1.0000
  C   C227      1.0  0.74951  0.83041  0.79577  1.0000
  C   C228      1.0  0.77995  0.82998  0.81725  1.0000
  C   C229      1.0  0.77015  0.79002  0.83277  1.0000
  H   H363      1.0  0.66775  0.71990  0.80098  1.0000
  H   H364      1.0  0.71121  0.95432  0.84441  1.0000
  H   H365      1.0  0.81115  0.86082  0.82212  1.0000
  H   H366      1.0  0.79359  0.79027  0.84950  1.0000
  C   C230      1.0  0.92696  0.72555  0.96665  1.0000
  C   C231      1.0  0.98215  0.70143  0.95573  1.0000
  C   C232      1.0  0.87641  0.74808  0.78799  1.0000
  H   H367      1.0  0.65402  0.90988  0.88349  1.0000
  S   S94       1.0  0.87552  0.72574  0.95878  1.0000
  C   C233      1.0  0.95452  0.75125  0.99100  1.0000
  H   H368      1.0  0.67099  0.84443  0.80630  1.0000
  H   H369      1.0  0.68558  0.78998  0.77324  1.0000
  H   H370      1.0  0.76148  0.68288  0.78511  1.0000
  S   S95       1.0  0.57871  0.89688  0.78084  1.0000
  H   H371      1.0  0.68924  0.84279  0.87392  1.0000
  S   S96       1.0  0.69842  0.52574  0.93045  1.0000
  Fe  Fe47      1.0  0.82725  0.68332  0.92087  1.0000
  H   H372      1.0  0.79567  0.71471  0.81640  1.0000
  H   H373      1.0  0.61927  0.84980  0.87930  1.0000
  C   C234      1.0  0.63734  0.88215  0.86664  1.0000
  Fe  Fe48      1.0  0.75847  0.67615  0.87181  1.0000
  H   H374      1.0  0.87836  0.76447  0.81022  1.0000
  N   N23       1.0  0.67066  0.88194  0.84512  1.0000
  C   C235      1.0  0.70498  0.87559  0.86168  1.0000
  H   H375      1.0  0.66856  0.93075  0.81538  1.0000
  C   C236      1.0  0.69340  0.92529  0.82866  1.0000
  C   C237      1.0  0.64689  0.84474  0.82324  1.0000
  H   H376      1.0  0.61118  0.88703  0.85453  1.0000
  H   H377      1.0  0.62028  0.84808  0.81061  1.0000
  H   H378      1.0  0.88431  0.72062  0.79247  1.0000
  H   H379      1.0  0.53934  0.52838  0.97881  1.0000
  H   H380      1.0  0.73074  0.87577  0.84585  1.0000
  C   C238      1.0  0.79621  0.69799  0.79492  1.0000
  N   N24       1.0  0.83113  0.73036  0.77398  1.0000
  C   C239      1.0  0.99570  0.75207  0.99768  1.0000
  C   C240      1.0  0.82242  0.76799  0.76795  1.0000
  H   H381      1.0  0.90371  0.77325  0.77316  1.0000
  H   H382      1.0  0.78729  0.75561  0.75943  1.0000
  H   H383      1.0  0.99099  0.62941  0.00204  1.0000
  H   H384      1.0  0.97612  0.57111  0.00273  1.0000
