data_image0
_chemical_formula_structural       C2Fe2S2HSHCSHFeHSC2NSCFeSH5S2HS2H2C4SCH2CHFeCH3CH2C2H8CHC4FeSH6C4HCHCHFeH2C5SH2NH2CHCS3NHSHC2H8SCHCH2FeH3CHCSHFeH2CHCHC4H3C2NFeH2FeH4CSHFeS2FeS2Fe2S2H4SC6H6C3H10C3NS3HCH4CH2SC2HSHFeCHC2HFeS2H2NSCHC5HSNH3SHSC2H5C9HCH3CH2SH4CHC2H4CHC2NHC6HCH4CH4FeSFeS2FeS3H3C2H2C6H4C6H3FeH2NHCH5SH4NHCHSHCH5CHFeH2NH4C2HCH2NCHC2H3C2HFeS2CH2SH2FeCHC4H3CH3C4S3H2CFe2HFeHCNSH2CH4SH2CS2HCH2CSHFeH2SFeCSH5FeSCHCSHCHSC2HSCHSFeH2C6SH2FeH2CH2C3HC2H2CH3NCHCH3C2SFeH5NH4FeS2C3SCHNCHCSC2HCH2CHCHSH6NH2SCH2FeH2CH2CSC2H4C4H7C5H3SH3C2NHCHC2H3SHFeC4NSH2FeSCSCFeCHSH3SHS2H4FeHFeC4H2NCH2C2HSC3HCH6SHCH2CH3CH3CHC2HC2H2NCHCHC3H7CHFeS2FeS3FeS3H3C6H3C3HC2H5CHFeSNH4SCHCFeHC3SCSHFeSFeCHC2SHC2HC3H4CHCSHCH2C2HS3H4SHCHCHC2H2CHN2H2CNSH2FeH4CFeH2FeHC2HNH3CH2CSCH3FeSFeHSHCS2HNHC4H2CNC2HC2H2C4H2SCHCH2CH4FeCHCNH6CH5SFeHC3HCS2HSFeCHCHC4H3CH3SC3H4SCSH4FeCHCHC2HFeH3CHCH2CH2SHS2H2FeSH2CHCH2SHSH4FeC3FeHC2HSC3HC4HFeSH4FeSHCHSHCSFeHCHCHCSNCSH3CFeC3HC2H3CH5CH4CHNH2SNH3CH2CHSFeSC2HC2H2SH3NCFeC7H2CH3CH2C2HC2H2SHCHS2HFe2H4CHC2H2N2CSH4C3HNHSHFeHSFeSHS2CHCHC2HCH2CH2FeHCSC3HC2H5CH4SCSH2SH2C2S2H2NFeCH2CFeH3SHC2H2CHNSH2CH4SH3C3HCH2CSNHCSHCHFeHFe2SHSH3CHC2H2CH2NHC6H3CHCSHNS2CFeHFe2C2HCHSH3C2H2CHCH2CH3CH2SHCSHCFeS2H2C3H5NSHCH4CNSCFeCHFeCH3FeH4FeSCH4FeH2SHCHSHSH2FeC5HCH2SHSH2CHSHC2NSCHSHCFe3H4CH4CH2SC2HC2HCH6CHCHSHCHC2SCH2SH2SC3Fe2CSCSFeNC4H15SCSHC2H4CHFeCHC3SH2C3HCFeNH2CSH3CH2Fe2SHSH3CH6SH2CSC2FeNH6CH4SC3HNH2CHS2HCHSHFeHFeS2HCSCSCFeSC3SHCH3C2H3C3HSHC2NFeH2SHFeCHNCHSFeSHSCSC5H4CH7SH2SHFeHCFeS2FeSFeS2H2CHNHCFeCHC6H8SCHC5HCH5C2H3C2HCH2FeH4CFeCH2NHSCH4FeS2FeS2CHC2S2C6H2FeHC6H4S2CH3CSH2CNCH5C3HNHSHCHS2H4SHSFe2H4CHC2HNCFeHC3H6SH2CH2Fe2HCSCHFeHSH2CH3CH2SH2CH2SC2HFeSFe2SNFeHFeS2HCHC5HCH2NHC2H3SHSHNH3CHSH4CHCH2C2H2CH8CHNHCH24CH2CHC2H2CH4CSH2CHC5NCHCH5CH3CNHC4NHSCH2SHCH2SHCHCSHCHCHCHSC2HSCH2NCHSFe2H3NHFeH3CSCSH4SHSC6HCFeH4CH5CH3C2HSH3C
_chemical_formula_sum              "C640 Fe128 S256 H1024 N64"
_cell_length_a       45.4104
_cell_length_b       43.5705
_cell_length_c       32.3802
_cell_angle_alpha    90.3792
_cell_angle_beta     90.2936
_cell_angle_gamma    88.7827

_space_group_name_H-M_alt    "P 1"
_space_group_IT_number       1

loop_
  _space_group_symop_operation_xyz
  'x, y, z'

loop_
  _atom_site_type_symbol
  _atom_site_label
  _atom_site_symmetry_multiplicity
  _atom_site_fract_x
  _atom_site_fract_y
  _atom_site_fract_z
  _atom_site_occupancy
  C   C1        1.0  0.09413  0.52340  0.28665  1.0000
  C   C2        1.0  0.17900  0.12890  0.23049  1.0000
  Fe  Fe1       1.0  0.18822  0.57308  0.33232  1.0000
  Fe  Fe2       1.0  0.13611  0.17078  0.16789  1.0000
  S   S1        1.0  0.09844  0.14538  0.14061  1.0000
  S   S2        1.0  0.17534  0.13980  0.17867  1.0000
  H   H1        1.0  0.15905  0.15099  0.32776  1.0000
  S   S3        1.0  0.10841  0.19730  0.21355  1.0000
  H   H2        1.0  0.14306  0.60698  0.24997  1.0000
  C   C3        1.0  0.16661  0.14685  0.26218  1.0000
  S   S4        1.0  0.16187  0.59105  0.48079  1.0000
  H   H3        1.0  0.15598  0.16857  0.25521  1.0000
  Fe  Fe3       1.0  0.10347  0.23192  0.16263  1.0000
  H   H4        1.0  0.14669  0.53580  0.53014  1.0000
  S   S5        1.0  0.10747  0.28266  0.17367  1.0000
  C   C4        1.0  0.16859  0.13702  0.30332  1.0000
  C   C5        1.0  0.13626  0.49383  0.58824  1.0000
  N   N1        1.0  0.15346  0.52207  0.59332  1.0000
  S   S6        1.0  0.21334  0.58709  0.38877  1.0000
  C   C6        1.0  0.11105  0.33406  0.12639  1.0000
  Fe  Fe4       1.0  0.16877  0.59960  0.41374  1.0000
  S   S7        1.0  0.14341  0.58119  0.35969  1.0000
  H   H5        1.0  0.09609  0.33439  0.23461  1.0000
  H   H6        1.0  0.09289  0.51703  0.31986  1.0000
  H   H7        1.0  0.10619  0.38333  0.19965  1.0000
  H   H8        1.0  0.11581  0.51475  0.27500  1.0000
  H   H9        1.0  0.13862  0.48405  0.55650  1.0000
  S   S8        1.0  0.10209  0.43350  0.45420  1.0000
  S   S9        1.0  0.08186  0.51245  0.51131  1.0000
  H   H10       1.0  0.14913  0.43564  0.26436  1.0000
  S   S10       1.0  0.19892  0.53156  0.29379  1.0000
  S   S11       1.0  0.10934  0.42710  0.33147  1.0000
  H   H11       1.0  0.11232  0.49845  0.59292  1.0000
  H   H12       1.0  0.29319  0.60376  0.25592  1.0000
  C   C7        1.0  0.17603  0.50118  0.30648  1.0000
  C   C8        1.0  0.16052  0.50139  0.34375  1.0000
  C   C9        1.0  0.14046  0.47821  0.35209  1.0000
  C   C10       1.0  0.08388  0.40167  0.56420  1.0000
  S   S12       1.0  0.13514  0.20763  0.11997  1.0000
  C   C11       1.0  0.17218  0.47719  0.27818  1.0000
  H   H13       1.0  0.16415  0.51926  0.36637  1.0000
  H   H14       1.0  0.12831  0.47866  0.38076  1.0000
  C   C12       1.0  0.15223  0.45396  0.28655  1.0000
  H   H15       1.0  0.18431  0.47685  0.24949  1.0000
  Fe  Fe5       1.0  0.08407  0.43673  0.38968  1.0000
  C   C13       1.0  0.13612  0.45468  0.32327  1.0000
  H   H16       1.0  0.18936  0.50495  0.55609  1.0000
  H   H17       1.0  0.11931  0.34502  0.15394  1.0000
  H   H18       1.0  0.09421  0.54891  0.28514  1.0000
  C   C14       1.0  0.14384  0.54486  0.56219  1.0000
  H   H19       1.0  0.09480  0.13706  0.33998  1.0000
  H   H20       1.0  0.09296  0.35458  0.28310  1.0000
  C   C15       1.0  0.10487  0.30277  0.12698  1.0000
  C   C16       1.0  0.18508  0.51468  0.58741  1.0000
  H   H21       1.0  0.12016  0.55119  0.56534  1.0000
  H   H22       1.0  0.15664  0.56629  0.56468  1.0000
  H   H23       1.0  0.19869  0.53551  0.59100  1.0000
  H   H24       1.0  0.09134  0.46659  0.25565  1.0000
  H   H25       1.0  0.08339  0.32374  0.57044  1.0000
  H   H26       1.0  0.09318  0.50936  0.20537  1.0000
  H   H27       1.0  0.09324  0.60061  0.60392  1.0000
  H   H28       1.0  0.08710  0.14798  0.26551  1.0000
  C   C17       1.0  0.09326  0.40850  0.60455  1.0000
  H   H29       1.0  0.10311  0.40326  0.24800  1.0000
  C   C18       1.0  0.08614  0.34739  0.57976  1.0000
  C   C19       1.0  0.18281  0.10911  0.31272  1.0000
  C   C20       1.0  0.09033  0.39490  0.22091  1.0000
  C   C21       1.0  0.14882  0.53494  0.63524  1.0000
  Fe  Fe6       1.0  0.22544  0.19221  0.81473  1.0000
  S   S13       1.0  0.22764  0.24318  0.80927  1.0000
  H   H30       1.0  0.20802  0.32692  0.92873  1.0000
  H   H31       1.0  0.14951  0.32165  0.80697  1.0000
  H   H32       1.0  0.19995  0.20555  0.72773  1.0000
  H   H33       1.0  0.18275  0.31950  0.01590  1.0000
  H   H34       1.0  0.14271  0.59316  0.72066  1.0000
  H   H35       1.0  0.18929  0.35528  0.99035  1.0000
  C   C22       1.0  0.17753  0.55616  0.02144  1.0000
  C   C23       1.0  0.15016  0.24044  0.73265  1.0000
  C   C24       1.0  0.15144  0.34663  0.92738  1.0000
  C   C25       1.0  0.18491  0.28801  0.81009  1.0000
  H   H36       1.0  0.16872  0.55164  0.05279  1.0000
  C   C26       1.0  0.19528  0.22140  0.70169  1.0000
  H   H37       1.0  0.19948  0.30095  0.79075  1.0000
  C   C27       1.0  0.19118  0.30928  0.93451  1.0000
  H   H38       1.0  0.13258  0.24148  0.87901  1.0000
  Fe  Fe7       1.0  0.19124  0.13955  0.85053  1.0000
  H   H39       1.0  0.29519  0.17173  0.85042  1.0000
  H   H40       1.0  0.18239  0.22065  0.86241  1.0000
  C   C28       1.0  0.19391  0.25921  0.82483  1.0000
  C   C29       1.0  0.17518  0.24259  0.85010  1.0000
  C   C30       1.0  0.14710  0.25441  0.85964  1.0000
  C   C31       1.0  0.13768  0.28264  0.84348  1.0000
  C   C32       1.0  0.15662  0.29957  0.81899  1.0000
  S   S14       1.0  0.23222  0.16318  0.87107  1.0000
  H   H41       1.0  0.13636  0.28734  0.93228  1.0000
  H   H42       1.0  0.15662  0.51864  0.65948  1.0000
  N   N2        1.0  0.16468  0.32282  0.95449  1.0000
  H   H43       1.0  0.15472  0.22640  0.76055  1.0000
  H   H44       1.0  0.12721  0.45405  0.98066  1.0000
  C   C33       1.0  0.09163  0.30510  0.05428  1.0000
  H   H45       1.0  0.13132  0.35725  0.94148  1.0000
  C   C34       1.0  0.31413  0.16279  0.86712  1.0000
  S   S15       1.0  0.18219  0.17194  0.79874  1.0000
  S   S16       1.0  0.10529  0.39286  0.68484  1.0000
  S   S17       1.0  0.25125  0.16170  0.77166  1.0000
  N   N3        1.0  0.16324  0.22626  0.69526  1.0000
  H   H46       1.0  0.20599  0.21113  0.67387  1.0000
  S   S18       1.0  0.19026  0.12665  0.69849  1.0000
  H   H47       1.0  0.11088  0.37539  0.09035  1.0000
  C   C35       1.0  0.09570  0.35420  0.61988  1.0000
  C   C36       1.0  0.15822  0.24684  0.65967  1.0000
  H   H48       1.0  0.20638  0.24331  0.70929  1.0000
  H   H49       1.0  0.10568  0.50692  0.79071  1.0000
  H   H50       1.0  0.12265  0.30804  0.97591  1.0000
  H   H51       1.0  0.15207  0.28037  0.98248  1.0000
  H   H52       1.0  0.12522  0.19950  0.68062  1.0000
  H   H53       1.0  0.09535  0.43214  0.61432  1.0000
  H   H54       1.0  0.16709  0.36538  0.92134  1.0000
  H   H55       1.0  0.15346  0.34738  0.01022  1.0000
  S   S19       1.0  0.10820  0.30949  0.73361  1.0000
  C   C37       1.0  0.33008  0.58695  0.80268  1.0000
  H   H56       1.0  0.14099  0.49198  0.80673  1.0000
  C   C38       1.0  0.09866  0.38472  0.63260  1.0000
  H   H57       1.0  0.14476  0.33682  0.89703  1.0000
  H   H58       1.0  0.15928  0.43546  0.92368  1.0000
  Fe  Fe8       1.0  0.20836  0.13878  0.76054  1.0000
  H   H59       1.0  0.15167  0.18082  0.71388  1.0000
  H   H60       1.0  0.15127  0.14851  0.08479  1.0000
  H   H61       1.0  0.20160  0.29100  0.95389  1.0000
  C   C39       1.0  0.10899  0.17857  0.82984  1.0000
  H   H62       1.0  0.13083  0.59248  0.04192  1.0000
  C   C40       1.0  0.14924  0.19649  0.68705  1.0000
  S   S20       1.0  0.10470  0.51443  0.00138  1.0000
  H   H63       1.0  0.25626  0.56565  0.61802  1.0000
  Fe  Fe9       1.0  0.09506  0.18433  0.09628  1.0000
  H   H64       1.0  0.12731  0.57964  0.98946  1.0000
  H   H65       1.0  0.11704  0.45180  0.84792  1.0000
  C   C41       1.0  0.14882  0.60364  0.86880  1.0000
  H   H66       1.0  0.15931  0.26352  0.73869  1.0000
  C   C42       1.0  0.10641  0.35116  0.09036  1.0000
  H   H67       1.0  0.13428  0.25134  0.65429  1.0000
  C   C43       1.0  0.17298  0.33685  0.99447  1.0000
  C   C44       1.0  0.14308  0.29853  0.96163  1.0000
  C   C45       1.0  0.18279  0.59291  0.96658  1.0000
  C   C46       1.0  0.08814  0.45613  0.75119  1.0000
  H   H68       1.0  0.18569  0.29866  0.90415  1.0000
  H   H69       1.0  0.12582  0.24319  0.72952  1.0000
  H   H70       1.0  0.16859  0.26949  0.66477  1.0000
  C   C47       1.0  0.09973  0.45067  0.82351  1.0000
  C   C48       1.0  0.13571  0.43596  0.77193  1.0000
  N   N4        1.0  0.17180  0.58831  0.00894  1.0000
  Fe  Fe10      1.0  0.08359  0.31312  0.79331  1.0000
  H   H71       1.0  0.09237  0.15757  0.90390  1.0000
  H   H72       1.0  0.18994  0.14457  0.07569  1.0000
  Fe  Fe11      1.0  0.25474  0.13062  0.82649  1.0000
  H   H73       1.0  0.14512  0.44077  0.74102  1.0000
  H   H74       1.0  0.09055  0.42718  0.82383  1.0000
  H   H75       1.0  0.11690  0.11015  0.05786  1.0000
  H   H76       1.0  0.17165  0.57767  0.94398  1.0000
  C   C49       1.0  0.16786  0.13993  0.06222  1.0000
  S   S21       1.0  0.10213  0.29662  0.85351  1.0000
  H   H77       1.0  0.15402  0.43677  0.79485  1.0000
  Fe  Fe12      1.0  0.22558  0.53447  0.74795  1.0000
  S   S22       1.0  0.25191  0.57153  0.77745  1.0000
  S   S23       1.0  0.22272  0.53366  0.67896  1.0000
  Fe  Fe13      1.0  0.21023  0.50640  0.82891  1.0000
  S   S24       1.0  0.23522  0.54070  0.86643  1.0000
  S   S25       1.0  0.18701  0.46701  0.85761  1.0000
  Fe  Fe14      1.0  0.21513  0.57512  0.82302  1.0000
  Fe  Fe15      1.0  0.27020  0.53452  0.81821  1.0000
  S   S26       1.0  0.18668  0.54150  0.78949  1.0000
  S   S27       1.0  0.24708  0.49675  0.78458  1.0000
  H   H78       1.0  0.12394  0.18539  0.85554  1.0000
  H   H79       1.0  0.15932  0.18445  0.66000  1.0000
  H   H80       1.0  0.20686  0.58784  0.96426  1.0000
  H   H81       1.0  0.19332  0.49774  0.61059  1.0000
  S   S28       1.0  0.09368  0.43900  0.07103  1.0000
  C   C50       1.0  0.16357  0.48020  0.89678  1.0000
  C   C51       1.0  0.15527  0.51125  0.89920  1.0000
  C   C52       1.0  0.13641  0.52159  0.93068  1.0000
  C   C53       1.0  0.12647  0.50105  0.96031  1.0000
  C   C54       1.0  0.13452  0.46995  0.95757  1.0000
  C   C55       1.0  0.15285  0.45948  0.92556  1.0000
  H   H82       1.0  0.16330  0.52725  0.87673  1.0000
  H   H83       1.0  0.12962  0.54544  0.93211  1.0000
  H   H84       1.0  0.21147  0.60544  0.03645  1.0000
  H   H85       1.0  0.16742  0.23667  0.63077  1.0000
  H   H86       1.0  0.15468  0.11924  0.77145  1.0000
  H   H87       1.0  0.15398  0.58214  0.85338  1.0000
  C   C56       1.0  0.20715  0.59380  0.68831  1.0000
  C   C57       1.0  0.22386  0.57237  0.66571  1.0000
  C   C58       1.0  0.24296  0.58225  0.63503  1.0000
  H   H88       1.0  0.13258  0.49596  0.75281  1.0000
  H   H89       1.0  0.10724  0.58855  0.89229  1.0000
  H   H90       1.0  0.19291  0.58617  0.71264  1.0000
  H   H91       1.0  0.31270  0.58233  0.78087  1.0000
  H   H92       1.0  0.09131  0.26392  0.09090  1.0000
  H   H93       1.0  0.08672  0.12862  0.86521  1.0000
  H   H94       1.0  0.32894  0.20762  0.88520  1.0000
  H   H95       1.0  0.18017  0.60536  0.07013  1.0000
  H   H96       1.0  0.09642  0.46104  0.71967  1.0000
  H   H97       1.0  0.12764  0.41200  0.77091  1.0000
  C   C59       1.0  0.12234  0.60734  0.89073  1.0000
  C   C60       1.0  0.13978  0.59517  0.01023  1.0000
  C   C61       1.0  0.09821  0.59401  0.74277  1.0000
  N   N5        1.0  0.11175  0.45809  0.78249  1.0000
  S   S29       1.0  0.31801  0.53118  0.83719  1.0000
  S   S30       1.0  0.09082  0.17176  0.02938  1.0000
  S   S31       1.0  0.15202  0.12880  0.88906  1.0000
  H   H98       1.0  0.11807  0.15661  0.81686  1.0000
  C   C62       1.0  0.12325  0.48958  0.78322  1.0000
  H   H99       1.0  0.11011  0.19638  0.80549  1.0000
  H   H100      1.0  0.10043  0.33572  0.64118  1.0000
  H   H101      1.0  0.16679  0.53980  1.00000  1.0000
  H   H102      1.0  0.16503  0.15388  0.03370  1.0000
  C   C63       1.0  0.09646  0.33676  0.05434  1.0000
  H   H103      1.0  0.20151  0.55034  0.02160  1.0000
  H   H104      1.0  0.13105  0.11499  0.00694  1.0000
  S   S32       1.0  0.09026  0.35828  0.00939  1.0000
  C   C64       1.0  0.15579  0.11026  0.70586  1.0000
  C   C65       1.0  0.09572  0.28816  0.09068  1.0000
  H   H105      1.0  0.12514  0.54034  0.64117  1.0000
  S   S33       1.0  0.09147  0.55675  0.72481  1.0000
  H   H106      1.0  0.16129  0.55644  0.63989  1.0000
  Fe  Fe16      1.0  0.08510  0.35388  0.71845  1.0000
  C   C66       1.0  0.31992  0.13116  0.86839  1.0000
  H   H107      1.0  0.08385  0.29380  0.02658  1.0000
  C   C67       1.0  0.14364  0.10900  0.74549  1.0000
  C   C68       1.0  0.12552  0.60689  0.73505  1.0000
  H   H108      1.0  0.14339  0.47583  0.61060  1.0000
  Fe  Fe17      1.0  0.14762  0.62845  0.33420  1.0000
  S   S34       1.0  0.16853  0.64805  0.39115  1.0000
  S   S35       1.0  0.11082  0.65158  0.29899  1.0000
  H   H109      1.0  0.27927  0.94456  0.21613  1.0000
  H   H110      1.0  0.21194  0.68725  0.44069  1.0000
  N   N6        1.0  0.31805  0.95224  0.25293  1.0000
  S   S36       1.0  0.24963  0.66573  0.36709  1.0000
  C   C69       1.0  0.19269  0.69523  0.21976  1.0000
  H   H111      1.0  0.25380  0.66470  0.55542  1.0000
  C   C70       1.0  0.23431  0.67541  0.53981  1.0000
  C   C71       1.0  0.19511  0.09115  0.28096  1.0000
  C   C72       1.0  0.11680  0.07614  0.27587  1.0000
  C   C73       1.0  0.27841  0.65403  0.33435  1.0000
  C   C74       1.0  0.16049  0.63593  0.53915  1.0000
  H   H112      1.0  0.12663  0.04354  0.18107  1.0000
  S   S37       1.0  0.18416  0.09611  0.36382  1.0000
  N   N7        1.0  0.23636  0.67273  0.49439  1.0000
  H   H113      1.0  0.18001  0.69525  0.19027  1.0000
  H   H114      1.0  0.20874  0.71278  0.48436  1.0000
  H   H115      1.0  0.12410  0.01375  0.41745  1.0000
  S   S38       1.0  0.19072  0.61923  0.30270  1.0000
  H   H116      1.0  0.29647  0.98978  0.28499  1.0000
  S   S39       1.0  0.15509  0.65535  0.11591  1.0000
  C   C75       1.0  0.12480  0.64145  0.48384  1.0000
  C   C76       1.0  0.11419  0.66895  0.50174  1.0000
  H   H117      1.0  0.23907  0.63718  0.44812  1.0000
  H   H118      1.0  0.24045  0.71025  0.26453  1.0000
  H   H119      1.0  0.11433  0.69460  0.16065  1.0000
  H   H120      1.0  0.11498  0.63289  0.45560  1.0000
  H   H121      1.0  0.15203  0.04498  0.22362  1.0000
  C   C77       1.0  0.32273  0.63853  0.27748  1.0000
  C   C78       1.0  0.23985  0.68626  0.25266  1.0000
  C   C79       1.0  0.11988  0.65055  0.24664  1.0000
  C   C80       1.0  0.13726  0.62642  0.23077  1.0000
  C   C81       1.0  0.14753  0.62753  0.19013  1.0000
  C   C82       1.0  0.13947  0.65223  0.16488  1.0000
  C   C83       1.0  0.12053  0.67540  0.17993  1.0000
  C   C84       1.0  0.11101  0.67474  0.22100  1.0000
  C   C85       1.0  0.16445  0.83856  0.55252  1.0000
  H   H122      1.0  0.30773  0.68918  0.35543  1.0000
  C   C86       1.0  0.12922  0.03842  0.41334  1.0000
  H   H123      1.0  0.09765  0.69350  0.23330  1.0000
  H   H124      1.0  0.26309  0.67801  0.24907  1.0000
  H   H125      1.0  0.23786  0.72775  0.19155  1.0000
  C   C87       1.0  0.19351  0.10119  0.24000  1.0000
  H   H126      1.0  0.14906  0.82365  0.53508  1.0000
  H   H127      1.0  0.14731  0.09368  0.44006  1.0000
  S   S40       1.0  0.11278  0.71319  0.56243  1.0000
  H   H128      1.0  0.22964  0.67222  0.27714  1.0000
  H   H129      1.0  0.22565  0.70194  0.15173  1.0000
  H   H130      1.0  0.18963  0.67716  0.48387  1.0000
  H   H131      1.0  0.21245  0.63677  0.22173  1.0000
  C   C88       1.0  0.12726  0.68025  0.53784  1.0000
  H   H132      1.0  0.17844  0.62324  0.55370  1.0000
  C   C89       1.0  0.23753  0.70319  0.18189  1.0000
  C   C90       1.0  0.26362  0.68739  0.48049  1.0000
  H   H133      1.0  0.21656  0.62829  0.49151  1.0000
  H   H134      1.0  0.12129  0.04551  0.38221  1.0000
  H   H135      1.0  0.31257  0.94842  0.18696  1.0000
  H   H136      1.0  0.25595  0.62734  0.49670  1.0000
  C   C91       1.0  0.22325  0.65184  0.19901  1.0000
  H   H137      1.0  0.26076  0.69547  0.17650  1.0000
  C   C92       1.0  0.13178  0.88271  0.54546  1.0000
  C   C93       1.0  0.21055  0.68821  0.47503  1.0000
  N   N8        1.0  0.22333  0.68413  0.21335  1.0000
  H   H138      1.0  0.23280  0.69979  0.55023  1.0000
  C   C94       1.0  0.15114  0.66425  0.55545  1.0000
  C   C95       1.0  0.09847  0.02812  0.24987  1.0000
  C   C96       1.0  0.16970  0.88214  0.59804  1.0000
  C   C97       1.0  0.23707  0.63996  0.48221  1.0000
  C   C98       1.0  0.30470  0.67025  0.33413  1.0000
  C   C99       1.0  0.12769  0.84931  0.60440  1.0000
  H   H139      1.0  0.12248  0.02344  0.49304  1.0000
  C   C100      1.0  0.16362  0.97792  0.16112  1.0000
  H   H140      1.0  0.30298  0.90638  0.26215  1.0000
  H   H141      1.0  0.18491  0.89399  0.57682  1.0000
  H   H142      1.0  0.19189  0.71906  0.23228  1.0000
  H   H143      1.0  0.15204  0.04973  0.48817  1.0000
  C   C101      1.0  0.30141  0.96478  0.28859  1.0000
  H   H144      1.0  0.11259  0.10568  0.46240  1.0000
  H   H145      1.0  0.31431  0.02862  0.34429  1.0000
  H   H146      1.0  0.09858  0.07824  0.29865  1.0000
  H   H147      1.0  0.18085  0.68045  0.24192  1.0000
  Fe  Fe18      1.0  0.25858  0.00900  0.39077  1.0000
  S   S41       1.0  0.30151  0.00528  0.42551  1.0000
  Fe  Fe19      1.0  0.22601  0.99680  0.31088  1.0000
  S   S42       1.0  0.18247  0.01189  0.33674  1.0000
  S   S43       1.0  0.23065  0.98375  0.24389  1.0000
  Fe  Fe20      1.0  0.19645  0.98579  0.39308  1.0000
  S   S44       1.0  0.16185  0.95993  0.42654  1.0000
  S   S45       1.0  0.25028  0.03773  0.33455  1.0000
  S   S46       1.0  0.23791  0.96660  0.36463  1.0000
  H   H148      1.0  0.12018  0.95642  0.49217  1.0000
  H   H149      1.0  0.25462  0.61658  0.30725  1.0000
  H   H150      1.0  0.21099  0.64947  0.16929  1.0000
  C   C102      1.0  0.12341  0.87983  0.11283  1.0000
  C   C103      1.0  0.13257  0.05686  0.20928  1.0000
  H   H151      1.0  0.20940  0.99040  0.16020  1.0000
  H   H152      1.0  0.11920  0.90140  0.56153  1.0000
  C   C104      1.0  0.16628  0.96274  0.48023  1.0000
  C   C105      1.0  0.14169  0.96014  0.50567  1.0000
  C   C106      1.0  0.14467  0.96295  0.54860  1.0000
  C   C107      1.0  0.17238  0.96751  0.56642  1.0000
  C   C108      1.0  0.19708  0.96978  0.54101  1.0000
  C   C109      1.0  0.19399  0.96769  0.49789  1.0000
  H   H153      1.0  0.12540  0.96145  0.56774  1.0000
  H   H154      1.0  0.14676  0.89384  0.52318  1.0000
  H   H155      1.0  0.21858  0.97331  0.55458  1.0000
  H   H156      1.0  0.21315  0.96941  0.47837  1.0000
  C   C110      1.0  0.14047  0.96773  0.18547  1.0000
  C   C111      1.0  0.14518  0.96210  0.22750  1.0000
  C   C112      1.0  0.17286  0.96698  0.24541  1.0000
  C   C113      1.0  0.19604  0.97730  0.22129  1.0000
  C   C114      1.0  0.19148  0.98251  0.17901  1.0000
  C   C115      1.0  0.30051  0.95684  0.21477  1.0000
  H   H157      1.0  0.12741  0.95390  0.24634  1.0000
  H   H158      1.0  0.17642  0.96205  0.27774  1.0000
  H   H159      1.0  0.12349  0.09985  0.26826  1.0000
  Fe  Fe21      1.0  0.20736  0.05035  0.36490  1.0000
  H   H160      1.0  0.24605  0.64257  0.19436  1.0000
  H   H161      1.0  0.16263  0.67369  0.58148  1.0000
  N   N9        1.0  0.10762  0.05926  0.23838  1.0000
  H   H162      1.0  0.14170  0.86487  0.12457  1.0000
  C   C116      1.0  0.27463  0.62954  0.30684  1.0000
  H   H163      1.0  0.10717  0.82132  0.12222  1.0000
  H   H164      1.0  0.27985  0.95337  0.29192  1.0000
  H   H165      1.0  0.31381  0.96163  0.31808  1.0000
  H   H166      1.0  0.13591  0.06459  0.29142  1.0000
  H   H167      1.0  0.29478  0.98158  0.21003  1.0000
  S   S47       1.0  0.21785  0.02575  0.42370  1.0000
  H   H168      1.0  0.11048  0.83601  0.58806  1.0000
  H   H169      1.0  0.15078  0.09666  0.11546  1.0000
  H   H170      1.0  0.20578  0.06942  0.28778  1.0000
  H   H171      1.0  0.08872  0.09966  0.20995  1.0000
  N   N10       1.0  0.11584  0.05772  0.44619  1.0000
  H   H172      1.0  0.11564  0.86920  0.52732  1.0000
  C   C117      1.0  0.29650  0.62224  0.27785  1.0000
  H   H173      1.0  0.13972  0.07996  0.19935  1.0000
  S   S48       1.0  0.10531  0.96201  0.16451  1.0000
  H   H174      1.0  0.26595  0.68596  0.44633  1.0000
  C   C118      1.0  0.14764  0.62475  0.50302  1.0000
  H   H175      1.0  0.18025  0.84819  0.53011  1.0000
  H   H176      1.0  0.11090  0.85400  0.18566  1.0000
  H   H177      1.0  0.16013  0.98217  0.12854  1.0000
  H   H178      1.0  0.11810  0.06201  0.51235  1.0000
  H   H179      1.0  0.26380  0.71213  0.48924  1.0000
  C   C119      1.0  0.12308  0.09018  0.43904  1.0000
  H   H180      1.0  0.09593  0.68140  0.48762  1.0000
  Fe  Fe22      1.0  0.21136  0.63422  0.36198  1.0000
  H   H181      1.0  0.20314  0.08721  0.21562  1.0000
  H   H182      1.0  0.21461  0.66386  0.55185  1.0000
  N   N11       1.0  0.14837  0.86322  0.57512  1.0000
  H   H183      1.0  0.17726  0.82353  0.57419  1.0000
  H   H184      1.0  0.15361  0.04028  0.41341  1.0000
  H   H185      1.0  0.09172  0.01458  0.22220  1.0000
  H   H186      1.0  0.11680  0.01509  0.26518  1.0000
  C   C120      1.0  0.08980  0.83765  0.11096  1.0000
  C   C121      1.0  0.32388  0.91908  0.25910  1.0000
  H   H187      1.0  0.28354  0.67609  0.49421  1.0000
  C   C122      1.0  0.12762  0.04786  0.48677  1.0000
  H   H188      1.0  0.12749  0.90367  0.12383  1.0000
  H   H189      1.0  0.11521  0.09807  0.40815  1.0000
  N   N12       1.0  0.09443  0.86913  0.12668  1.0000
  C   C123      1.0  0.32707  0.66222  0.30606  1.0000
  H   H190      1.0  0.09709  0.89297  0.18484  1.0000
  C   C124      1.0  0.09352  0.86940  0.17230  1.0000
  C   C125      1.0  0.08351  0.05432  0.44547  1.0000
  H   H191      1.0  0.16185  0.60933  0.17841  1.0000
  H   H192      1.0  0.26204  0.62146  0.60599  1.0000
  H   H193      1.0  0.11198  0.63643  0.60646  1.0000
  C   C126      1.0  0.08264  0.07592  0.21857  1.0000
  C   C127      1.0  0.24623  0.61377  0.62830  1.0000
  H   H194      1.0  0.17887  0.61697  0.95627  1.0000
  Fe  Fe23      1.0  0.19445  0.70152  0.66260  1.0000
  S   S49       1.0  0.14981  0.68083  0.66116  1.0000
  S   S50       1.0  0.23494  0.67451  0.64474  1.0000
  C   C128      1.0  0.14150  0.09614  0.67273  1.0000
  H   H195      1.0  0.14756  0.74306  0.82766  1.0000
  H   H196      1.0  0.30556  0.65896  0.74465  1.0000
  S   S51       1.0  0.13526  0.77814  0.99630  1.0000
  H   H197      1.0  0.08713  0.72062  0.89708  1.0000
  H   H198      1.0  0.18497  0.07121  0.01734  1.0000
  Fe  Fe24      1.0  0.13756  0.72092  0.62146  1.0000
  C   C129      1.0  0.27319  0.65505  0.81437  1.0000
  H   H199      1.0  0.27843  0.62962  0.73908  1.0000
  C   C130      1.0  0.16876  0.62765  0.86761  1.0000
  C   C131      1.0  0.11600  0.63492  0.91166  1.0000
  C   C132      1.0  0.13545  0.65922  0.90904  1.0000
  C   C133      1.0  0.16177  0.65562  0.88704  1.0000
  H   H200      1.0  0.13022  0.68085  0.92392  1.0000
  H   H201      1.0  0.17706  0.67428  0.88586  1.0000
  H   H202      1.0  0.12485  0.87983  0.07850  1.0000
  C   C134      1.0  0.22942  0.63520  0.65099  1.0000
  H   H203      1.0  0.10156  0.76777  0.80491  1.0000
  H   H204      1.0  0.13076  0.07739  0.02956  1.0000
  H   H205      1.0  0.19615  0.64146  0.69761  1.0000
  C   C135      1.0  0.28167  0.65487  0.74075  1.0000
  C   C136      1.0  0.10772  0.65594  0.76182  1.0000
  C   C137      1.0  0.26983  0.70244  0.77612  1.0000
  C   C138      1.0  0.10970  0.86754  0.99273  1.0000
  S   S52       1.0  0.13615  0.69074  0.00943  1.0000
  S   S53       1.0  0.18593  0.72907  0.72032  1.0000
  S   S54       1.0  0.20345  0.62288  0.84478  1.0000
  H   H206      1.0  0.15142  0.64765  0.73845  1.0000
  H   H207      1.0  0.18227  0.63364  0.03036  1.0000
  C   C139      1.0  0.15553  0.09254  0.91162  1.0000
  Fe  Fe25      1.0  0.11259  0.73603  0.01865  1.0000
  Fe  Fe26      1.0  0.12404  0.68169  0.07482  1.0000
  H   H208      1.0  0.09035  0.83692  0.07661  1.0000
  Fe  Fe27      1.0  0.13968  0.71220  0.71424  1.0000
  H   H209      1.0  0.22781  0.63933  0.76513  1.0000
  C   C140      1.0  0.13631  0.73502  0.85594  1.0000
  N   N13       1.0  0.26438  0.66913  0.77462  1.0000
  S   S55       1.0  0.17609  0.97004  0.62036  1.0000
  H   H210      1.0  0.22543  0.67487  0.73750  1.0000
  H   H211      1.0  0.27506  0.66446  0.71027  1.0000
  C   C141      1.0  0.23274  0.66424  0.76701  1.0000
  H   H212      1.0  0.26350  0.71365  0.74643  1.0000
  H   H213      1.0  0.09012  0.03351  0.81758  1.0000
  H   H214      1.0  0.26932  0.62992  0.81429  1.0000
  H   H215      1.0  0.25683  0.71393  0.80109  1.0000
  S   S56       1.0  0.12302  0.75084  0.67433  1.0000
  H   H216      1.0  0.15065  0.09724  0.64199  1.0000
  H   H217      1.0  0.26016  0.66491  0.84049  1.0000
  C   C142      1.0  0.13029  0.63779  0.74460  1.0000
  S   S57       1.0  0.11182  0.69579  0.76632  1.0000
  S   S58       1.0  0.09779  0.00664  0.62646  1.0000
  H   H218      1.0  0.21885  0.67428  0.79212  1.0000
  C   C143      1.0  0.08259  0.81039  0.99540  1.0000
  H   H219      1.0  0.12025  0.88951  0.99123  1.0000
  H   H220      1.0  0.13463  0.61909  0.00030  1.0000
  C   C144      1.0  0.09664  0.74346  0.90413  1.0000
  S   S59       1.0  0.21420  0.10431  0.81087  1.0000
  H   H221      1.0  0.29698  0.65831  0.82121  1.0000
  Fe  Fe28      1.0  0.17009  0.76559  0.67656  1.0000
  H   H222      1.0  0.10181  0.00489  0.85436  1.0000
  H   H223      1.0  0.10559  0.80286  0.88836  1.0000
  S   S60       1.0  0.10456  0.72864  0.08605  1.0000
  Fe  Fe29      1.0  0.09145  0.67315  0.99381  1.0000
  C   C145      1.0  0.12348  0.78655  0.87853  1.0000
  S   S61       1.0  0.12258  0.94506  0.04681  1.0000
  H   H224      1.0  0.29352  0.70703  0.78201  1.0000
  H   H225      1.0  0.19235  0.02886  0.77883  1.0000
  H   H226      1.0  0.20168  0.08680  0.89765  1.0000
  H   H227      1.0  0.18598  0.98194  0.71032  1.0000
  H   H228      1.0  0.13953  0.78507  0.90464  1.0000
  Fe  Fe30      1.0  0.12481  0.99042  0.01462  1.0000
  S   S62       1.0  0.16642  0.00347  0.98297  1.0000
  C   C146      1.0  0.12683  0.84034  0.99338  1.0000
  H   H229      1.0  0.21628  0.98353  0.74612  1.0000
  C   C147      1.0  0.16209  0.86981  0.70538  1.0000
  S   S63       1.0  0.18285  0.73959  0.61935  1.0000
  H   H230      1.0  0.16539  0.06428  0.08679  1.0000
  C   C148      1.0  0.20789  0.99217  0.71592  1.0000
  H   H231      1.0  0.24421  0.03185  0.75385  1.0000
  S   S64       1.0  0.12037  0.97810  0.71486  1.0000
  C   C149      1.0  0.19508  0.03635  0.67441  1.0000
  C   C150      1.0  0.11796  0.09261  0.75226  1.0000
  H   H232      1.0  0.11023  0.09204  0.93099  1.0000
  S   S65       1.0  0.18507  0.81403  0.68305  1.0000
  C   C151      1.0  0.23542  0.03880  0.72305  1.0000
  H   H233      1.0  0.15302  0.73284  0.88106  1.0000
  S   S66       1.0  0.10155  0.93155  0.63929  1.0000
  Fe  Fe31      1.0  0.08767  0.94116  0.70437  1.0000
  H   H234      1.0  0.23464  0.06441  0.72248  1.0000
  H   H235      1.0  0.10930  0.09072  0.78321  1.0000
  C   C152      1.0  0.16761  0.08939  0.09233  1.0000
  C   C153      1.0  0.13120  0.07980  0.93094  1.0000
  C   C154      1.0  0.13423  0.05165  0.95139  1.0000
  C   C155      1.0  0.16158  0.03638  0.95281  1.0000
  C   C156      1.0  0.18572  0.04873  0.93257  1.0000
  C   C157      1.0  0.18271  0.07684  0.91197  1.0000
  S   S67       1.0  0.29708  0.10590  0.84155  1.0000
  H   H236      1.0  0.11573  0.04225  0.96734  1.0000
  H   H237      1.0  0.20697  0.03703  0.93387  1.0000
  Fe  Fe32      1.0  0.13090  0.97155  0.64784  1.0000
  H   H238      1.0  0.20900  0.02689  0.64893  1.0000
  H   H239      1.0  0.25150  0.03088  0.69922  1.0000
  C   C158      1.0  0.11398  0.87752  0.73638  1.0000
  H   H240      1.0  0.12826  0.71153  0.84905  1.0000
  H   H241      1.0  0.13486  0.79689  0.85178  1.0000
  C   C159      1.0  0.11614  0.07921  0.67967  1.0000
  C   C160      1.0  0.20926  0.62513  0.68009  1.0000
  C   C161      1.0  0.13942  0.88950  0.71912  1.0000
  H   H242      1.0  0.15061  0.84148  0.99276  1.0000
  C   C162      1.0  0.09070  0.75906  0.83316  1.0000
  C   C163      1.0  0.11332  0.81177  0.99503  1.0000
  H   H243      1.0  0.17217  0.02872  0.66845  1.0000
  H   H244      1.0  0.14160  0.91399  0.71605  1.0000
  C   C164      1.0  0.15900  0.83803  0.70760  1.0000
  H   H245      1.0  0.13193  0.80146  0.72909  1.0000
  H   H246      1.0  0.18165  0.87928  0.69200  1.0000
  H   H247      1.0  0.18458  0.06254  0.74907  1.0000
  N   N14       1.0  0.20596  0.02607  0.71527  1.0000
  C   C165      1.0  0.18546  0.03709  0.74770  1.0000
  H   H248      1.0  0.10546  0.06784  0.65414  1.0000
  C   C166      1.0  0.11165  0.84575  0.74108  1.0000
  H   H249      1.0  0.22274  0.98302  0.69126  1.0000
  H   H250      1.0  0.16260  0.02932  0.74180  1.0000
  H   H251      1.0  0.19504  0.06178  0.67193  1.0000
  C   C167      1.0  0.10470  0.07698  0.71953  1.0000
  C   C168      1.0  0.13411  0.82596  0.72638  1.0000
  S   S68       1.0  0.10632  0.01816  0.06759  1.0000
  Fe  Fe33      1.0  0.10009  0.97228  0.09685  1.0000
  H   H252      1.0  0.11214  0.74036  0.93057  1.0000
  H   H253      1.0  0.18405  0.10835  0.99354  1.0000
  H   H254      1.0  0.09198  0.83647  0.75446  1.0000
  H   H255      1.0  0.11632  0.86699  0.62386  1.0000
  H   H256      1.0  0.18336  0.86788  0.61952  1.0000
  N   N15       1.0  0.11179  0.75605  0.86791  1.0000
  H   H257      1.0  0.08631  0.68303  0.63508  1.0000
  H   H258      1.0  0.15842  0.90033  0.61679  1.0000
  H   H259      1.0  0.13934  0.83327  0.62581  1.0000
  H   H260      1.0  0.10515  0.61566  0.65292  1.0000
  Fe  Fe34      1.0  0.08385  0.00924  0.69259  1.0000
  S   S69       1.0  0.08436  0.90227  0.74852  1.0000
  S   S70       1.0  0.08488  0.63820  0.94342  1.0000
  C   C169      1.0  0.13442  0.10207  0.03624  1.0000
  C   C170      1.0  0.09563  0.62208  0.62234  1.0000
  C   C171      1.0  0.18662  0.09627  0.02362  1.0000
  S   S71       1.0  0.08186  0.98579  0.98073  1.0000
  C   C172      1.0  0.08336  0.02084  0.84566  1.0000
  H   H261      1.0  0.20931  0.10037  0.03522  1.0000
  N   N16       1.0  0.16414  0.10691  0.05360  1.0000
  C   C173      1.0  0.18717  0.60910  0.03768  1.0000
  H   H262      1.0  0.18957  0.09312  0.10681  1.0000
  C   C174      1.0  0.39576  0.54582  0.34407  1.0000
  S   S72       1.0  0.55400  0.23580  0.51717  1.0000
  C   C175      1.0  0.51664  0.17068  0.42060  1.0000
  C   C176      1.0  0.50859  0.14828  0.39178  1.0000
  H   H263      1.0  0.41484  0.53001  0.33773  1.0000
  C   C177      1.0  0.50107  0.13773  0.47610  1.0000
  H   H264      1.0  0.51147  0.15234  0.35914  1.0000
  H   H265      1.0  0.49796  0.13403  0.50872  1.0000
  C   C178      1.0  0.36323  0.51552  0.30177  1.0000
  H   H266      1.0  0.35152  0.50702  0.32942  1.0000
  C   C179      1.0  0.51277  0.16540  0.46274  1.0000
  H   H267      1.0  0.51875  0.18273  0.48514  1.0000
  S   S73       1.0  0.53387  0.20408  0.40443  1.0000
  H   H268      1.0  0.38337  0.11024  0.47675  1.0000
  H   H269      1.0  0.56359  0.58962  0.33139  1.0000
  H   H270      1.0  0.56216  0.51392  0.30372  1.0000
  H   H271      1.0  0.38132  0.49875  0.29440  1.0000
  H   H272      1.0  0.49792  0.59755  0.24795  1.0000
  H   H273      1.0  0.54933  0.59161  0.22419  1.0000
  N   N17       1.0  0.37478  0.54656  0.30899  1.0000
  H   H274      1.0  0.51044  0.52022  0.32817  1.0000
  H   H275      1.0  0.39874  0.58022  0.27608  1.0000
  S   S74       1.0  0.57558  0.16656  0.59300  1.0000
  C   C180      1.0  0.35014  0.56815  0.31846  1.0000
  H   H276      1.0  0.56803  0.13428  0.33881  1.0000
  H   H277      1.0  0.57710  0.15584  0.38430  1.0000
  Fe  Fe35      1.0  0.56536  0.21605  0.45502  1.0000
  H   H278      1.0  0.54539  0.32013  0.13800  1.0000
  H   H279      1.0  0.56464  0.11220  0.54002  1.0000
  C   C181      1.0  0.51183  0.57935  0.26023  1.0000
  H   H280      1.0  0.57355  0.17499  0.33574  1.0000
  H   H281      1.0  0.37494  0.55804  0.24434  1.0000
  C   C182      1.0  0.57175  0.60661  0.35426  1.0000
  S   S75       1.0  0.46609  0.56714  0.31101  1.0000
  C   C183      1.0  0.54086  0.57587  0.24664  1.0000
  C   C184      1.0  0.50104  0.55975  0.29024  1.0000
  H   H282      1.0  0.38510  0.53822  0.37299  1.0000
  H   H283      1.0  0.34736  0.51539  0.27542  1.0000
  H   H284      1.0  0.40507  0.56889  0.35005  1.0000
  H   H285      1.0  0.33410  0.56947  0.29238  1.0000
  C   C185      1.0  0.39004  0.55686  0.27153  1.0000
  C   C186      1.0  0.55913  0.55261  0.26269  1.0000
  C   C187      1.0  0.54798  0.53183  0.29109  1.0000
  C   C188      1.0  0.51884  0.53550  0.30503  1.0000
  H   H286      1.0  0.33796  0.56124  0.34650  1.0000
  H   H287      1.0  0.35811  0.59187  0.32379  1.0000
  H   H288      1.0  0.55021  0.26360  0.14623  1.0000
  H   H289      1.0  0.56107  0.33765  0.39566  1.0000
  H   H290      1.0  0.39003  0.13686  0.40964  1.0000
  H   H291      1.0  0.57806  0.31066  0.43062  1.0000
  H   H292      1.0  0.42690  0.12116  0.40652  1.0000
  C   C189      1.0  0.40336  0.11659  0.39909  1.0000
  C   C190      1.0  0.56516  0.26342  0.11913  1.0000
  C   C191      1.0  0.57983  0.33410  0.41746  1.0000
  C   C192      1.0  0.49792  0.12009  0.40529  1.0000
  C   C193      1.0  0.49442  0.11466  0.44751  1.0000
  H   H293      1.0  0.40918  0.54156  0.26367  1.0000
  H   H294      1.0  0.40137  0.11510  0.36485  1.0000
  H   H295      1.0  0.51915  0.17525  0.10975  1.0000
  S   S76       1.0  0.57924  0.16190  0.13352  1.0000
  H   H296      1.0  0.57688  0.35055  0.44370  1.0000
  H   H297      1.0  0.52824  0.11729  0.59485  1.0000
  H   H298      1.0  0.52468  0.11676  0.12529  1.0000
  C   C194      1.0  0.55982  0.31829  0.11039  1.0000
  C   C195      1.0  0.58163  0.15341  0.35066  1.0000
  N   N18       1.0  0.41482  0.52243  0.76858  1.0000
  H   H299      1.0  0.55808  0.17567  0.82562  1.0000
  C   C196      1.0  0.55802  0.59227  0.97806  1.0000
  H   H300      1.0  0.51332  0.12291  0.73724  1.0000
  C   C197      1.0  0.56265  0.50367  0.73608  1.0000
  C   C198      1.0  0.35839  0.17192  0.90731  1.0000
  H   H301      1.0  0.38619  0.17964  0.76462  1.0000
  H   H302      1.0  0.40281  0.11749  0.83928  1.0000
  H   H303      1.0  0.39548  0.60202  0.87727  1.0000
  S   S77       1.0  0.45603  0.17613  0.99162  1.0000
  H   H304      1.0  0.38257  0.13140  0.92650  1.0000
  Fe  Fe36      1.0  0.47970  0.15807  0.87845  1.0000
  C   C199      1.0  0.39767  0.15906  0.75117  1.0000
  C   C200      1.0  0.36178  0.12537  0.78030  1.0000
  C   C201      1.0  0.52185  0.19718  0.05045  1.0000
  C   C202      1.0  0.54059  0.20722  0.01934  1.0000
  N   N19       1.0  0.55729  0.28810  0.08969  1.0000
  S   S78       1.0  0.45632  0.59274  0.83867  1.0000
  H   H305      1.0  0.53550  0.12090  0.99829  1.0000
  H   H306      1.0  0.49851  0.20248  0.04890  1.0000
  Fe  Fe37      1.0  0.48590  0.59930  0.78457  1.0000
  S   S79       1.0  0.52614  0.22814  0.97781  1.0000
  C   C203      1.0  0.49195  0.11419  0.79515  1.0000
  S   S80       1.0  0.46358  0.20482  0.89771  1.0000
  C   C204      1.0  0.38705  0.50822  0.78140  1.0000
  Fe  Fe38      1.0  0.49144  0.19723  0.95384  1.0000
  C   C205      1.0  0.57751  0.28639  0.05406  1.0000
  H   H307      1.0  0.42145  0.16457  0.74853  1.0000
  S   S81       1.0  0.44340  0.13298  0.90927  1.0000
  H   H308      1.0  0.52333  0.20515  0.86826  1.0000
  H   H309      1.0  0.43006  0.56713  0.75201  1.0000
  H   H310      1.0  0.52651  0.23757  0.83502  1.0000
  S   S82       1.0  0.49834  0.15092  0.81498  1.0000
  H   H311      1.0  0.39449  0.15768  0.83387  1.0000
  S   S83       1.0  0.51064  0.15266  0.93142  1.0000
  S   S84       1.0  0.38320  0.19794  0.92877  1.0000
  H   H312      1.0  0.43298  0.10930  0.75456  1.0000
  H   H313      1.0  0.45863  0.52819  0.79259  1.0000
  H   H314      1.0  0.34939  0.14516  0.79423  1.0000
  H   H315      1.0  0.55878  0.51776  0.83937  1.0000
  Fe  Fe39      1.0  0.47316  0.13180  0.96466  1.0000
  H   H316      1.0  0.38974  0.48295  0.78509  1.0000
  Fe  Fe40      1.0  0.42949  0.17942  0.93304  1.0000
  C   C206      1.0  0.57038  0.50273  0.77794  1.0000
  C   C207      1.0  0.57071  0.20034  0.02145  1.0000
  C   C208      1.0  0.53624  0.22609  0.86266  1.0000
  C   C209      1.0  0.36390  0.14024  0.90923  1.0000
  H   H317      1.0  0.53291  0.24168  0.88970  1.0000
  H   H318      1.0  0.52392  0.26174  0.05947  1.0000
  N   N20       1.0  0.56770  0.21816  0.85657  1.0000
  C   C210      1.0  0.34480  0.11987  0.88948  1.0000
  H   H319      1.0  0.55380  0.33744  0.08921  1.0000
  H   H320      1.0  0.44619  0.51856  0.71924  1.0000
  C   C211      1.0  0.56380  0.17583  0.08763  1.0000
  C   C212      1.0  0.57066  0.19697  0.82096  1.0000
  H   H321      1.0  0.57626  0.25777  0.81957  1.0000
  S   S85       1.0  0.50589  0.59940  0.93684  1.0000
  C   C213      1.0  0.36090  0.57106  0.86019  1.0000
  C   C214      1.0  0.33330  0.18313  0.88664  1.0000
  C   C215      1.0  0.42525  0.50818  0.72962  1.0000
  H   H322      1.0  0.57796  0.21877  0.92149  1.0000
  C   C216      1.0  0.55340  0.51912  0.80686  1.0000
  H   H323      1.0  0.56226  0.20773  0.79195  1.0000
  H   H324      1.0  0.42959  0.48311  0.73327  1.0000
  H   H325      1.0  0.39232  0.56019  0.73850  1.0000
  H   H326      1.0  0.54886  0.12529  0.86182  1.0000
  H   H327      1.0  0.57257  0.30489  0.03142  1.0000
  H   H328      1.0  0.35174  0.12062  0.74960  1.0000
  S   S86       1.0  0.49363  0.56361  0.73549  1.0000
  H   H329      1.0  0.53254  0.52259  0.69068  1.0000
  C   C217      1.0  0.43737  0.51771  0.80116  1.0000
  H   H330      1.0  0.43023  0.52827  0.83100  1.0000
  H   H331      1.0  0.51672  0.55039  0.81635  1.0000
  C   C218      1.0  0.53840  0.52168  0.72309  1.0000
  H   H332      1.0  0.40877  0.51132  0.70437  1.0000
  H   H333      1.0  0.40235  0.56723  0.79111  1.0000
  H   H334      1.0  0.36897  0.51254  0.75868  1.0000
  C   C219      1.0  0.40967  0.55568  0.76220  1.0000
  H   H335      1.0  0.36652  0.55458  0.88397  1.0000
  H   H336      1.0  0.44187  0.49288  0.80673  1.0000
  H   H337      1.0  0.37929  0.51764  0.81158  1.0000
  C   C220      1.0  0.52954  0.53753  0.79384  1.0000
  H   H338      1.0  0.52011  0.30226  0.05245  1.0000
  C   C221      1.0  0.52224  0.53907  0.75191  1.0000
  C   C222      1.0  0.53348  0.18161  0.08478  1.0000
  H   H339      1.0  0.38884  0.15551  0.71942  1.0000
  C   C223      1.0  0.56987  0.11548  0.87429  1.0000
  C   C224      1.0  0.40567  0.13759  0.81872  1.0000
  H   H340      1.0  0.56359  0.58686  0.69533  1.0000
  H   H341      1.0  0.42963  0.14245  0.81753  1.0000
  N   N21       1.0  0.39353  0.13171  0.77709  1.0000
  C   C225      1.0  0.33713  0.56567  0.83352  1.0000
  H   H342      1.0  0.54723  0.57446  0.99513  1.0000
  C   C226      1.0  0.37733  0.59781  0.85634  1.0000
  H   H343      1.0  0.57549  0.49075  0.71367  1.0000
  C   C227      1.0  0.57966  0.20322  0.89415  1.0000
  C   C228      1.0  0.54264  0.60815  0.94705  1.0000
  C   C229      1.0  0.52667  0.28427  0.07514  1.0000
  H   H344      1.0  0.51079  0.28541  0.10118  1.0000
  H   H345      1.0  0.57806  0.55565  0.66460  1.0000
  H   H346      1.0  0.56744  0.18219  0.90184  1.0000
  H   H347      1.0  0.56972  0.11864  0.90848  1.0000
  H   H348      1.0  0.57585  0.26404  0.03746  1.0000
  H   H349      1.0  0.57934  0.59426  0.64557  1.0000
  H   H350      1.0  0.56403  0.24038  0.10429  1.0000
  C   C230      1.0  0.58170  0.57996  0.67385  1.0000
  H   H351      1.0  0.52751  0.04160  0.17924  1.0000
  Fe  Fe41      1.0  0.39498  0.64467  0.25841  1.0000
  S   S87       1.0  0.41234  0.63609  0.32221  1.0000
  S   S88       1.0  0.54553  0.72731  0.54098  1.0000
  Fe  Fe42      1.0  0.45424  0.66474  0.22667  1.0000
  S   S89       1.0  0.47691  0.65628  0.28731  1.0000
  S   S90       1.0  0.47685  0.68368  0.17113  1.0000
  S   S91       1.0  0.58111  0.78698  0.50746  1.0000
  Fe  Fe43      1.0  0.43697  0.67978  0.31411  1.0000
  S   S92       1.0  0.44106  0.71404  0.36615  1.0000
  S   S93       1.0  0.55577  0.95544  0.13642  1.0000
  S   S94       1.0  0.41551  0.69091  0.25320  1.0000
  H   H352      1.0  0.40970  0.05871  0.36982  1.0000
  H   H353      1.0  0.57511  0.07496  0.51983  1.0000
  H   H354      1.0  0.55461  0.67052  0.29862  1.0000
  C   C231      1.0  0.47781  0.72041  0.38053  1.0000
  C   C232      1.0  0.48435  0.72864  0.42136  1.0000
  C   C233      1.0  0.51372  0.73148  0.43417  1.0000
  C   C234      1.0  0.53668  0.72616  0.40624  1.0000
  C   C235      1.0  0.53010  0.71987  0.36482  1.0000
  C   C236      1.0  0.50071  0.71697  0.35198  1.0000
  H   H355      1.0  0.46669  0.73174  0.44342  1.0000
  H   H356      1.0  0.51846  0.73721  0.46582  1.0000
  H   H357      1.0  0.54768  0.71715  0.34265  1.0000
  C   C237      1.0  0.56261  0.69817  0.14840  1.0000
  C   C238      1.0  0.51541  0.68141  0.17370  1.0000
  C   C239      1.0  0.52993  0.65993  0.19898  1.0000
  H   H358      1.0  0.49574  0.71248  0.31990  1.0000
  C   C240      1.0  0.36242  0.08267  0.40847  1.0000
  C   C241      1.0  0.53183  0.70075  0.14883  1.0000
  H   H359      1.0  0.51730  0.64468  0.21773  1.0000
  H   H360      1.0  0.35443  0.06142  0.42338  1.0000
  H   H361      1.0  0.36033  0.96486  0.27732  1.0000
  H   H362      1.0  0.34737  0.67480  0.30591  1.0000
  H   H363      1.0  0.35934  0.95954  0.22244  1.0000
  C   C242      1.0  0.34632  0.96819  0.24928  1.0000
  H   H364      1.0  0.52314  0.03171  0.58464  1.0000
  Fe  Fe44      1.0  0.45034  0.61357  0.28950  1.0000
  S   S95       1.0  0.43178  0.61957  0.22592  1.0000
  N   N22       1.0  0.39364  0.08808  0.41889  1.0000
  H   H365      1.0  0.53314  0.65299  0.33823  1.0000
  H   H366      1.0  0.57816  0.06097  0.17195  1.0000
  H   H367      1.0  0.56510  0.96728  0.45973  1.0000
  H   H368      1.0  0.33710  0.91489  0.28768  1.0000
  S   S96       1.0  0.57362  0.72649  0.42283  1.0000
  C   C243      1.0  0.56380  0.96658  0.56483  1.0000
  H   H369      1.0  0.52074  0.71802  0.13023  1.0000
  C   C244      1.0  0.55643  0.08888  0.53263  1.0000
  Fe  Fe45      1.0  0.55256  0.77583  0.56101  1.0000
  H   H370      1.0  0.39027  0.06951  0.48000  1.0000
  C   C245      1.0  0.55074  0.64858  0.31495  1.0000
  C   C246      1.0  0.33316  0.00304  0.39492  1.0000
  C   C247      1.0  0.53313  0.97710  0.20897  1.0000
  S   S97       1.0  0.49908  0.97047  0.34532  1.0000
  C   C248      1.0  0.53164  0.04422  0.55743  1.0000
  S   S98       1.0  0.51517  0.80873  0.57440  1.0000
  H   H371      1.0  0.47098  0.86831  0.44210  1.0000
  Fe  Fe46      1.0  0.50337  0.97207  0.41440  1.0000
  S   S99       1.0  0.51354  0.93033  0.45323  1.0000
  Fe  Fe47      1.0  0.52377  0.01466  0.34735  1.0000
  C   C249      1.0  0.56884  0.08009  0.15298  1.0000
  H   H372      1.0  0.51040  0.80043  0.39611  1.0000
  C   C250      1.0  0.51950  0.06123  0.16004  1.0000
  C   C251      1.0  0.48567  0.85404  0.42189  1.0000
  S   S100      1.0  0.53135  0.01391  0.41583  1.0000
  H   H373      1.0  0.54187  0.63227  0.29169  1.0000
  C   C252      1.0  0.38481  0.00028  0.34769  1.0000
  C   C253      1.0  0.56082  0.65742  0.19866  1.0000
  H   H374      1.0  0.43565  0.06555  0.41052  1.0000
  C   C254      1.0  0.53446  0.94201  0.49603  1.0000
  C   C255      1.0  0.52654  0.93333  0.53596  1.0000
  C   C256      1.0  0.54108  0.94581  0.57039  1.0000
  H   H375      1.0  0.49250  0.10270  0.38295  1.0000
  H   H376      1.0  0.53779  0.79776  0.43594  1.0000
  H   H377      1.0  0.57201  0.64038  0.21736  1.0000
  H   H378      1.0  0.50824  0.91821  0.54040  1.0000
  C   C257      1.0  0.51998  0.09413  0.58643  1.0000
  H   H379      1.0  0.35919  0.07978  0.37456  1.0000
  C   C258      1.0  0.41196  0.06200  0.40382  1.0000
  S   S101      1.0  0.48248  0.07907  0.46542  1.0000
  H   H380      1.0  0.36007  0.02651  0.30271  1.0000
  C   C259      1.0  0.53409  0.99325  0.24651  1.0000
  H   H381      1.0  0.57157  0.66207  0.39062  1.0000
  H   H382      1.0  0.50832  0.86450  0.49684  1.0000
  C   C260      1.0  0.55787  0.97559  0.18340  1.0000
  C   C261      1.0  0.35952  0.01538  0.33246  1.0000
  H   H383      1.0  0.51480  0.99443  0.26587  1.0000
  S   S102      1.0  0.41687  0.99901  0.31780  1.0000
  S   S103      1.0  0.48330  0.04469  0.35102  1.0000
  S   S104      1.0  0.56167  0.02690  0.30647  1.0000
  H   H384      1.0  0.40363  0.97466  0.39834  1.0000
  H   H385      1.0  0.47073  0.79819  0.44826  1.0000
  H   H386      1.0  0.51331  0.04682  0.53465  1.0000
  H   H387      1.0  0.53810  0.82923  0.40036  1.0000
  S   S105      1.0  0.46105  0.99858  0.42424  1.0000
  H   H388      1.0  0.53720  0.86591  0.45948  1.0000
  C   C262      1.0  0.38431  0.98671  0.38664  1.0000
  H   H389      1.0  0.51318  0.96566  0.19978  1.0000
  C   C263      1.0  0.55826  0.96136  0.49052  1.0000
  H   H390      1.0  0.49943  0.87033  0.40440  1.0000
  C   C264      1.0  0.52230  0.85011  0.47581  1.0000
  C   C265      1.0  0.48511  0.81153  0.46945  1.0000
  H   H391      1.0  0.49913  0.05383  0.14384  1.0000
  H   H392      1.0  0.35829  0.97798  0.44067  1.0000
  C   C266      1.0  0.35860  0.98841  0.41042  1.0000
  H   H393      1.0  0.51329  0.08038  0.18140  1.0000
  N   N23       1.0  0.50415  0.83246  0.44639  1.0000
  N   N24       1.0  0.54378  0.07423  0.56939  1.0000
  H   H394      1.0  0.50179  0.09742  0.56360  1.0000
  H   H395      1.0  0.49845  0.79465  0.48771  1.0000
  C   C267      1.0  0.52348  0.81424  0.41846  1.0000
  N   N25       1.0  0.54215  0.07063  0.13031  1.0000
  S   S106      1.0  0.34979  0.62868  0.24119  1.0000
  H   H396      1.0  0.47160  0.84169  0.39926  1.0000
  H   H397      1.0  0.53603  0.83473  0.49558  1.0000
  Fe  Fe48      1.0  0.48869  0.04039  0.41953  1.0000
  H   H398      1.0  0.40580  0.04022  0.41890  1.0000
  H   H399      1.0  0.47073  0.82436  0.49166  1.0000
  H   H400      1.0  0.49532  0.86809  0.60278  1.0000
  H   H401      1.0  0.34785  0.10203  0.41890  1.0000
  C   C268      1.0  0.55980  0.00796  0.25862  1.0000
  Fe  Fe49      1.0  0.45888  0.00067  0.35511  1.0000
  H   H402      1.0  0.53422  0.93980  0.60105  1.0000
  H   H403      1.0  0.54876  0.02922  0.54288  1.0000
  Fe  Fe50      1.0  0.57751  0.73753  0.49054  1.0000
  H   H404      1.0  0.53974  0.09145  0.50756  1.0000
  C   C269      1.0  0.57711  0.67622  0.17287  1.0000
  C   C270      1.0  0.57310  0.97336  0.52484  1.0000
  H   H405      1.0  0.57508  0.71346  0.12941  1.0000
  N   N26       1.0  0.57795  0.63624  0.33445  1.0000
  H   H406      1.0  0.34274  0.99334  0.24514  1.0000
  H   H407      1.0  0.33635  0.90880  0.23272  1.0000
  H   H408      1.0  0.56396  0.09987  0.17399  1.0000
  C   C271      1.0  0.39701  0.09086  0.46419  1.0000
  H   H409      1.0  0.56912  0.85613  0.58334  1.0000
  H   H410      1.0  0.55797  0.02426  0.12047  1.0000
  C   C272      1.0  0.56705  0.06966  0.60099  1.0000
  S   S107      1.0  0.58011  0.98566  0.60686  1.0000
  C   C273      1.0  0.33365  0.01661  0.35594  1.0000
  H   H411      1.0  0.42035  0.09497  0.47305  1.0000
  H   H412      1.0  0.55452  0.60929  0.37843  1.0000
  H   H413      1.0  0.52644  0.65022  0.73817  1.0000
  Fe  Fe51      1.0  0.43957  0.64028  0.82459  1.0000
  S   S108      1.0  0.39136  0.65179  0.81852  1.0000
  Fe  Fe52      1.0  0.50073  0.66397  0.80948  1.0000
  H   H414      1.0  0.56406  0.90766  0.83357  1.0000
  S   S109      1.0  0.52816  0.70362  0.79116  1.0000
  H   H415      1.0  0.55402  0.81910  0.71497  1.0000
  C   C274      1.0  0.50149  0.10643  0.75532  1.0000
  S   S110      1.0  0.46639  0.64495  0.76725  1.0000
  S   S111      1.0  0.47207  0.66403  0.86569  1.0000
  H   H416      1.0  0.51075  0.09034  0.08735  1.0000
  N   N27       1.0  0.57353  0.08277  0.86293  1.0000
  H   H417      1.0  0.50849  0.72993  0.01446  1.0000
  C   C275      1.0  0.52286  0.65497  0.03725  1.0000
  C   C276      1.0  0.54013  0.09652  0.99613  1.0000
  C   C277      1.0  0.54603  0.69464  0.74472  1.0000
  C   C278      1.0  0.47690  0.09276  0.81849  1.0000
  H   H418      1.0  0.54238  0.94514  0.88327  1.0000
  H   H419      1.0  0.54465  0.64388  0.90145  1.0000
  C   C279      1.0  0.57069  0.68252  0.66694  1.0000
  N   N28       1.0  0.50422  0.68125  0.02358  1.0000
  C   C280      1.0  0.49547  0.07742  0.73867  1.0000
  C   C281      1.0  0.57825  0.82949  0.02715  1.0000
  H   H420      1.0  0.34917  0.09538  0.89088  1.0000
  C   C282      1.0  0.52183  0.70941  0.02388  1.0000
  C   C283      1.0  0.47900  0.68523  0.05194  1.0000
  H   H421      1.0  0.54256  0.65193  0.01723  1.0000
  H   H422      1.0  0.55737  0.00907  0.99484  1.0000
  C   C284      1.0  0.55658  0.63119  0.92501  1.0000
  C   C285      1.0  0.44797  0.75607  0.71695  1.0000
  C   C286      1.0  0.56442  0.71602  0.72656  1.0000
  C   C287      1.0  0.49989  0.76595  0.72191  1.0000
  H   H423      1.0  0.50514  0.71371  0.67774  1.0000
  H   H424      1.0  0.49726  0.76144  0.63868  1.0000
  S   S112      1.0  0.57228  0.76694  0.02569  1.0000
  C   C288      1.0  0.55270  0.66095  0.68544  1.0000
  H   H425      1.0  0.42997  0.74530  0.69888  1.0000
  C   C289      1.0  0.54053  0.66691  0.72438  1.0000
  H   H426      1.0  0.46434  0.70478  0.04259  1.0000
  H   H427      1.0  0.54765  0.63991  0.66927  1.0000
  C   C290      1.0  0.49323  0.67536  0.98127  1.0000
  H   H428      1.0  0.55056  0.04061  0.87089  1.0000
  H   H429      1.0  0.54082  0.70744  0.00232  1.0000
  H   H430      1.0  0.48650  0.68994  0.08407  1.0000
  H   H431      1.0  0.53002  0.03689  0.08493  1.0000
  Fe  Fe53      1.0  0.56018  0.97786  0.66932  1.0000
  C   C291      1.0  0.48341  0.71810  0.69272  1.0000
  H   H432      1.0  0.55831  0.05841  0.62906  1.0000
  C   C292      1.0  0.56510  0.95209  0.89166  1.0000
  N   N29       1.0  0.47681  0.75136  0.69665  1.0000
  H   H433      1.0  0.54675  0.06744  0.91294  1.0000
  H   H434      1.0  0.52204  0.76237  0.70802  1.0000
  H   H435      1.0  0.55920  0.83016  0.04713  1.0000
  H   H436      1.0  0.46548  0.66424  0.05298  1.0000
  H   H437      1.0  0.48423  0.70687  0.72351  1.0000
  H   H438      1.0  0.50263  0.07147  0.70777  1.0000
  C   C293      1.0  0.34659  0.61360  0.79877  1.0000
  H   H439      1.0  0.47996  0.65416  0.97982  1.0000
  H   H440      1.0  0.50094  0.75624  0.75362  1.0000
  H   H441      1.0  0.55467  0.08994  0.80260  1.0000
  H   H442      1.0  0.54517  0.79094  0.64961  1.0000
  H   H443      1.0  0.47027  0.09811  0.84958  1.0000
  S   S113      1.0  0.47018  0.02105  0.74024  1.0000
  Fe  Fe54      1.0  0.53957  0.93040  0.72976  1.0000
  H   H444      1.0  0.44801  0.74574  0.74838  1.0000
  C   C294      1.0  0.37018  0.61908  0.82552  1.0000
  C   C295      1.0  0.54837  0.06546  0.87878  1.0000
  C   C296      1.0  0.57673  0.70997  0.68764  1.0000
  H   H445      1.0  0.56901  0.73733  0.74246  1.0000
  C   C297      1.0  0.47600  0.76528  0.65513  1.0000
  S   S114      1.0  0.48046  0.08859  0.00084  1.0000
  S   S115      1.0  0.55376  0.01691  0.71425  1.0000
  H   H446      1.0  0.49589  0.79116  0.72510  1.0000
  S   S116      1.0  0.51602  0.95758  0.68052  1.0000
  Fe  Fe55      1.0  0.51167  0.99381  0.72956  1.0000
  C   C298      1.0  0.54125  0.82981  0.69047  1.0000
  H   H447      1.0  0.47192  0.79056  0.65683  1.0000
  C   C299      1.0  0.55271  0.03343  0.99542  1.0000
  H   H448      1.0  0.47912  0.69473  0.96986  1.0000
  C   C300      1.0  0.52992  0.85965  0.69572  1.0000
  C   C301      1.0  0.53069  0.09666  0.10547  1.0000
  C   C302      1.0  0.51713  0.07569  0.99789  1.0000
  C   C303      1.0  0.52348  0.04416  0.99782  1.0000
  H   H449      1.0  0.55594  0.89230  0.90656  1.0000
  H   H450      1.0  0.46648  0.70627  0.67387  1.0000
  H   H451      1.0  0.56686  0.05061  0.08017  1.0000
  C   C304      1.0  0.56938  0.08580  0.99342  1.0000
  H   H452      1.0  0.50573  0.02801  0.99934  1.0000
  H   H453      1.0  0.34188  0.62945  0.77407  1.0000
  H   H454      1.0  0.50353  0.89588  0.66854  1.0000
  S   S117      1.0  0.53106  0.96477  0.78018  1.0000
  C   C305      1.0  0.47942  0.05647  0.76159  1.0000
  C   C306      1.0  0.47028  0.06408  0.80156  1.0000
  C   C307      1.0  0.51317  0.87329  0.66418  1.0000
  H   H455      1.0  0.45844  0.75532  0.63542  1.0000
  H   H456      1.0  0.52714  0.07412  0.86558  1.0000
  H   H457      1.0  0.51170  0.67211  0.95910  1.0000
  H   H458      1.0  0.45821  0.04770  0.81950  1.0000
  S   S118      1.0  0.52283  0.61861  0.82192  1.0000
  C   C308      1.0  0.53658  0.81403  0.65327  1.0000
  S   S119      1.0  0.53761  0.87983  0.74126  1.0000
  H   H459      1.0  0.44237  0.78096  0.72052  1.0000
  H   H460      1.0  0.51059  0.63311  0.03596  1.0000
  H   H461      1.0  0.53100  0.71434  0.05512  1.0000
  H   H462      1.0  0.40001  0.09920  0.72740  1.0000
  Fe  Fe56      1.0  0.49137  0.61673  0.87484  1.0000
  C   C309      1.0  0.54962  0.04448  0.10276  1.0000
  H   H463      1.0  0.53076  0.65827  0.06960  1.0000
  C   C310      1.0  0.50822  0.85736  0.62714  1.0000
  H   H464      1.0  0.40730  0.08412  0.77800  1.0000
  C   C311      1.0  0.57566  0.05423  0.99319  1.0000
  C   C312      1.0  0.52029  0.82789  0.62147  1.0000
  H   H465      1.0  0.54742  0.10461  0.08314  1.0000
  Fe  Fe57      1.0  0.57370  0.98460  0.76070  1.0000
  H   H466      1.0  0.57076  0.97169  0.87152  1.0000
  H   H467      1.0  0.57464  0.89049  0.64427  1.0000
  H   H468      1.0  0.57608  0.05520  0.80775  1.0000
  C   C313      1.0  0.57468  0.07970  0.81746  1.0000
  H   H469      1.0  0.56472  0.96078  0.92409  1.0000
  C   C314      1.0  0.57827  0.90085  0.91409  1.0000
  H   H470      1.0  0.35784  0.10510  0.80020  1.0000
  H   H471      1.0  0.57830  0.90815  0.94713  1.0000
  C   C315      1.0  0.40909  0.10493  0.75840  1.0000
  H   H472      1.0  0.57660  0.09193  0.61071  1.0000
  H   H473      1.0  0.51037  0.08399  0.61468  1.0000
  S   S120      1.0  0.60418  0.24572  0.44506  1.0000
  H   H474      1.0  0.81096  0.52283  0.17116  1.0000
  S   S121      1.0  0.62518  0.22732  0.53944  1.0000
  S   S122      1.0  0.67842  0.18954  0.27278  1.0000
  H   H475      1.0  0.76569  0.17242  0.38399  1.0000
  H   H476      1.0  0.61264  0.16574  0.28121  1.0000
  Fe  Fe58      1.0  0.63031  0.20819  0.47571  1.0000
  S   S123      1.0  0.67451  0.19401  0.45118  1.0000
  H   H477      1.0  0.59187  0.59636  0.36888  1.0000
  H   H478      1.0  0.63085  0.40319  0.19093  1.0000
  C   C316      1.0  0.63003  0.37886  0.19693  1.0000
  H   H479      1.0  0.79526  0.55312  0.20274  1.0000
  C   C317      1.0  0.70353  0.11132  0.41063  1.0000
  H   H480      1.0  0.77707  0.48541  0.20103  1.0000
  H   H481      1.0  0.61753  0.32860  0.27430  1.0000
  S   S124      1.0  0.69283  0.23221  0.16644  1.0000
  H   H482      1.0  0.71462  0.15867  0.40195  1.0000
  S   S125      1.0  0.59226  0.17673  0.47960  1.0000
  H   H483      1.0  0.62638  0.17776  0.39249  1.0000
  H   H484      1.0  0.64496  0.16515  0.57059  1.0000
  H   H485      1.0  0.59379  0.31779  0.33992  1.0000
  H   H486      1.0  0.65434  0.17026  0.35471  1.0000
  Fe  Fe59      1.0  0.62051  0.18842  0.14445  1.0000
  C   C318      1.0  0.71796  0.50733  0.14084  1.0000
  C   C319      1.0  0.70612  0.16121  0.26977  1.0000
  C   C320      1.0  0.72555  0.16047  0.23635  1.0000
  Fe  Fe60      1.0  0.59543  0.26261  0.50960  1.0000
  H   H487      1.0  0.61686  0.28095  0.59220  1.0000
  C   C321      1.0  0.63531  0.35784  0.16476  1.0000
  C   C322      1.0  0.70821  0.13862  0.30009  1.0000
  H   H488      1.0  0.75099  0.58688  0.38764  1.0000
  S   S126      1.0  0.59671  0.55354  0.25176  1.0000
  C   C323      1.0  0.62828  0.31568  0.21177  1.0000
  C   C324      1.0  0.61179  0.31520  0.36320  1.0000
  C   C325      1.0  0.67867  0.15432  0.44426  1.0000
  H   H489      1.0  0.60494  0.12546  0.28463  1.0000
  C   C326      1.0  0.62248  0.33677  0.24384  1.0000
  C   C327      1.0  0.62364  0.36837  0.23653  1.0000
  C   C328      1.0  0.63475  0.32628  0.17223  1.0000
  C   C329      1.0  0.74746  0.13739  0.23372  1.0000
  H   H490      1.0  0.83056  0.54007  0.28063  1.0000
  Fe  Fe61      1.0  0.66689  0.20185  0.20783  1.0000
  S   S127      1.0  0.66240  0.16380  0.16138  1.0000
  H   H491      1.0  0.64363  0.14253  0.48530  1.0000
  H   H492      1.0  0.67373  0.58808  0.11541  1.0000
  H   H493      1.0  0.58802  0.26590  0.13106  1.0000
  H   H494      1.0  0.69318  0.13897  0.32580  1.0000
  Fe  Fe62      1.0  0.58457  0.19878  0.54111  1.0000
  S   S128      1.0  0.75860  0.58837  0.59189  1.0000
  H   H495      1.0  0.64602  0.57849  0.20157  1.0000
  C   C330      1.0  0.67842  0.55206  0.57125  1.0000
  H   H496      1.0  0.81434  0.12275  0.40098  1.0000
  S   S129      1.0  0.64101  0.30067  0.13115  1.0000
  H   H497      1.0  0.69322  0.49354  0.40179  1.0000
  C   C331      1.0  0.70049  0.14294  0.41772  1.0000
  S   S130      1.0  0.61764  0.39478  0.27691  1.0000
  Fe  Fe63      1.0  0.63395  0.44056  0.25626  1.0000
  H   H498      1.0  0.80555  0.51299  0.30229  1.0000
  C   C332      1.0  0.63022  0.17394  0.35893  1.0000
  H   H499      1.0  0.81147  0.16089  0.42235  1.0000
  C   C333      1.0  0.77435  0.15768  0.35843  1.0000
  H   H500      1.0  0.60594  0.54186  0.11452  1.0000
  C   C334      1.0  0.61065  0.55361  0.14436  1.0000
  S   S131      1.0  0.62293  0.22401  0.19453  1.0000
  N   N30       1.0  0.80681  0.15844  0.35620  1.0000
  C   C335      1.0  0.67866  0.52723  0.59850  1.0000
  S   S132      1.0  0.67944  0.44343  0.22954  1.0000
  H   H501      1.0  0.62777  0.29132  0.21764  1.0000
  H   H502      1.0  0.72393  0.17788  0.21274  1.0000
  H   H503      1.0  0.80687  0.19927  0.31939  1.0000
  C   C336      1.0  0.61709  0.35754  0.57276  1.0000
  Fe  Fe64      1.0  0.64836  0.25156  0.14912  1.0000
  C   C337      1.0  0.74931  0.11462  0.26389  1.0000
  C   C338      1.0  0.61271  0.32614  0.56602  1.0000
  C   C339      1.0  0.63582  0.59477  0.17916  1.0000
  H   H504      1.0  0.64026  0.36611  0.13418  1.0000
  C   C340      1.0  0.66008  0.13398  0.46412  1.0000
  C   C341      1.0  0.61831  0.14418  0.29806  1.0000
  H   H505      1.0  0.64703  0.11467  0.35983  1.0000
  H   H506      1.0  0.65455  0.33676  0.41291  1.0000
  H   H507      1.0  0.60726  0.38721  0.40397  1.0000
  C   C342      1.0  0.65858  0.56884  0.12114  1.0000
  H   H508      1.0  0.77527  0.48057  0.25598  1.0000
  H   H509      1.0  0.61909  0.12111  0.39804  1.0000
  H   H510      1.0  0.61094  0.37391  0.54912  1.0000
  H   H511      1.0  0.83166  0.47582  0.20439  1.0000
  H   H512      1.0  0.82897  0.47115  0.25938  1.0000
  C   C343      1.0  0.74302  0.52474  0.13420  1.0000
  H   H513      1.0  0.59184  0.37340  0.35627  1.0000
  H   H514      1.0  0.76276  0.13702  0.20820  1.0000
  H   H515      1.0  0.73269  0.48093  0.50174  1.0000
  H   H516      1.0  0.62412  0.19562  0.34269  1.0000
  C   C344      1.0  0.81720  0.13859  0.32183  1.0000
  H   H517      1.0  0.76391  0.16592  0.32921  1.0000
  N   N31       1.0  0.70159  0.50696  0.46491  1.0000
  H   H518      1.0  0.80850  0.20593  0.37426  1.0000
  H   H519      1.0  0.71310  0.55208  0.44535  1.0000
  S   S133      1.0  0.64882  0.50241  0.59987  1.0000
  N   N32       1.0  0.61332  0.14772  0.34293  1.0000
  H   H520      1.0  0.62076  0.53605  0.16512  1.0000
  H   H521      1.0  0.68627  0.55159  0.48531  1.0000
  H   H522      1.0  0.70292  0.59011  0.54768  1.0000
  C   C345      1.0  0.71084  0.49193  0.42584  1.0000
  H   H523      1.0  0.73063  0.50290  0.41277  1.0000
  H   H524      1.0  0.67602  0.54186  0.43334  1.0000
  C   C346      1.0  0.62055  0.30511  0.59684  1.0000
  H   H525      1.0  0.65681  0.49224  0.45956  1.0000
  S   S134      1.0  0.66632  0.51718  0.22477  1.0000
  Fe  Fe65      1.0  0.68307  0.48411  0.27180  1.0000
  S   S135      1.0  0.76438  0.58811  0.47256  1.0000
  C   C347      1.0  0.81968  0.14724  0.39549  1.0000
  C   C348      1.0  0.60967  0.36930  0.37950  1.0000
  H   H526      1.0  0.68077  0.46679  0.48845  1.0000
  C   C349      1.0  0.70292  0.57114  0.56905  1.0000
  C   C350      1.0  0.69384  0.53949  0.45690  1.0000
  H   H527      1.0  0.71638  0.46719  0.43032  1.0000
  H   H528      1.0  0.64184  0.13860  0.29135  1.0000
  S   S136      1.0  0.61216  0.47006  0.20764  1.0000
  H   H529      1.0  0.58931  0.56099  0.15847  1.0000
  H   H530      1.0  0.67216  0.13916  0.54912  1.0000
  H   H531      1.0  0.66808  0.50220  0.51106  1.0000
  N   N33       1.0  0.80792  0.51223  0.23592  1.0000
  C   C351      1.0  0.81215  0.53422  0.20203  1.0000
  Fe  Fe66      1.0  0.68375  0.19643  0.11819  1.0000
  C   C352      1.0  0.72606  0.50515  0.49520  1.0000
  C   C353      1.0  0.71682  0.53285  0.32985  1.0000
  C   C354      1.0  0.68829  0.54570  0.32984  1.0000
  C   C355      1.0  0.68223  0.57297  0.35160  1.0000
  C   C356      1.0  0.70475  0.58747  0.37323  1.0000
  C   C357      1.0  0.73350  0.57542  0.37161  1.0000
  C   C358      1.0  0.73954  0.54802  0.35018  1.0000
  H   H532      1.0  0.67065  0.53435  0.31392  1.0000
  H   H533      1.0  0.65994  0.58219  0.35274  1.0000
  C   C359      1.0  0.61619  0.60234  0.11061  1.0000
  H   H534      1.0  0.76168  0.53835  0.35009  1.0000
  H   H535      1.0  0.68310  0.17531  0.57026  1.0000
  H   H536      1.0  0.63308  0.31774  0.34676  1.0000
  C   C360      1.0  0.80901  0.52876  0.27594  1.0000
  H   H537      1.0  0.71977  0.51598  0.52520  1.0000
  H   H538      1.0  0.65939  0.55643  0.55177  1.0000
  C   C361      1.0  0.77899  0.49764  0.23120  1.0000
  C   C362      1.0  0.62303  0.11934  0.36422  1.0000
  H   H539      1.0  0.74583  0.51721  0.48396  1.0000
  C   C363      1.0  0.67567  0.49134  0.48162  1.0000
  C   C364      1.0  0.72732  0.56573  0.59482  1.0000
  H   H540      1.0  0.63043  0.35010  0.45358  1.0000
  H   H541      1.0  0.76057  0.51488  0.23311  1.0000
  S   S137      1.0  0.72371  0.49698  0.30683  1.0000
  H   H542      1.0  0.75700  0.53067  0.15982  1.0000
  C   C365      1.0  0.66786  0.15591  0.57455  1.0000
  H   H543      1.0  0.63245  0.31020  0.44074  1.0000
  S   S138      1.0  0.66614  0.48155  0.11688  1.0000
  S   S139      1.0  0.63920  0.47904  0.30217  1.0000
  H   H544      1.0  0.71323  0.49918  0.17145  1.0000
  Fe  Fe67      1.0  0.65813  0.47638  0.18489  1.0000
  Fe  Fe68      1.0  0.62187  0.50886  0.25088  1.0000
  H   H545      1.0  0.79160  0.54713  0.27775  1.0000
  H   H546      1.0  0.80666  0.14518  0.29196  1.0000
  H   H547      1.0  0.61121  0.29133  0.37515  1.0000
  H   H548      1.0  0.61497  0.60367  0.19318  1.0000
  C   C366      1.0  0.63260  0.33364  0.42722  1.0000
  H   H549      1.0  0.67009  0.55256  0.14241  1.0000
  C   C367      1.0  0.72945  0.11505  0.29670  1.0000
  C   C368      1.0  0.81607  0.19026  0.34899  1.0000
  H   H550      1.0  0.63089  0.37305  0.36334  1.0000
  H   H551      1.0  0.76669  0.13396  0.36372  1.0000
  N   N34       1.0  0.60847  0.33806  0.39686  1.0000
  N   N35       1.0  0.63031  0.57987  0.13881  1.0000
  C   C369      1.0  0.83155  0.48836  0.23451  1.0000
  S   S140      1.0  0.59758  0.31380  0.51874  1.0000
  H   H552      1.0  0.81198  0.11406  0.32722  1.0000
  H   H553      1.0  0.58274  0.32221  0.12113  1.0000
  H   H554      1.0  0.70529  0.10919  0.59435  1.0000
  H   H555      1.0  0.59616  0.55283  0.86009  1.0000
  C   C370      1.0  0.64900  0.15067  0.99731  1.0000
  C   C371      1.0  0.80563  0.15479  0.88698  1.0000
  C   C372      1.0  0.70778  0.31018  0.72234  1.0000
  H   H556      1.0  0.80721  0.48880  0.77925  1.0000
  N   N36       1.0  0.79864  0.21581  0.99099  1.0000
  H   H557      1.0  0.66146  0.55773  0.85402  1.0000
  S   S141      1.0  0.71556  0.18116  0.06899  1.0000
  H   H558      1.0  0.71881  0.25159  0.74479  1.0000
  Fe  Fe69      1.0  0.65201  0.19497  0.78454  1.0000
  H   H559      1.0  0.65350  0.29206  0.78939  1.0000
  S   S142      1.0  0.62236  0.23004  0.75463  1.0000
  Fe  Fe70      1.0  0.65553  0.41045  0.69494  1.0000
  S   S143      1.0  0.69474  0.18214  0.75468  1.0000
  H   H560      1.0  0.71210  0.32515  0.80268  1.0000
  S   S144      1.0  0.67162  0.20383  0.84664  1.0000
  S   S145      1.0  0.64004  0.14662  0.79816  1.0000
  C   C373      1.0  0.74993  0.53463  0.09454  1.0000
  H   H561      1.0  0.63441  0.56742  0.74711  1.0000
  C   C374      1.0  0.69581  0.26045  0.74903  1.0000
  H   H562      1.0  0.70734  0.33549  0.72770  1.0000
  C   C375      1.0  0.78443  0.19581  0.84512  1.0000
  C   C376      1.0  0.81247  0.20801  0.84063  1.0000
  H   H563      1.0  0.59166  0.56123  0.91393  1.0000
  C   C377      1.0  0.58744  0.59908  0.98662  1.0000
  H   H564      1.0  0.81972  0.17252  0.97554  1.0000
  H   H565      1.0  0.60330  0.19642  0.89052  1.0000
  C   C378      1.0  0.60579  0.21329  0.71122  1.0000
  H   H566      1.0  0.61037  0.54012  0.72406  1.0000
  H   H567      1.0  0.82212  0.24920  0.02669  1.0000
  Fe  Fe71      1.0  0.68464  0.13437  0.77346  1.0000
  H   H568      1.0  0.81674  0.51753  0.84356  1.0000
  C   C379      1.0  0.58216  0.18427  0.05536  1.0000
  S   S146      1.0  0.63982  0.14063  0.91500  1.0000
  C   C380      1.0  0.69479  0.16922  0.02624  1.0000
  C   C381      1.0  0.66579  0.15986  0.03150  1.0000
  C   C382      1.0  0.78108  0.16895  0.86792  1.0000
  H   H569      1.0  0.58523  0.20727  0.99701  1.0000
  C   C383      1.0  0.69031  0.16003  0.95252  1.0000
  C   C384      1.0  0.70719  0.16879  0.98683  1.0000
  H   H570      1.0  0.61610  0.58360  0.88366  1.0000
  H   H571      1.0  0.65527  0.55641  0.09138  1.0000
  H   H572      1.0  0.68561  0.18232  0.64703  1.0000
  H   H573      1.0  0.72962  0.17564  0.98268  1.0000
  H   H574      1.0  0.65637  0.15937  0.06202  1.0000
  C   C385      1.0  0.71212  0.30014  0.79542  1.0000
  H   H575      1.0  0.68286  0.25470  0.72081  1.0000
  H   H576      1.0  0.68621  0.24759  0.77507  1.0000
  H   H577      1.0  0.70300  0.28803  0.82254  1.0000
  H   H578      1.0  0.73548  0.29213  0.79217  1.0000
  S   S147      1.0  0.65271  0.35917  0.68785  1.0000
  C   C386      1.0  0.65224  0.53520  0.86245  1.0000
  S   S148      1.0  0.64137  0.21845  0.09745  1.0000
  H   H579      1.0  0.79576  0.54956  0.82356  1.0000
  H   H580      1.0  0.69990  0.16021  0.92205  1.0000
  S   S149      1.0  0.75373  0.21564  0.82445  1.0000
  H   H581      1.0  0.65046  0.29963  0.73525  1.0000
  H   H582      1.0  0.60089  0.28867  0.06406  1.0000
  C   C387      1.0  0.72705  0.54153  0.62294  1.0000
  C   C388      1.0  0.66118  0.15102  0.95778  1.0000
  S   S150      1.0  0.70753  0.13707  0.83492  1.0000
  S   S151      1.0  0.83115  0.58648  0.00211  1.0000
  H   H583      1.0  0.63860  0.49093  0.91544  1.0000
  H   H584      1.0  0.78718  0.52068  0.75742  1.0000
  N   N37       1.0  0.69494  0.29378  0.75753  1.0000
  Fe  Fe72      1.0  0.66348  0.15410  0.85787  1.0000
  C   C389      1.0  0.80716  0.24780  0.99942  1.0000
  H   H585      1.0  0.69511  0.30608  0.69333  1.0000
  H   H586      1.0  0.73105  0.30282  0.71686  1.0000
  C   C390      1.0  0.66401  0.30416  0.76336  1.0000
  Fe  Fe73      1.0  0.71377  0.18661  0.81831  1.0000
  H   H587      1.0  0.63130  0.54855  0.65560  1.0000
  H   H588      1.0  0.66239  0.32933  0.76949  1.0000
  H   H589      1.0  0.75950  0.15966  0.87219  1.0000
  S   S152      1.0  0.66536  0.42902  0.75819  1.0000
  H   H590      1.0  0.67115  0.51920  0.86890  1.0000
  C   C391      1.0  0.70185  0.12746  0.61815  1.0000
  C   C392      1.0  0.58984  0.21668  0.63978  1.0000
  H   H591      1.0  0.62653  0.14356  0.00141  1.0000
  H   H592      1.0  0.64660  0.17723  0.64533  1.0000
  C   C393      1.0  0.82532  0.19677  0.98273  1.0000
  H   H593      1.0  0.80284  0.13439  0.90532  1.0000
  N   N38       1.0  0.82949  0.53195  0.78283  1.0000
  S   S153      1.0  0.80282  0.59333  0.90886  1.0000
  H   H594      1.0  0.65655  0.57520  0.67757  1.0000
  H   H595      1.0  0.60808  0.24112  0.84426  1.0000
  C   C394      1.0  0.60029  0.23079  0.67588  1.0000
  H   H596      1.0  0.61169  0.59198  0.07989  1.0000
  H   H597      1.0  0.64049  0.52599  0.83492  1.0000
  H   H598      1.0  0.76264  0.21721  0.03403  1.0000
  H   H599      1.0  0.66828  0.53442  0.94227  1.0000
  S   S154      1.0  0.69023  0.43793  0.66389  1.0000
  H   H600      1.0  0.63886  0.29908  0.65785  1.0000
  H   H601      1.0  0.60530  0.17844  0.05659  1.0000
  H   H602      1.0  0.58831  0.12915  0.86221  1.0000
  C   C395      1.0  0.78311  0.20360  0.02717  1.0000
  C   C396      1.0  0.60807  0.55995  0.88857  1.0000
  C   C397      1.0  0.69912  0.50056  0.10791  1.0000
  H   H603      1.0  0.65887  0.57291  0.92759  1.0000
  C   C398      1.0  0.70289  0.52218  0.62455  1.0000
  H   H604      1.0  0.60257  0.16855  0.73842  1.0000
  H   H605      1.0  0.63331  0.58651  0.63498  1.0000
  C   C399      1.0  0.59936  0.18202  0.71103  1.0000
  S   S155      1.0  0.74057  0.46908  0.75549  1.0000
  N   N39       1.0  0.61097  0.58358  0.69330  1.0000
  H   H606      1.0  0.70582  0.11672  0.64885  1.0000
  C   C400      1.0  0.63726  0.34683  0.64086  1.0000
  S   S156      1.0  0.66292  0.49726  0.71631  1.0000
  H   H607      1.0  0.79713  0.20396  0.05543  1.0000
  C   C401      1.0  0.62935  0.36789  0.61013  1.0000
  H   H608      1.0  0.60769  0.49852  0.88210  1.0000
  Fe  Fe74      1.0  0.78786  0.56719  0.02052  1.0000
  H   H609      1.0  0.66898  0.15419  0.67938  1.0000
  Fe  Fe75      1.0  0.63098  0.46487  0.74343  1.0000
  Fe  Fe76      1.0  0.76175  0.57348  0.93443  1.0000
  S   S157      1.0  0.72279  0.57191  0.89161  1.0000
  H   H610      1.0  0.59404  0.19035  0.81565  1.0000
  S   S158      1.0  0.78486  0.53453  0.96703  1.0000
  H   H611      1.0  0.60582  0.50927  0.93572  1.0000
  H   H612      1.0  0.63531  0.55287  0.96200  1.0000
  H   H613      1.0  0.76356  0.47473  0.83791  1.0000
  C   C402      1.0  0.77896  0.21509  0.95452  1.0000
  H   H614      1.0  0.81523  0.22872  0.82292  1.0000
  C   C403      1.0  0.70578  0.51071  0.06813  1.0000
  C   C404      1.0  0.73124  0.52770  0.06141  1.0000
  H   H615      1.0  0.80858  0.57188  0.75597  1.0000
  H   H616      1.0  0.74587  0.53732  0.64293  1.0000
  C   C405      1.0  0.62063  0.50793  0.90846  1.0000
  H   H617      1.0  0.69121  0.50554  0.04261  1.0000
  H   H618      1.0  0.73631  0.53547  0.03069  1.0000
  N   N40       1.0  0.67194  0.14139  0.61537  1.0000
  H   H619      1.0  0.75839  0.22892  0.95963  1.0000
  C   C406      1.0  0.73646  0.49815  0.79278  1.0000
  C   C407      1.0  0.71980  0.52470  0.78407  1.0000
  C   C408      1.0  0.71617  0.54767  0.81421  1.0000
  C   C409      1.0  0.72923  0.54413  0.85316  1.0000
  C   C410      1.0  0.74677  0.51809  0.86141  1.0000
  C   C411      1.0  0.75048  0.49517  0.83117  1.0000
  H   H620      1.0  0.71022  0.52783  0.75377  1.0000
  H   H621      1.0  0.70329  0.56816  0.80725  1.0000
  H   H622      1.0  0.75683  0.51512  0.89142  1.0000
  C   C412      1.0  0.63290  0.31544  0.63413  1.0000
  H   H623      1.0  0.60485  0.25508  0.67597  1.0000
  C   C413      1.0  0.64980  0.11733  0.62057  1.0000
  S   S159      1.0  0.60200  0.48271  0.79472  1.0000
  H   H624      1.0  0.77236  0.19125  0.94709  1.0000
  N   N41       1.0  0.63257  0.53829  0.89847  1.0000
  S   S160      1.0  0.76044  0.60391  0.99023  1.0000
  S   S161      1.0  0.78205  0.55551  0.08714  1.0000
  C   C414      1.0  0.58451  0.18516  0.63926  1.0000
  Fe  Fe77      1.0  0.65379  0.47314  0.65649  1.0000
  H   H625      1.0  0.70336  0.50306  0.64558  1.0000
  Fe  Fe78      1.0  0.82610  0.55688  0.94579  1.0000
  Fe  Fe79      1.0  0.69660  0.45980  0.72614  1.0000
  C   C415      1.0  0.81818  0.53876  0.82471  1.0000
  C   C416      1.0  0.58854  0.16798  0.67519  1.0000
  H   H626      1.0  0.62701  0.12722  0.61917  1.0000
  C   C417      1.0  0.64943  0.55007  0.93420  1.0000
  H   H627      1.0  0.58611  0.23022  0.61232  1.0000
  S   S162      1.0  0.61822  0.44391  0.68251  1.0000
  H   H628      1.0  0.71911  0.14488  0.61379  1.0000
  H   H629      1.0  0.70427  0.11693  0.08769  1.0000
  H   H630      1.0  0.78993  0.22417  0.92658  1.0000
  C   C418      1.0  0.63406  0.57308  0.66414  1.0000
  C   C419      1.0  0.66815  0.16483  0.64821  1.0000
  H   H631      1.0  0.59944  0.58633  0.00996  1.0000
  H   H632      1.0  0.58413  0.14367  0.67505  1.0000
  C   C420      1.0  0.61280  0.56495  0.73125  1.0000
  H   H633      1.0  0.77646  0.17941  0.02200  1.0000
  C   C421      1.0  0.58417  0.24636  0.84839  1.0000
  H   H634      1.0  0.78750  0.26276  0.00584  1.0000
  H   H635      1.0  0.81783  0.50406  0.73024  1.0000
  C   C422      1.0  0.80966  0.51043  0.76154  1.0000
  H   H636      1.0  0.59504  0.57151  0.75343  1.0000
  H   H637      1.0  0.63267  0.39214  0.61513  1.0000
  H   H638      1.0  0.81885  0.25768  0.97258  1.0000
  C   C423      1.0  0.83079  0.56075  0.75907  1.0000
  H   H639      1.0  0.58184  0.26317  0.87426  1.0000
  H   H640      1.0  0.69369  0.87534  0.12554  1.0000
  S   S163      1.0  0.77190  0.65571  0.42871  1.0000
  H   H641      1.0  0.67441  0.73822  0.56103  1.0000
  C   C424      1.0  0.69020  0.78115  0.53812  1.0000
  S   S164      1.0  0.72862  0.64900  0.50969  1.0000
  H   H642      1.0  0.82114  0.61282  0.14419  1.0000
  C   C425      1.0  0.82055  0.67320  0.12497  1.0000
  Fe  Fe80      1.0  0.76831  0.67577  0.49241  1.0000
  S   S165      1.0  0.77231  0.72690  0.49838  1.0000
  S   S166      1.0  0.80120  0.64256  0.51992  1.0000
  H   H643      1.0  0.61102  0.09901  0.35252  1.0000
  H   H644      1.0  0.67691  0.76133  0.40645  1.0000
  C   C426      1.0  0.74121  0.74756  0.51598  1.0000
  C   C427      1.0  0.71782  0.73285  0.53501  1.0000
  C   C428      1.0  0.69229  0.74963  0.54602  1.0000
  H   H645      1.0  0.72066  0.71359  0.44678  1.0000
  H   H646      1.0  0.71953  0.70868  0.54171  1.0000
  H   H647      1.0  0.67292  0.66874  0.44840  1.0000
  H   H648      1.0  0.63845  0.70855  0.38277  1.0000
  H   H649      1.0  0.66727  0.68028  0.37318  1.0000
  N   N42       1.0  0.67702  0.71316  0.42073  1.0000
  S   S167      1.0  0.61540  0.67106  0.16917  1.0000
  H   H650      1.0  0.64175  0.69395  0.45539  1.0000
  C   C429      1.0  0.66277  0.70487  0.38119  1.0000
  H   H651      1.0  0.58525  0.05448  0.58925  1.0000
  H   H652      1.0  0.68093  0.75274  0.46011  1.0000
  H   H653      1.0  0.71857  0.72481  0.39374  1.0000
  H   H654      1.0  0.64560  0.74919  0.43566  1.0000
  C   C430      1.0  0.66974  0.74553  0.43111  1.0000
  N   N43       1.0  0.61020  0.87296  0.60660  1.0000
  S   S168      1.0  0.61736  0.72270  0.52687  1.0000
  C   C431      1.0  0.70927  0.70903  0.41694  1.0000
  Fe  Fe81      1.0  0.58581  0.71694  0.57916  1.0000
  C   C432      1.0  0.66621  0.69309  0.45371  1.0000
  H   H655      1.0  0.66217  0.98388  0.40343  1.0000
  Fe  Fe82      1.0  0.80110  0.61972  0.45768  1.0000
  C   C433      1.0  0.58438  0.00709  0.23265  1.0000
  H   H656      1.0  0.67518  0.69981  0.48446  1.0000
  H   H657      1.0  0.67105  0.71899  0.35537  1.0000
  H   H658      1.0  0.71688  0.80842  0.11136  1.0000
  Fe  Fe83      1.0  0.61840  0.77167  0.54797  1.0000
  H   H659      1.0  0.71531  0.68514  0.40741  1.0000
  H   H660      1.0  0.59274  0.68096  0.35230  1.0000
  H   H661      1.0  0.64500  0.84972  0.12436  1.0000
  H   H662      1.0  0.63833  0.98140  0.27546  1.0000
  Fe  Fe84      1.0  0.75017  0.98744  0.32928  1.0000
  S   S169      1.0  0.72950  0.94618  0.30012  1.0000
  C   C434      1.0  0.61794  0.96976  0.35074  1.0000
  H   H663      1.0  0.66089  0.95130  0.29752  1.0000
  H   H664      1.0  0.60285  0.98921  0.17602  1.0000
  H   H665      1.0  0.68127  0.79167  0.11122  1.0000
  H   H666      1.0  0.75752  0.79073  0.49487  1.0000
  Fe  Fe85      1.0  0.73499  0.62603  0.44824  1.0000
  H   H667      1.0  0.74358  0.00564  0.17486  1.0000
  H   H668      1.0  0.60954  0.97656  0.38180  1.0000
  S   S170      1.0  0.68762  0.05159  0.41986  1.0000
  H   H669      1.0  0.68973  0.92069  0.23948  1.0000
  C   C435      1.0  0.73770  0.97905  0.22980  1.0000
  H   H670      1.0  0.67802  0.93611  0.16723  1.0000
  S   S171      1.0  0.72455  0.03072  0.31656  1.0000
  H   H671      1.0  0.62166  0.62192  0.31600  1.0000
  S   S172      1.0  0.75147  0.99448  0.39792  1.0000
  H   H672      1.0  0.62369  0.02654  0.31928  1.0000
  H   H673      1.0  0.75429  0.99122  0.24700  1.0000
  Fe  Fe86      1.0  0.72864  0.03928  0.38432  1.0000
  C   C436      1.0  0.72274  0.95501  0.24809  1.0000
  C   C437      1.0  0.70137  0.93928  0.22537  1.0000
  C   C438      1.0  0.69469  0.94802  0.18460  1.0000
  C   C439      1.0  0.71001  0.97192  0.16633  1.0000
  C   C440      1.0  0.73161  0.98723  0.18889  1.0000
  H   H674      1.0  0.64962  0.86573  0.57093  1.0000
  C   C441      1.0  0.59046  0.86481  0.57198  1.0000
  H   H675      1.0  0.68967  0.82115  0.14831  1.0000
  H   H676      1.0  0.60422  0.01872  0.24170  1.0000
  S   S173      1.0  0.77037  0.06550  0.37848  1.0000
  H   H677      1.0  0.63243  0.02670  0.37352  1.0000
  S   S174      1.0  0.77698  0.08622  0.26169  1.0000
  H   H678      1.0  0.60066  0.84654  0.55215  1.0000
  H   H679      1.0  0.79147  0.61351  0.29502  1.0000
  C   C442      1.0  0.65546  0.97631  0.29923  1.0000
  H   H680      1.0  0.68422  0.08235  0.14006  1.0000
  S   S175      1.0  0.65750  0.80195  0.54779  1.0000
  H   H681      1.0  0.81416  0.66885  0.15759  1.0000
  C   C443      1.0  0.64038  0.01907  0.34256  1.0000
  C   C444      1.0  0.66852  0.97675  0.37156  1.0000
  N   N44       1.0  0.64557  0.98547  0.34103  1.0000
  S   S176      1.0  0.70306  0.98309  0.11526  1.0000
  C   C445      1.0  0.69297  0.81366  0.11572  1.0000
  H   H682      1.0  0.68970  0.98790  0.36471  1.0000
  S   S177      1.0  0.79438  0.00822  0.31818  1.0000
  H   H683      1.0  0.67313  0.95155  0.37133  1.0000
  C   C446      1.0  0.73939  0.77923  0.50930  1.0000
  Fe  Fe87      1.0  0.76173  0.61401  0.53236  1.0000
  Fe  Fe88      1.0  0.76853  0.05228  0.31159  1.0000
  Fe  Fe89      1.0  0.79312  0.01984  0.38592  1.0000
  H   H684      1.0  0.65185  0.09935  0.59615  1.0000
  H   H685      1.0  0.67570  0.98855  0.29029  1.0000
  H   H686      1.0  0.59109  0.98886  0.52034  1.0000
  H   H687      1.0  0.71252  0.82041  0.51445  1.0000
  C   C447      1.0  0.68481  0.09099  0.43010  1.0000
  H   H688      1.0  0.60896  0.64968  0.38129  1.0000
  H   H689      1.0  0.66094  0.03165  0.33640  1.0000
  H   H690      1.0  0.62115  0.94437  0.35025  1.0000
  H   H691      1.0  0.64866  0.08658  0.47225  1.0000
  C   C448      1.0  0.71397  0.79602  0.52044  1.0000
  H   H692      1.0  0.60028  0.97558  0.32792  1.0000
  H   H693      1.0  0.65080  0.61451  0.17613  1.0000
  S   S178      1.0  0.59036  0.76499  0.60355  1.0000
  C   C449      1.0  0.68858  0.06274  0.11858  1.0000
  C   C450      1.0  0.58836  0.65816  0.36602  1.0000
  H   H694      1.0  0.60603  0.65346  0.28682  1.0000
  C   C451      1.0  0.81256  0.61079  0.31043  1.0000
  C   C452      1.0  0.60086  0.63159  0.30259  1.0000
  H   H695      1.0  0.67250  0.04454  0.12536  1.0000
  C   C453      1.0  0.63841  0.88379  0.59007  1.0000
  H   H696      1.0  0.63501  0.90441  0.57031  1.0000
  H   H697      1.0  0.58539  0.88505  0.55213  1.0000
  H   H698      1.0  0.83066  0.69622  0.12387  1.0000
  H   H699      1.0  0.71082  0.05295  0.12620  1.0000
  H   H700      1.0  0.73068  0.09736  0.31972  1.0000
  H   H701      1.0  0.72001  0.10275  0.38956  1.0000
  C   C454      1.0  0.66311  0.10231  0.45701  1.0000
  H   H702      1.0  0.58623  0.08761  0.13137  1.0000
  C   C455      1.0  0.82656  0.61890  0.11178  1.0000
  H   H703      1.0  0.59353  0.61524  0.27832  1.0000
  S   S179      1.0  0.69635  0.61846  0.40601  1.0000
  H   H704      1.0  0.59494  0.61138  0.12337  1.0000
  C   C456      1.0  0.58353  0.99065  0.19525  1.0000
  H   H705      1.0  0.79392  0.61056  0.37137  1.0000
  C   C457      1.0  0.81390  0.60907  0.35367  1.0000
  C   C458      1.0  0.60131  0.62222  0.96477  1.0000
  S   S180      1.0  0.71408  0.75032  0.05390  1.0000
  C   C459      1.0  0.74372  0.72890  0.03364  1.0000
  H   H706      1.0  0.60406  0.04551  0.87530  1.0000
  H   H707      1.0  0.77338  0.65668  0.03295  1.0000
  S   S181      1.0  0.81333  0.67112  0.96649  1.0000
  H   H708      1.0  0.59651  0.65643  0.91730  1.0000
  H   H709      1.0  0.73316  0.68732  0.06537  1.0000
  S   S182      1.0  0.59759  0.68311  0.05462  1.0000
  C   C460      1.0  0.78828  0.69371  0.99519  1.0000
  C   C461      1.0  0.78530  0.72509  0.98696  1.0000
  C   C462      1.0  0.76318  0.74275  0.00645  1.0000
  Fe  Fe90      1.0  0.67275  0.72303  0.05608  1.0000
  Fe  Fe91      1.0  0.63816  0.67122  0.01877  1.0000
  C   C463      1.0  0.77024  0.68045  0.02476  1.0000
  S   S183      1.0  0.68599  0.09668  0.72650  1.0000
  C   C464      1.0  0.74758  0.69787  0.04339  1.0000
  S   S184      1.0  0.63800  0.63069  0.97570  1.0000
  Fe  Fe92      1.0  0.60765  0.73184  0.03961  1.0000
  N   N45       1.0  0.71229  0.67109  0.91506  1.0000
  C   C465      1.0  0.74051  0.65926  0.89807  1.0000
  C   C466      1.0  0.68781  0.66238  0.88743  1.0000
  C   C467      1.0  0.71327  0.70490  0.91880  1.0000
  C   C468      1.0  0.70758  0.65774  0.95621  1.0000
  H   H710      1.0  0.75946  0.66576  0.91803  1.0000
  H   H711      1.0  0.74462  0.66843  0.86670  1.0000
  H   H712      1.0  0.74085  0.63379  0.89573  1.0000
  H   H713      1.0  0.69014  0.67254  0.85622  1.0000
  H   H714      1.0  0.59815  0.62500  0.72560  1.0000
  H   H715      1.0  0.62075  0.08233  0.86881  1.0000
  H   H716      1.0  0.73114  0.71201  0.94028  1.0000
  H   H717      1.0  0.70463  0.63243  0.95429  1.0000
  H   H718      1.0  0.68770  0.66787  0.97126  1.0000
  H   H719      1.0  0.72639  0.66203  0.97712  1.0000
  H   H720      1.0  0.76049  0.76687  0.99926  1.0000
  H   H721      1.0  0.79956  0.73559  0.96466  1.0000
  H   H722      1.0  0.71737  0.71578  0.88844  1.0000
  H   H723      1.0  0.69223  0.71471  0.93109  1.0000
  H   H724      1.0  0.66613  0.67014  0.90024  1.0000
  S   S185      1.0  0.66881  0.67342  0.07319  1.0000
  C   C469      1.0  0.61629  0.93670  0.89783  1.0000
  S   S186      1.0  0.64554  0.71946  0.99829  1.0000
  H   H725      1.0  0.72198  0.86307  0.09006  1.0000
  C   C470      1.0  0.59292  0.85669  0.01810  1.0000
  C   C471      1.0  0.61531  0.61623  0.70381  1.0000
  H   H726      1.0  0.60206  0.89590  0.83852  1.0000
  H   H727      1.0  0.67545  0.80531  0.03640  1.0000
  H   H728      1.0  0.64672  0.82683  0.95607  1.0000
  H   H729      1.0  0.61048  0.90392  0.65831  1.0000
  C   C472      1.0  0.64967  0.04751  0.72374  1.0000
  H   H730      1.0  0.59262  0.93402  0.82179  1.0000
  Fe  Fe93      1.0  0.62919  0.92812  0.02647  1.0000
  C   C473      1.0  0.63181  0.02228  0.78505  1.0000
  H   H731      1.0  0.69200  0.05230  0.01444  1.0000
  C   C474      1.0  0.70843  0.09651  0.06752  1.0000
  C   C475      1.0  0.58887  0.80128  0.01162  1.0000
  C   C476      1.0  0.61351  0.80047  0.98592  1.0000
  S   S187      1.0  0.65858  0.96819  0.01867  1.0000
  H   H732      1.0  0.69034  0.88438  0.07168  1.0000
  H   H733      1.0  0.65121  0.03686  0.84259  1.0000
  C   C477      1.0  0.65038  0.04006  0.80952  1.0000
  C   C478      1.0  0.60120  0.07056  0.88127  1.0000
  C   C479      1.0  0.62764  0.82765  0.97596  1.0000
  H   H734      1.0  0.70761  0.10446  0.03491  1.0000
  C   C480      1.0  0.61777  0.85565  0.99272  1.0000
  Fe  Fe94      1.0  0.61764  0.99686  0.02530  1.0000
  N   N46       1.0  0.68672  0.07241  0.07493  1.0000
  H   H735      1.0  0.68112  0.07696  0.81053  1.0000
  H   H736      1.0  0.71154  0.82105  0.03857  1.0000
  C   C481      1.0  0.66694  0.06649  0.74851  1.0000
  S   S188      1.0  0.61220  0.04095  0.99103  1.0000
  H   H737      1.0  0.68091  0.84424  0.02068  1.0000
  H   H738      1.0  0.59492  0.83707  0.64579  1.0000
  H   H739      1.0  0.61411  0.63086  0.67572  1.0000
  C   C482      1.0  0.66743  0.06264  0.79135  1.0000
  H   H740      1.0  0.64938  0.05033  0.69058  1.0000
  H   H741      1.0  0.63044  0.62244  0.10580  1.0000
  Fe  Fe95      1.0  0.59501  0.95877  0.09521  1.0000
  Fe  Fe96      1.0  0.80352  0.62089  0.96749  1.0000
  S   S189      1.0  0.63426  0.92639  0.09549  1.0000
  H   H742      1.0  0.59428  0.09112  0.80456  1.0000
  S   S190      1.0  0.62144  0.00143  0.09371  1.0000
  H   H743      1.0  0.63298  0.91771  0.89504  1.0000
  H   H744      1.0  0.63761  0.82129  0.08524  1.0000
  H   H745      1.0  0.63981  0.06696  0.07132  1.0000
  C   C483      1.0  0.63183  0.02561  0.74209  1.0000
  H   H746      1.0  0.62627  0.82664  0.61498  1.0000
  H   H747      1.0  0.65391  0.89007  0.61534  1.0000
  H   H748      1.0  0.73130  0.08809  0.07397  1.0000
  H   H749      1.0  0.60175  0.07409  0.91529  1.0000
  H   H750      1.0  0.61807  0.01141  0.72291  1.0000
  H   H751      1.0  0.58519  0.87832  0.03114  1.0000
  S   S191      1.0  0.63799  0.88863  0.98321  1.0000
  H   H752      1.0  0.64163  0.86068  0.07133  1.0000
  H   H753      1.0  0.62146  0.77888  0.97324  1.0000
  C   C484      1.0  0.65674  0.08454  0.06587  1.0000
  S   S192      1.0  0.60681  0.99790  0.80847  1.0000
  C   C485      1.0  0.59623  0.89759  0.63171  1.0000
  C   C486      1.0  0.58587  0.63839  0.93411  1.0000
  Fe  Fe97      1.0  0.66015  0.96921  0.08762  1.0000
  N   N47       1.0  0.58648  0.92627  0.88670  1.0000
  H   H754      1.0  0.65448  0.09139  0.03288  1.0000
  H   H755      1.0  0.63062  0.85111  0.65915  1.0000
  H   H756      1.0  0.67710  0.02736  0.05237  1.0000
  H   H757      1.0  0.61722  0.94514  0.93034  1.0000
  H   H758      1.0  0.59412  0.88107  0.91140  1.0000
  H   H759      1.0  0.63722  0.61983  0.71833  1.0000
  C   C487      1.0  0.68777  0.82654  0.04363  1.0000
  H   H760      1.0  0.68699  0.63695  0.88362  1.0000
  H   H761      1.0  0.80556  0.61886  0.09385  1.0000
  H   H762      1.0  0.58713  0.10197  0.99224  1.0000
  H   H763      1.0  0.71546  0.03568  0.05393  1.0000
  S   S193      1.0  0.58765  0.95672  0.02656  1.0000
  C   C488      1.0  0.69318  0.04583  0.04764  1.0000
  C   C489      1.0  0.61573  0.84576  0.63279  1.0000
  C   C490      1.0  0.58628  0.91547  0.84329  1.0000
  H   H764      1.0  0.59136  0.72626  0.67411  1.0000
  N   N48       1.0  0.68219  0.83722  0.08636  1.0000
  H   H765      1.0  0.59224  0.91875  0.61332  1.0000
  H   H766      1.0  0.62333  0.95574  0.87756  1.0000
  C   C491      1.0  0.69775  0.86625  0.09380  1.0000
  H   H767      1.0  0.65238  0.10575  0.65100  1.0000
  S   S194      1.0  0.63539  0.73951  0.09587  1.0000
  S   S195      1.0  0.58418  0.94781  0.71468  1.0000
  H   H768      1.0  0.65117  0.10497  0.08533  1.0000
  C   C492      1.0  0.65021  0.84241  0.09218  1.0000
  H   H769      1.0  0.82912  0.65434  0.04586  1.0000
  S   S196      1.0  0.58568  0.67459  0.61823  1.0000
  H   H770      1.0  0.79995  0.67439  0.10618  1.0000
  Fe  Fe98      1.0  0.62862  0.68966  0.10776  1.0000
  H   H771      1.0  0.88578  0.60422  0.28995  1.0000
  Fe  Fe99      1.0  0.98015  0.17950  0.49460  1.0000
  S   S197      1.0  0.01186  0.14082  0.50813  1.0000
  S   S198      1.0  0.98026  0.22454  0.52937  1.0000
  H   H772      1.0  0.03738  0.23241  0.49329  1.0000
  C   C493      1.0  0.99809  0.45233  0.16688  1.0000
  S   S199      1.0  0.98279  0.17403  0.42560  1.0000
  C   C494      1.0  0.05009  0.21276  0.60705  1.0000
  S   S200      1.0  0.03654  0.44881  0.16250  1.0000
  C   C495      1.0  0.07987  0.37110  0.55201  1.0000
  Fe  Fe100     1.0  0.97167  0.11214  0.50856  1.0000
  S   S201      1.0  0.03370  0.15118  0.21530  1.0000
  C   C496      1.0  0.05363  0.24761  0.47869  1.0000
  C   C497      1.0  0.00561  0.22866  0.57032  1.0000
  C   C498      1.0  0.02954  0.20826  0.57518  1.0000
  S   S202      1.0  0.84297  0.60228  0.42786  1.0000
  H   H773      1.0  0.87998  0.56590  0.47991  1.0000
  C   C499      1.0  0.02023  0.13166  0.33557  1.0000
  H   H774      1.0  0.97871  0.15019  0.13385  1.0000
  H   H775      1.0  0.03275  0.18942  0.55392  1.0000
  H   H776      1.0  0.06353  0.33078  0.26501  1.0000
  C   C500      1.0  0.94953  0.45220  0.13501  1.0000
  C   C501      1.0  0.04862  0.13152  0.35250  1.0000
  H   H777      1.0  0.01983  0.50713  0.49263  1.0000
  H   H778      1.0  0.98580  0.15431  0.58975  1.0000
  H   H779      1.0  0.00397  0.29129  0.42504  1.0000
  C   C502      1.0  0.03994  0.14374  0.26802  1.0000
  C   C503      1.0  0.00233  0.25359  0.59759  1.0000
  C   C504      1.0  0.02788  0.53583  0.60543  1.0000
  H   H780      1.0  0.98385  0.26948  0.59411  1.0000
  S   S203      1.0  0.06282  0.21122  0.13515  1.0000
  H   H781      1.0  0.02306  0.25669  0.40860  1.0000
  C   C505      1.0  0.02779  0.29383  0.50100  1.0000
  C   C506      1.0  0.98009  0.44777  0.13226  1.0000
  N   N49       1.0  0.06691  0.37396  0.23370  1.0000
  Fe  Fe101     1.0  0.94566  0.14111  0.43232  1.0000
  H   H782      1.0  0.93255  0.14672  0.59783  1.0000
  H   H783      1.0  0.06497  0.34987  0.17557  1.0000
  S   S204      1.0  0.93978  0.15118  0.49965  1.0000
  H   H784      1.0  0.84412  0.14875  0.39542  1.0000
  Fe  Fe102     1.0  0.01146  0.13276  0.43965  1.0000
  C   C507      1.0  0.07278  0.13706  0.32701  1.0000
  H   H785      1.0  0.02209  0.51385  0.26129  1.0000
  N   N50       1.0  0.03952  0.27669  0.46489  1.0000
  C   C508      1.0  0.84102  0.60504  0.37382  1.0000
  H   H786      1.0  0.91623  0.58660  0.43082  1.0000
  S   S205      1.0  0.90789  0.13652  0.38783  1.0000
  Fe  Fe103     1.0  0.07052  0.17437  0.18251  1.0000
  S   S206      1.0  0.05801  0.48012  0.40185  1.0000
  H   H787      1.0  0.07406  0.53880  0.59255  1.0000
  S   S207      1.0  0.06619  0.36224  0.50272  1.0000
  C   C509      1.0  0.99943  0.14120  0.11961  1.0000
  S   S208      1.0  0.05393  0.12450  0.40546  1.0000
  C   C510      1.0  0.04126  0.52284  0.27889  1.0000
  C   C511      1.0  0.01596  0.13744  0.29337  1.0000
  C   C512      1.0  0.07229  0.51883  0.21867  1.0000
  C   C513      1.0  0.05012  0.52138  0.54005  1.0000
  C   C514      1.0  0.05050  0.36327  0.19694  1.0000
  H   H788      1.0  0.00426  0.11817  0.13305  1.0000
  H   H789      1.0  0.92535  0.50199  0.43260  1.0000
  H   H790      1.0  0.87826  0.53292  0.44685  1.0000
  H   H791      1.0  0.02876  0.37525  0.27283  1.0000
  C   C515      1.0  0.04644  0.39046  0.26189  1.0000
  H   H792      1.0  0.01804  0.31645  0.49185  1.0000
  H   H793      1.0  0.85372  0.49846  0.23827  1.0000
  H   H794      1.0  0.99391  0.13749  0.28051  1.0000
  H   H795      1.0  0.07216  0.54416  0.21464  1.0000
  H   H796      1.0  0.95923  0.51459  0.45481  1.0000
  H   H797      1.0  0.95030  0.56586  0.42110  1.0000
  H   H798      1.0  0.07927  0.42011  0.54283  1.0000
  S   S209      1.0  0.04634  0.40555  0.40013  1.0000
  H   H799      1.0  0.88796  0.60039  0.36592  1.0000
  H   H800      1.0  0.03999  0.54833  0.27738  1.0000
  S   S210      1.0  0.97579  0.45939  0.39621  1.0000
  H   H801      1.0  0.05815  0.39932  0.28971  1.0000
  Fe  Fe104     1.0  0.87918  0.58686  0.21130  1.0000
  H   H802      1.0  0.00147  0.12718  0.35492  1.0000
  C   C516      1.0  0.05275  0.53309  0.58020  1.0000
  Fe  Fe105     1.0  0.90671  0.52633  0.18546  1.0000
  S   S211      1.0  0.95109  0.54645  0.17574  1.0000
  S   S212      1.0  0.90067  0.47663  0.17234  1.0000
  Fe  Fe106     1.0  0.94198  0.57168  0.23487  1.0000
  S   S213      1.0  0.97699  0.57689  0.28351  1.0000
  Fe  Fe107     1.0  0.92589  0.58503  0.14578  1.0000
  S   S214      1.0  0.89946  0.54812  0.24717  1.0000
  S   S215      1.0  0.88221  0.56262  0.15025  1.0000
  H   H803      1.0  0.93150  0.49920  0.48733  1.0000
  H   H804      1.0  0.96068  0.56202  0.49624  1.0000
  C   C517      1.0  0.89017  0.54285  0.47378  1.0000
  H   H805      1.0  0.84053  0.19159  0.34737  1.0000
  N   N51       1.0  0.92206  0.54502  0.46565  1.0000
  H   H806      1.0  0.07133  0.25179  0.50184  1.0000
  C   C518      1.0  0.93698  0.46238  0.17205  1.0000
  Fe  Fe108     1.0  0.02163  0.44859  0.41809  1.0000
  C   C519      1.0  0.06842  0.14342  0.28487  1.0000
  H   H807      1.0  0.05218  0.46625  0.24785  1.0000
  C   C520      1.0  0.97610  0.54491  0.31599  1.0000
  C   C521      1.0  0.96081  0.51897  0.30352  1.0000
  C   C522      1.0  0.96018  0.49305  0.32874  1.0000
  C   C523      1.0  0.97581  0.49256  0.36596  1.0000
  C   C524      1.0  0.99157  0.51838  0.37839  1.0000
  C   C525      1.0  0.99148  0.54469  0.35357  1.0000
  H   H808      1.0  0.95004  0.51856  0.27387  1.0000
  H   H809      1.0  0.94828  0.47301  0.31878  1.0000
  H   H810      1.0  0.00357  0.51819  0.40734  1.0000
  H   H811      1.0  0.00359  0.56466  0.36322  1.0000
  H   H812      1.0  0.88584  0.52838  0.50118  1.0000
  H   H813      1.0  0.97617  0.50988  0.53834  1.0000
  H   H814      1.0  0.05174  0.31781  0.43341  1.0000
  H   H815      1.0  0.03551  0.41038  0.24623  1.0000
  S   S216      1.0  0.03329  0.44457  0.48494  1.0000
  C   C526      1.0  0.95481  0.46624  0.20698  1.0000
  H   H816      1.0  0.91633  0.55209  0.40033  1.0000
  C   C527      1.0  0.06153  0.29548  0.44379  1.0000
  C   C528      1.0  0.07003  0.47675  0.26643  1.0000
  C   C529      1.0  0.00035  0.52679  0.59076  1.0000
  C   C530      1.0  0.99737  0.51694  0.54982  1.0000
  C   C531      1.0  0.92648  0.56321  0.42786  1.0000
  H   H817      1.0  0.04080  0.38287  0.17919  1.0000
  C   C532      1.0  0.93503  0.51387  0.45988  1.0000
  H   H818      1.0  0.05387  0.50949  0.19981  1.0000
  H   H819      1.0  0.92740  0.58391  0.50604  1.0000
  H   H820      1.0  0.84146  0.13991  0.31785  1.0000
  H   H821      1.0  0.99891  0.46424  0.23165  1.0000
  H   H822      1.0  0.93331  0.54733  0.53029  1.0000
  C   C533      1.0  0.98531  0.46083  0.20461  1.0000
  C   C534      1.0  0.93651  0.56024  0.50109  1.0000
  H   H823      1.0  0.03219  0.34807  0.20564  1.0000
  H   H824      1.0  0.06351  0.23454  0.45236  1.0000
  H   H825      1.0  0.94501  0.47389  0.23566  1.0000
  C   C535      1.0  0.02219  0.51470  0.52428  1.0000
  C   C536      1.0  0.01511  0.26985  0.43609  1.0000
  H   H826      1.0  0.99807  0.25579  0.45130  1.0000
  C   C537      1.0  0.83844  0.60852  0.28728  1.0000
  H   H827      1.0  0.07084  0.28344  0.41624  1.0000
  H   H828      1.0  0.01032  0.28095  0.51681  1.0000
  Fe  Fe109     1.0  0.06239  0.40523  0.46559  1.0000
  H   H829      1.0  0.00317  0.59396  0.20563  1.0000
  H   H830      1.0  0.01740  0.15656  0.12972  1.0000
  H   H831      1.0  0.03831  0.51633  0.31179  1.0000
  H   H832      1.0  0.04538  0.29849  0.52414  1.0000
  C   C538      1.0  0.86561  0.60498  0.30746  1.0000
  Fe  Fe110     1.0  0.07157  0.47355  0.46798  1.0000
  C   C539      1.0  0.86688  0.60299  0.35060  1.0000
  H   H833      1.0  0.06703  0.46967  0.29909  1.0000
  H   H834      1.0  0.03551  0.59810  0.17447  1.0000
  N   N52       1.0  0.06946  0.51051  0.26263  1.0000
  H   H835      1.0  0.08017  0.30109  0.46487  1.0000
  S   S217      1.0  0.83687  0.60818  0.23313  1.0000
  C   C540      1.0  0.08044  0.34728  0.25513  1.0000
  H   H836      1.0  0.08107  0.41529  0.20456  1.0000
  H   H837      1.0  0.83396  0.54511  0.20451  1.0000
  H   H838      1.0  0.01519  0.42509  0.60728  1.0000
  H   H839      1.0  0.87516  0.53615  0.00966  1.0000
  Fe  Fe111     1.0  0.95937  0.20745  0.90535  1.0000
  S   S218      1.0  0.98325  0.19199  0.84865  1.0000
  S   S219      1.0  0.98124  0.24010  0.94900  1.0000
  Fe  Fe112     1.0  0.93941  0.19470  0.81725  1.0000
  S   S220      1.0  0.93760  0.21186  0.75222  1.0000
  S   S221      1.0  0.91648  0.21543  0.87234  1.0000
  C   C541      1.0  0.97310  0.11935  0.06183  1.0000
  H   H840      1.0  0.98864  0.34205  0.95269  1.0000
  C   C542      1.0  0.03983  0.57971  0.87998  1.0000
  C   C543      1.0  0.93631  0.14184  0.63118  1.0000
  S   S222      1.0  0.98062  0.34696  0.76462  1.0000
  S   S223      1.0  0.97027  0.52602  0.62441  1.0000
  C   C544      1.0  0.01265  0.22196  0.97003  1.0000
  C   C545      1.0  0.02193  0.19306  0.95539  1.0000
  C   C546      1.0  0.04643  0.17811  0.97316  1.0000
  C   C547      1.0  0.06158  0.19185  0.00580  1.0000
  C   C548      1.0  0.05251  0.22082  0.02031  1.0000
  C   C549      1.0  0.02815  0.23598  0.00225  1.0000
  H   H841      1.0  0.01000  0.18189  0.93083  1.0000
  H   H842      1.0  0.05300  0.15537  0.96265  1.0000
  Fe  Fe113     1.0  0.06744  0.28736  0.70929  1.0000
  H   H843      1.0  0.02105  0.25828  0.01380  1.0000
  C   C550      1.0  0.94553  0.25093  0.75261  1.0000
  C   C551      1.0  0.96321  0.26278  0.72161  1.0000
  C   C552      1.0  0.97259  0.29308  0.72428  1.0000
  C   C553      1.0  0.96363  0.31182  0.75729  1.0000
  C   C554      1.0  0.94463  0.30057  0.78715  1.0000
  C   C555      1.0  0.93587  0.26993  0.78507  1.0000
  H   H844      1.0  0.97088  0.24822  0.69663  1.0000
  H   H845      1.0  0.03329  0.40678  0.85787  1.0000
  H   H846      1.0  0.93775  0.31502  0.81278  1.0000
  H   H847      1.0  0.92179  0.26098  0.80867  1.0000
  S   S224      1.0  0.02847  0.40798  0.05448  1.0000
  S   S225      1.0  0.01707  0.44311  0.78681  1.0000
  C   C556      1.0  0.04246  0.33591  0.91893  1.0000
  H   H848      1.0  0.03797  0.35912  0.93228  1.0000
  H   H849      1.0  0.07852  0.43283  0.75033  1.0000
  H   H850      1.0  0.00198  0.27857  0.87727  1.0000
  C   C557      1.0  0.99449  0.31902  0.93966  1.0000
  S   S226      1.0  0.07352  0.24352  0.67285  1.0000
  H   H851      1.0  0.02411  0.39595  0.71455  1.0000
  H   H852      1.0  0.01788  0.41115  0.93138  1.0000
  C   C558      1.0  0.97435  0.42585  0.69524  1.0000
  N   N53       1.0  0.96255  0.15766  0.64711  1.0000
  C   C559      1.0  0.01077  0.53796  0.90515  1.0000
  H   H853      1.0  0.03238  0.27541  0.91271  1.0000
  H   H854      1.0  0.06425  0.23154  0.04544  1.0000
  H   H855      1.0  0.05377  0.32206  0.94333  1.0000
  H   H856      1.0  0.03019  0.54425  0.63663  1.0000
  H   H857      1.0  0.06757  0.22296  0.83826  1.0000
  C   C560      1.0  0.01694  0.42386  0.86712  1.0000
  C   C561      1.0  0.83705  0.19347  0.85891  1.0000
  C   C562      1.0  0.98711  0.38247  0.65167  1.0000
  H   H858      1.0  0.00422  0.30491  0.96506  1.0000
  N   N54       1.0  0.01508  0.32131  0.90467  1.0000
  H   H859      1.0  0.93885  0.11647  0.63420  1.0000
  S   S227      1.0  0.06351  0.44041  0.97807  1.0000
  H   H860      1.0  0.87504  0.53420  0.80049  1.0000
  C   C563      1.0  0.02293  0.25815  0.62941  1.0000
  H   H861      1.0  0.05831  0.33851  0.89315  1.0000
  S   S228      1.0  0.94887  0.16018  0.92650  1.0000
  S   S229      1.0  0.04462  0.28767  0.77024  1.0000
  H   H862      1.0  0.85848  0.20305  0.85502  1.0000
  H   H863      1.0  0.00491  0.45733  0.63927  1.0000
  H   H864      1.0  0.87591  0.52540  0.06307  1.0000
  H   H865      1.0  0.94257  0.53521  0.07619  1.0000
  S   S230      1.0  0.92829  0.14597  0.83057  1.0000
  H   H866      1.0  0.98737  0.30171  0.70130  1.0000
  S   S231      1.0  0.04621  0.33156  0.68866  1.0000
  Fe  Fe114     1.0  0.90786  0.16630  0.88791  1.0000
  Fe  Fe115     1.0  0.02749  0.33429  0.75222  1.0000
  H   H867      1.0  0.99238  0.12267  0.62392  1.0000
  H   H868      1.0  0.99470  0.36329  0.88288  1.0000
  H   H869      1.0  0.03779  0.29112  0.86226  1.0000
  H   H870      1.0  0.98962  0.44154  0.10296  1.0000
  C   C564      1.0  0.00119  0.33997  0.87162  1.0000
  H   H871      1.0  0.97029  0.18090  0.07012  1.0000
  C   C565      1.0  0.99844  0.43380  0.62978  1.0000
  C   C566      1.0  0.88951  0.53446  0.03755  1.0000
  H   H872      1.0  0.91610  0.14915  0.64824  1.0000
  N   N55       1.0  0.99626  0.41320  0.66574  1.0000
  C   C567      1.0  0.07829  0.15119  0.87703  1.0000
  Fe  Fe116     1.0  0.97027  0.14489  0.86735  1.0000
  H   H873      1.0  0.06796  0.14327  0.79561  1.0000
  C   C568      1.0  0.85935  0.51797  0.78607  1.0000
  C   C569      1.0  0.02214  0.29024  0.88847  1.0000
  C   C570      1.0  0.05095  0.55707  0.94628  1.0000
  H   H874      1.0  0.98095  0.32911  0.85931  1.0000
  H   H875      1.0  0.94741  0.15508  0.70978  1.0000
  H   H876      1.0  0.04216  0.40026  0.66557  1.0000
  H   H877      1.0  0.01628  0.34280  0.84501  1.0000
  H   H878      1.0  0.97369  0.30785  0.93002  1.0000
  H   H879      1.0  0.98580  0.16259  0.70478  1.0000
  S   S232      1.0  0.86367  0.15085  0.91004  1.0000
  H   H880      1.0  0.00920  0.18685  0.06619  1.0000
  H   H881      1.0  0.83288  0.55460  0.84180  1.0000
  C   C571      1.0  0.04694  0.23783  0.63406  1.0000
  H   H882      1.0  0.89606  0.55813  0.04626  1.0000
  H   H883      1.0  0.02020  0.27736  0.65032  1.0000
  Fe  Fe117     1.0  0.04749  0.44463  0.09500  1.0000
  Fe  Fe118     1.0  0.02021  0.44616  0.00980  1.0000
  H   H884      1.0  0.05858  0.18287  0.78502  1.0000
  C   C572      1.0  0.00844  0.42649  0.90862  1.0000
  S   S233      1.0  0.93950  0.60152  0.08351  1.0000
  C   C573      1.0  0.91416  0.58860  0.87007  1.0000
  H   H885      1.0  0.02548  0.52043  0.89025  1.0000
  Fe  Fe119     1.0  0.07345  0.40539  0.02672  1.0000
  H   H886      1.0  0.97768  0.20378  0.65421  1.0000
  S   S234      1.0  0.06452  0.36001  0.78087  1.0000
  H   H887      1.0  0.00892  0.15914  0.63438  1.0000
  H   H888      1.0  0.99268  0.54356  0.88290  1.0000
  C   C574      1.0  0.00479  0.44396  0.83786  1.0000
  H   H889      1.0  0.05614  0.56399  0.86481  1.0000
  H   H890      1.0  0.84077  0.60010  0.09898  1.0000
  H   H891      1.0  0.83930  0.55648  0.72730  1.0000
  C   C575      1.0  0.06741  0.20440  0.86175  1.0000
  H   H892      1.0  0.00072  0.52687  0.93242  1.0000
  H   H893      1.0  0.95333  0.49660  0.06245  1.0000
  S   S235      1.0  0.00737  0.10995  0.86369  1.0000
  H   H894      1.0  0.99664  0.57853  0.96525  1.0000
  H   H895      1.0  0.98940  0.17066  0.02349  1.0000
  C   C576      1.0  0.95795  0.19122  0.64345  1.0000
  H   H896      1.0  0.05562  0.14769  0.88865  1.0000
  H   H897      1.0  0.96534  0.38355  0.63580  1.0000
  S   S236      1.0  0.97919  0.45447  0.97286  1.0000
  C   C577      1.0  0.89142  0.57507  0.89243  1.0000
  C   C578      1.0  0.02523  0.41052  0.68646  1.0000
  H   H898      1.0  0.94002  0.55118  0.00328  1.0000
  Fe  Fe120     1.0  0.98564  0.55446  0.77558  1.0000
  S   S237      1.0  0.02717  0.52985  0.79541  1.0000
  Fe  Fe121     1.0  0.07938  0.47449  0.02460  1.0000
  Fe  Fe122     1.0  0.98840  0.52877  0.68882  1.0000
  S   S238      1.0  0.02976  0.50161  0.70147  1.0000
  N   N56       1.0  0.07857  0.17487  0.84457  1.0000
  Fe  Fe123     1.0  0.00869  0.48995  0.76108  1.0000
  H   H899      1.0  0.06365  0.57740  0.95628  1.0000
  Fe  Fe124     1.0  0.04461  0.54378  0.73418  1.0000
  S   S239      1.0  0.96535  0.51306  0.74585  1.0000
  S   S240      1.0  0.00494  0.57232  0.71684  1.0000
  H   H900      1.0  0.93896  0.19953  0.66242  1.0000
  C   C579      1.0  0.93399  0.51241  0.06712  1.0000
  H   H901      1.0  0.90770  0.50004  0.87134  1.0000
  C   C580      1.0  0.05969  0.16520  0.80969  1.0000
  C   C581      1.0  0.93416  0.57020  0.84762  1.0000
  C   C582      1.0  0.90568  0.48349  0.01760  1.0000
  C   C583      1.0  0.90938  0.52479  0.87095  1.0000
  C   C584      1.0  0.93162  0.53837  0.84803  1.0000
  H   H902      1.0  0.06688  0.54038  0.93210  1.0000
  C   C585      1.0  0.98769  0.44897  0.92065  1.0000
  H   H903      1.0  0.94698  0.52424  0.83087  1.0000
  H   H904      1.0  0.96991  0.11923  0.02772  1.0000
  N   N57       1.0  0.02707  0.56570  0.91712  1.0000
  H   H905      1.0  0.86826  0.51149  0.75520  1.0000
  C   C586      1.0  0.97486  0.46832  0.89109  1.0000
  C   C587      1.0  0.98369  0.46599  0.84980  1.0000
  H   H906      1.0  0.92470  0.46763  0.01154  1.0000
  H   H907      1.0  0.95872  0.48559  0.90032  1.0000
  H   H908      1.0  0.97415  0.48107  0.82696  1.0000
  S   S241      1.0  0.03507  0.48324  0.05256  1.0000
  H   H909      1.0  0.04394  0.14240  0.06598  1.0000
  S   S242      1.0  0.96258  0.58698  0.81970  1.0000
  H   H910      1.0  0.98065  0.44894  0.70661  1.0000
  N   N58       1.0  0.91554  0.51445  0.02948  1.0000
  H   H911      1.0  0.91982  0.52869  0.96648  1.0000
  H   H912      1.0  0.89197  0.48420  0.98894  1.0000
  H   H913      1.0  0.95294  0.51321  0.98915  1.0000
  C   C588      1.0  0.02530  0.12764  0.05712  1.0000
  H   H914      1.0  0.95210  0.42803  0.68095  1.0000
  S   S243      1.0  0.86135  0.52531  0.92063  1.0000
  H   H915      1.0  0.84551  0.57758  0.77436  1.0000
  H   H916      1.0  0.05140  0.60127  0.88775  1.0000
  H   H917      1.0  0.00338  0.37204  0.62977  1.0000
  H   H918      1.0  0.98848  0.59513  0.91559  1.0000
  C   C589      1.0  0.88912  0.54312  0.89285  1.0000
  H   H919      1.0  0.89235  0.47311  0.04246  1.0000
  C   C590      1.0  0.93289  0.52750  0.99559  1.0000
  H   H920      1.0  0.97239  0.12463  0.69465  1.0000
  H   H921      1.0  0.05495  0.60172  0.76850  1.0000
  C   C591      1.0  0.96731  0.14957  0.69095  1.0000
  C   C592      1.0  0.00671  0.58814  0.93702  1.0000
  H   H922      1.0  0.87592  0.58936  0.90955  1.0000
  H   H923      1.0  0.03680  0.16104  0.82000  1.0000
  C   C593      1.0  0.99124  0.17092  0.05780  1.0000
  H   H924      1.0  0.03322  0.43325  0.69669  1.0000
  H   H925      1.0  0.97256  0.41090  0.72298  1.0000
  H   H926      1.0  0.93586  0.44919  0.10790  1.0000
  H   H927      1.0  0.04445  0.20247  0.87296  1.0000
  H   H928      1.0  0.04225  0.54618  0.97460  1.0000
  H   H929      1.0  0.92125  0.50375  0.09373  1.0000
  H   H930      1.0  0.95181  0.12679  0.07594  1.0000
  H   H931      1.0  0.06997  0.47277  0.75815  1.0000
  C   C594      1.0  0.98862  0.14801  0.62279  1.0000
  H   H932      1.0  0.84066  0.19640  0.00961  1.0000
  N   N59       1.0  0.99723  0.13978  0.07409  1.0000
  H   H933      1.0  0.98511  0.36647  0.67818  1.0000
  C   C595      1.0  0.83368  0.16709  0.88263  1.0000
  H   H934      1.0  0.02459  0.12612  0.02278  1.0000
  H   H935      1.0  0.04211  0.59756  0.63067  1.0000
  H   H936      1.0  0.02247  0.58581  0.85684  1.0000
  H   H937      1.0  0.85942  0.49694  0.80547  1.0000
  H   H938      1.0  0.83771  0.20542  0.95572  1.0000
  H   H939      1.0  0.08102  0.21199  0.88850  1.0000
  H   H940      1.0  0.97702  0.43618  0.61313  1.0000
  H   H941      1.0  0.06868  0.19701  0.61042  1.0000
  H   H942      1.0  0.08152  0.46690  0.83233  1.0000
  H   H943      1.0  0.95360  0.19808  0.61086  1.0000
  H   H944      1.0  0.90151  0.10153  0.46266  1.0000
  H   H945      1.0  0.87177  0.09821  0.33666  1.0000
  H   H946      1.0  0.07326  0.91360  0.12275  1.0000
  H   H947      1.0  0.00335  0.67372  0.24721  1.0000
  H   H948      1.0  0.98308  0.66113  0.20268  1.0000
  H   H949      1.0  0.05220  0.62566  0.56619  1.0000
  H   H950      1.0  0.07259  0.06924  0.46917  1.0000
  H   H951      1.0  0.02818  0.66642  0.15948  1.0000
  H   H952      1.0  0.88395  0.63037  0.12401  1.0000
  H   H953      1.0  0.04747  0.67951  0.20424  1.0000
  H   H954      1.0  0.07727  0.03020  0.45152  1.0000
  H   H955      1.0  0.87949  0.67073  0.13377  1.0000
  H   H956      1.0  0.07515  0.06399  0.19001  1.0000
  H   H957      1.0  0.93797  0.65362  0.13934  1.0000
  C   C596      1.0  0.95554  0.65654  0.11754  1.0000
  H   H958      1.0  0.06358  0.61522  0.23696  1.0000
  H   H959      1.0  0.03362  0.65891  0.58785  1.0000
  C   C597      1.0  0.86806  0.64840  0.13499  1.0000
  H   H960      1.0  0.96947  0.69929  0.14456  1.0000
  C   C598      1.0  0.99771  0.65323  0.22829  1.0000
  C   C599      1.0  0.98482  0.02994  0.59600  1.0000
  H   H961      1.0  0.07183  0.86177  0.18380  1.0000
  H   H962      1.0  0.04975  0.64680  0.26724  1.0000
  C   C600      1.0  0.00269  0.00342  0.59620  1.0000
  H   H963      1.0  0.92151  0.96040  0.54491  1.0000
  H   H964      1.0  0.91546  0.97622  0.43181  1.0000
  H   H965      1.0  0.92757  0.04007  0.50551  1.0000
  H   H966      1.0  0.89485  0.02293  0.52502  1.0000
  C   C601      1.0  0.88857  0.09097  0.43856  1.0000
  S   S244      1.0  0.04269  0.96327  0.56305  1.0000
  H   H967      1.0  0.88749  0.96736  0.51750  1.0000
  H   H968      1.0  0.03514  0.01075  0.50242  1.0000
  C   C602      1.0  0.91885  0.01897  0.51994  1.0000
  H   H969      1.0  0.00417  0.05848  0.50265  1.0000
  C   C603      1.0  0.02052  0.99636  0.56227  1.0000
  C   C604      1.0  0.02106  0.01613  0.52842  1.0000
  C   C605      1.0  0.00363  0.04308  0.52863  1.0000
  C   C606      1.0  0.98530  0.04972  0.56227  1.0000
  C   C607      1.0  0.04124  0.65860  0.18663  1.0000
  N   N60       1.0  0.02446  0.63733  0.21242  1.0000
  C   C608      1.0  0.91177  0.96439  0.51371  1.0000
  H   H970      1.0  0.91571  0.94322  0.49493  1.0000
  C   C609      1.0  0.85374  0.05231  0.41693  1.0000
  H   H971      1.0  0.96702  0.00685  0.47499  1.0000
  H   H972      1.0  0.92949  0.01673  0.55085  1.0000
  H   H973      1.0  0.07039  0.66178  0.56868  1.0000
  H   H974      1.0  0.06804  0.82884  0.12049  1.0000
  H   H975      1.0  0.88662  0.99869  0.45520  1.0000
  C   C610      1.0  0.04300  0.62704  0.24757  1.0000
  H   H976      1.0  0.96753  0.98265  0.51971  1.0000
  H   H977      1.0  0.86306  0.64374  0.16795  1.0000
  H   H978      1.0  0.91909  0.01708  0.43757  1.0000
  C   C611      1.0  0.91094  0.99606  0.45281  1.0000
  N   N61       1.0  0.92456  0.99150  0.49391  1.0000
  H   H979      1.0  0.96188  0.96623  0.46947  1.0000
  C   C612      1.0  0.95665  0.98658  0.48925  1.0000
  C   C613      1.0  0.05526  0.64656  0.58560  1.0000
  C   C614      1.0  0.97321  0.68248  0.12029  1.0000
  C   C615      1.0  0.87117  0.06568  0.44767  1.0000
  N   N62       1.0  0.84099  0.64894  0.10950  1.0000
  H   H980      1.0  0.87056  0.05702  0.47879  1.0000
  S   S245      1.0  0.96180  0.08188  0.56178  1.0000
  C   C616      1.0  0.85375  0.06432  0.37698  1.0000
  H   H981      1.0  0.06182  0.64754  0.17460  1.0000
  H   H982      1.0  0.84063  0.05388  0.35293  1.0000
  S   S246      1.0  0.97454  0.09936  0.44157  1.0000
  H   H983      1.0  0.07949  0.02899  0.27147  1.0000
  C   C617      1.0  0.87123  0.08953  0.36782  1.0000
  H   H984      1.0  0.98465  0.63784  0.24816  1.0000
  H   H985      1.0  0.06340  0.07822  0.23968  1.0000
  S   S247      1.0  0.92098  0.61267  0.20416  1.0000
  H   H986      1.0  0.07400  0.06106  0.41500  1.0000
  C   C618      1.0  0.88836  0.10316  0.39869  1.0000
  H   H987      1.0  0.04865  0.88200  0.11906  1.0000
  C   C619      1.0  0.07095  0.88984  0.11054  1.0000
  S   S248      1.0  0.83215  0.02058  0.42867  1.0000
  H   H988      1.0  0.00177  0.61762  0.16048  1.0000
  C   C620      1.0  0.01589  0.61053  0.18717  1.0000
  H   H989      1.0  0.03103  0.61101  0.26784  1.0000
  C   C621      1.0  0.84879  0.65525  0.06619  1.0000
  H   H990      1.0  0.01825  0.66799  0.03855  1.0000
  C   C622      1.0  0.98273  0.63925  0.05732  1.0000
  H   H991      1.0  0.96672  0.09524  0.92840  1.0000
  S   S249      1.0  0.08133  0.66004  0.05886  1.0000
  C   C623      1.0  0.96047  0.63478  0.08625  1.0000
  C   C624      1.0  0.03210  0.02613  0.82606  1.0000
  H   H992      1.0  0.04330  0.00494  0.90229  1.0000
  S   S250      1.0  0.05503  0.96617  0.07028  1.0000
  C   C625      1.0  0.00083  0.66484  0.06065  1.0000
  H   H993      1.0  0.98641  0.62263  0.03283  1.0000
  H   H994      1.0  0.06462  0.97160  0.88675  1.0000
  N   N63       1.0  0.06711  0.63870  0.62690  1.0000
  C   C626      1.0  0.06545  0.83756  0.99385  1.0000
  H   H995      1.0  0.97786  0.09518  0.07136  1.0000
  S   S251      1.0  0.06851  0.71921  0.99751  1.0000
  Fe  Fe125     1.0  0.06240  0.70775  0.06435  1.0000
  Fe  Fe126     1.0  0.07789  0.94262  0.01744  1.0000
  H   H996      1.0  0.07841  0.75903  0.91475  1.0000
  H   H997      1.0  0.86518  0.63811  0.05407  1.0000
  H   H998      1.0  0.02658  0.97532  0.87197  1.0000
  N   N64       1.0  0.05579  0.00414  0.83826  1.0000
  H   H999      1.0  0.05016  0.67986  0.65624  1.0000
  Fe  Fe127     1.0  0.06749  0.96691  0.62245  1.0000
  H   H1000     1.0  0.07197  0.78845  0.99663  1.0000
  H   H1001     1.0  0.01103  0.01435  0.81986  1.0000
  H   H1002     1.0  0.07211  0.77511  0.84088  1.0000
  C   C627      1.0  0.04721  0.98831  0.87648  1.0000
  S   S252      1.0  0.02574  0.04440  0.03521  1.0000
  C   C628      1.0  0.07897  0.86618  0.99289  1.0000
  S   S253      1.0  0.05006  0.97267  0.68693  1.0000
  H   H1003     1.0  0.04016  0.96828  0.79812  1.0000
  H   H1004     1.0  0.85838  0.67839  0.06271  1.0000
  H   H1005     1.0  0.08117  0.73647  0.82482  1.0000
  H   H1006     1.0  0.00237  0.98817  0.62242  1.0000
  S   S254      1.0  0.05698  0.89981  0.99276  1.0000
  H   H1007     1.0  0.97071  0.03514  0.62207  1.0000
  S   S255      1.0  0.02085  0.71633  0.10004  1.0000
  C   C629      1.0  0.02070  0.06133  0.98672  1.0000
  C   C630      1.0  0.99272  0.07237  0.97526  1.0000
  C   C631      1.0  0.98854  0.08739  0.93750  1.0000
  C   C632      1.0  0.01235  0.09129  0.91104  1.0000
  C   C633      1.0  0.04032  0.07992  0.92224  1.0000
  C   C634      1.0  0.04449  0.06489  0.96008  1.0000
  H   H1008     1.0  0.97412  0.06876  0.99525  1.0000
  C   C635      1.0  0.07136  0.66715  0.65116  1.0000
  Fe  Fe128     1.0  0.06295  0.00970  0.03646  1.0000
  H   H1009     1.0  0.04166  0.83645  0.99393  1.0000
  H   H1010     1.0  0.03790  0.03881  0.79758  1.0000
  H   H1011     1.0  0.05880  0.08320  0.90198  1.0000
  H   H1012     1.0  0.07162  0.89113  0.07630  1.0000
  C   C636      1.0  0.07604  0.61165  0.76202  1.0000
  H   H1013     1.0  0.91610  0.61332  0.86991  1.0000
  H   H1014     1.0  0.06336  0.65657  0.78522  1.0000
  H   H1015     1.0  0.07816  0.96421  0.81277  1.0000
  H   H1016     1.0  0.06613  0.05668  0.96912  1.0000
  H   H1017     1.0  0.06699  0.99265  0.77560  1.0000
  C   C637      1.0  0.99630  0.68628  0.09244  1.0000
  H   H1018     1.0  0.02780  0.04361  0.85059  1.0000
  H   H1019     1.0  0.03059  0.10424  0.06890  1.0000
  H   H1020     1.0  0.08080  0.03790  0.87116  1.0000
  C   C638      1.0  0.06049  0.98133  0.80478  1.0000
  C   C639      1.0  0.04620  0.61894  0.64850  1.0000
  H   H1021     1.0  0.02456  0.63086  0.65334  1.0000
  S   S256      1.0  0.07586  0.05222  0.72941  1.0000
  H   H1022     1.0  0.05482  0.61204  0.67938  1.0000
  H   H1023     1.0  0.01839  0.60939  0.94632  1.0000
  H   H1024     1.0  0.08113  0.66216  0.68206  1.0000
  C   C640      1.0  0.08084  0.64264  0.77166  1.0000
