data_image0
_chemical_formula_structural       H2SH2FeS2HFeSHCSFeCHC6H3SC5H2CHC2H4NH2SCH5CFeS3H2C3H4FeHSCS2FeSH2SC2HC4S2H4NC4H3CH4C2H5CHC2HC2SCH3SFeHFeCFeSFeSCFeHFeS3H2C2HCHCHC2H4CH2CSH2CSHCNHC2H3C2H2C3H8CHCSC2HC2H3SCHCNH2NH3SC3H5FeSFeS2FeCFeHS2HC9H3CH2CSH2SC2HCH4NC2HNH4CHCHC2H4CH6CH5CHC2H5CHC3H4NSC2SHCH2CH3CH2NH2SHFeHCS3Fe2CFeSH2CHCHCHSCHFeS2CSFeSFeS3C4HCH3C6H4C2NH4C2H6CH2CHCHCHFeCSH3FeHSFeS2FeHCHNH3CHNC2H2CHSH3CH2FeSHFeCSFeH2FeSHSNSCH2CH5SFeH3FeSHCSFeCFeSHSC5H2C2HC4H3CH3NC3SH2CHSH3CH2C2SH4CHC2H2NHCSH3SH5CH3FeS2FeS2CFeCSCFeH5CHNH2CHC2HCH3CH5SH2CH2FeSH2S2NFeHSHFeH2CHSCHCHC4H3CNC4H12NH2CHSFeCHC2H2C2H2CHC6H5SNCH2S2CH5CH2CH9FeS2HFeSHSNH3CSFeH5C2HCH4SHSC6H3CH6S2H3CFeCHC6H6CHSN2SHCHCSHC2HCHC3H4NFeHCH2CH2FeCFeS2CHC6H5S2H2SCFeHC3HCH2CHNC4H4CH4CH2SH5C2H4FeSHFeNSHCHNCSH9CH2CH4SC3H2CNH2C2HFeH5C2HSH2C7H5CH2CH4CSHSCHCHCH3SC2H2CH2FeCNHFeH5SFeS2FeSCH4SC2SHNH6C2HCH3CHFeS2FeSFeSCSC2HC3SH7C3H2NCHS2HC2H4CHFeCH3SH3FeCH2CH2SCSNCFeS2FeCSFeS2HCHCHCH2FeHC2HNCHFeCH3CHCS2HC2FeH2FeHC2HSHC3H2SCHSC3H2FeSCSFe2SNSC6H2S2CHSH6CSH2CH3CSH2CSH2FeC2HCFeS2FeHSHFeHS2HC5NHSH2CHCH2CHCH2CH3CSH2C4FeCH2N2CH3C2H2C2H5NH2CFeH5FeCH2C2H6SH2C3SHCH3C4FeH4CH3C2H4CHCH3NSCHCSH2FeSHFeS2H2FeSHSHC6H4C3H5NC4H4SH4CH2CNCH3CH6NCH2SH2C5SHFeHCHC3HC2HCNH2CSH2FeSHFeS2CHFeSHS2C6H4C4H3SNH3FeCHCH3CH3CH5NH2CH3CHCH6FeCSFeS2FeH2S2C3HFeH2C3H4C5H2C2H2CSHC2H4CHC2H2NHSHNHCH6CHSHNSCFeSFeS4C3HC5H3C2H3SCH3CH2SH2CHC2H3FeC3HCH3
_chemical_formula_sum              "H768 S192 Fe96 C480 N48"
_cell_length_a       48.336
_cell_length_b       48.4634
_cell_length_c       37.0801
_cell_angle_alpha    90.1457
_cell_angle_beta     90.3553
_cell_angle_gamma    121.995

_space_group_name_H-M_alt    "P 1"
_space_group_IT_number       1

loop_
  _space_group_symop_operation_xyz
  'x, y, z'

loop_
  _atom_site_type_symbol
  _atom_site_label
  _atom_site_symmetry_multiplicity
  _atom_site_fract_x
  _atom_site_fract_y
  _atom_site_fract_z
  _atom_site_occupancy
  H   H1        1.0  0.17349  0.39366  0.36908  1.0000
  H   H2        1.0  0.19996  0.41296  0.40708  1.0000
  S   S1        1.0  0.28452  0.41507  0.39873  1.0000
  H   H3        1.0  0.13394  0.39988  0.46945  1.0000
  H   H4        1.0  0.14898  0.37333  0.46478  1.0000
  Fe  Fe1       1.0  0.20040  0.47430  0.09084  1.0000
  S   S2        1.0  0.22959  0.49127  0.14311  1.0000
  S   S3        1.0  0.14864  0.46987  0.50157  1.0000
  H   H5        1.0  0.29393  0.47814  0.23613  1.0000
  Fe  Fe2       1.0  0.19883  0.48050  0.51351  1.0000
  S   S4        1.0  0.23233  0.49886  0.46568  1.0000
  H   H6        1.0  0.17690  0.41666  0.46577  1.0000
  C   C1        1.0  0.15260  0.39690  0.45572  1.0000
  S   S5        1.0  0.14624  0.45299  0.09181  1.0000
  Fe  Fe3       1.0  0.13144  0.42678  0.53706  1.0000
  C   C2        1.0  0.07033  0.39957  0.46165  1.0000
  H   H7        1.0  0.09506  0.42003  0.46275  1.0000
  C   C3        1.0  0.26926  0.43780  0.41689  1.0000
  C   C4        1.0  0.25643  0.43110  0.45184  1.0000
  C   C5        1.0  0.24508  0.44976  0.46730  1.0000
  C   C6        1.0  0.24633  0.47498  0.44768  1.0000
  C   C7        1.0  0.25890  0.48147  0.41269  1.0000
  C   C8        1.0  0.27027  0.46288  0.39729  1.0000
  H   H8        1.0  0.25571  0.41174  0.46715  1.0000
  H   H9        1.0  0.23576  0.44486  0.49450  1.0000
  H   H10       1.0  0.25969  0.50084  0.39734  1.0000
  S   S6        1.0  0.08413  0.37912  0.52493  1.0000
  C   C9        1.0  0.27908  0.44201  0.19429  1.0000
  C   C10       1.0  0.26205  0.43021  0.16143  1.0000
  C   C11       1.0  0.24666  0.44499  0.14537  1.0000
  C   C12       1.0  0.24834  0.47174  0.16210  1.0000
  C   C13       1.0  0.26546  0.48357  0.19488  1.0000
  H   H11       1.0  0.18021  0.45030  0.41469  1.0000
  H   H12       1.0  0.23351  0.43570  0.12013  1.0000
  C   C14       1.0  0.28076  0.46877  0.21095  1.0000
  H   H13       1.0  0.17199  0.36983  0.40700  1.0000
  C   C15       1.0  0.17488  0.39335  0.39904  1.0000
  C   C16       1.0  0.11716  0.37190  0.40401  1.0000
  H   H14       1.0  0.09778  0.37451  0.41653  1.0000
  H   H15       1.0  0.13735  0.43436  0.41784  1.0000
  H   H16       1.0  0.26690  0.50428  0.20792  1.0000
  H   H17       1.0  0.16679  0.53278  0.15913  1.0000
  N   N1        1.0  0.15006  0.39803  0.41608  1.0000
  H   H18       1.0  0.15431  0.43195  0.37582  1.0000
  H   H19       1.0  0.06539  0.47296  0.51687  1.0000
  S   S7        1.0  0.13061  0.51967  0.05951  1.0000
  C   C17       1.0  0.15569  0.43003  0.40559  1.0000
  H   H20       1.0  0.27964  0.46789  0.37020  1.0000
  H   H21       1.0  0.11424  0.37213  0.37423  1.0000
  H   H22       1.0  0.11218  0.34745  0.41155  1.0000
  H   H23       1.0  0.26063  0.40949  0.14841  1.0000
  H   H24       1.0  0.05963  0.41406  0.41115  1.0000
  C   C18       1.0  0.18674  0.53839  0.14005  1.0000
  Fe  Fe4       1.0  0.15596  0.49219  0.05252  1.0000
  S   S8        1.0  0.21012  0.51549  0.05458  1.0000
  S   S9        1.0  0.19787  0.44251  0.04495  1.0000
  S   S10       1.0  0.29823  0.42301  0.21367  1.0000
  H   H25       1.0  0.18994  0.51730  0.13998  1.0000
  H   H26       1.0  0.08421  0.45113  0.52985  1.0000
  C   C19       1.0  0.05863  0.37617  0.48876  1.0000
  C   C20       1.0  0.06024  0.44864  0.52526  1.0000
  C   C21       1.0  0.26829  0.49261  0.90773  1.0000
  H   H27       1.0  0.29346  0.48422  0.86544  1.0000
  H   H28       1.0  0.26994  0.35325  0.89449  1.0000
  H   H29       1.0  0.11455  0.42283  0.93300  1.0000
  H   H30       1.0  0.28503  0.43823  0.62993  1.0000
  Fe  Fe5       1.0  0.18599  0.46635  0.59282  1.0000
  H   H31       1.0  0.13258  0.36197  0.89858  1.0000
  S   S11       1.0  0.20335  0.46810  0.65019  1.0000
  C   C22       1.0  0.06454  0.32801  0.98399  1.0000
  S   S12       1.0  0.14942  0.46229  0.00352  1.0000
  S   S13       1.0  0.10799  0.37152  0.03278  1.0000
  Fe  Fe6       1.0  0.20304  0.48204  0.00884  1.0000
  S   S14       1.0  0.23388  0.50212  0.95906  1.0000
  H   H32       1.0  0.16818  0.42650  0.85842  1.0000
  H   H33       1.0  0.12562  0.43427  0.88678  1.0000
  S   S15       1.0  0.13416  0.45375  0.58739  1.0000
  C   C23       1.0  0.07727  0.35881  0.99948  1.0000
  C   C24       1.0  0.12313  0.37849  0.89979  1.0000
  H   H34       1.0  0.19544  0.45088  0.89421  1.0000
  C   C25       1.0  0.27316  0.44538  0.90410  1.0000
  C   C26       1.0  0.25553  0.43373  0.93617  1.0000
  C   C27       1.0  0.24457  0.45165  0.95417  1.0000
  C   C28       1.0  0.25046  0.48090  0.93966  1.0000
  S   S16       1.0  0.18152  0.43480  0.54553  1.0000
  S   S17       1.0  0.28578  0.42201  0.88156  1.0000
  H   H35       1.0  0.25055  0.41092  0.94726  1.0000
  H   H36       1.0  0.23140  0.44270  0.97910  1.0000
  H   H37       1.0  0.15391  0.45766  0.92242  1.0000
  H   H38       1.0  0.27313  0.45908  0.73937  1.0000
  N   N2        1.0  0.14877  0.41151  0.91182  1.0000
  C   C29       1.0  0.24915  0.45129  0.63790  1.0000
  C   C30       1.0  0.23367  0.46010  0.66303  1.0000
  C   C31       1.0  0.24256  0.46293  0.69962  1.0000
  C   C32       1.0  0.26670  0.45699  0.71111  1.0000
  H   H39       1.0  0.24238  0.44893  0.60969  1.0000
  H   H40       1.0  0.23059  0.46965  0.71919  1.0000
  H   H41       1.0  0.29676  0.31052  0.91646  1.0000
  C   C33       1.0  0.13507  0.43247  0.91352  1.0000
  H   H42       1.0  0.17187  0.39469  0.94780  1.0000
  H   H43       1.0  0.10209  0.36746  0.91866  1.0000
  H   H44       1.0  0.29330  0.33835  0.94549  1.0000
  H   H45       1.0  0.27297  0.51525  0.89641  1.0000
  C   C34       1.0  0.27983  0.47502  0.89010  1.0000
  C   C35       1.0  0.06527  0.37821  0.98820  1.0000
  H   H46       1.0  0.07364  0.31291  0.99258  1.0000
  H   H47       1.0  0.11351  0.37888  0.87259  1.0000
  H   H48       1.0  0.14050  0.39870  0.96781  1.0000
  H   H49       1.0  0.18824  0.41124  0.88547  1.0000
  H   H50       1.0  0.17925  0.43420  0.95832  1.0000
  C   C36       1.0  0.16062  0.40963  0.94798  1.0000
  H   H51       1.0  0.07484  0.40197  0.00026  1.0000
  C   C37       1.0  0.17627  0.42554  0.88628  1.0000
  C   C38       1.0  0.27325  0.44521  0.64945  1.0000
  H   H52       1.0  0.29162  0.36704  0.85313  1.0000
  C   C39       1.0  0.28214  0.44809  0.68607  1.0000
  C   C40       1.0  0.05612  0.46159  0.58712  1.0000
  S   S18       1.0  0.20650  0.51272  0.56115  1.0000
  C   C41       1.0  0.28659  0.35050  0.87629  1.0000
  H   H53       1.0  0.27323  0.32515  0.86562  1.0000
  H   H54       1.0  0.05977  0.48544  0.57915  1.0000
  H   H55       1.0  0.08079  0.46627  0.59357  1.0000
  S   S19       1.0  0.12977  0.52614  0.55202  1.0000
  Fe  Fe7       1.0  0.15436  0.49755  0.55229  1.0000
  H   H56       1.0  0.06018  0.40899  0.57589  1.0000
  Fe  Fe8       1.0  0.14429  0.42486  0.04263  1.0000
  C   C42       1.0  0.21135  0.77430  0.52035  1.0000
  Fe  Fe9       1.0  0.22402  0.74149  0.15784  1.0000
  S   S20       1.0  0.18755  0.75447  0.14044  1.0000
  Fe  Fe10      1.0  0.21136  0.69870  0.09187  1.0000
  S   S21       1.0  0.17322  0.70712  0.07015  1.0000
  C   C43       1.0  0.24898  0.68184  0.52435  1.0000
  Fe  Fe11      1.0  0.20903  0.75937  0.08497  1.0000
  H   H57       1.0  0.28728  0.77825  0.27603  1.0000
  Fe  Fe12      1.0  0.15568  0.70110  0.12716  1.0000
  S   S22       1.0  0.10354  0.66323  0.14119  1.0000
  S   S23       1.0  0.24803  0.75096  0.10399  1.0000
  S   S24       1.0  0.19105  0.68804  0.14753  1.0000
  H   H58       1.0  0.29417  0.82210  0.31688  1.0000
  H   H59       1.0  0.14968  0.74008  0.22189  1.0000
  C   C44       1.0  0.17267  0.73729  0.28706  1.0000
  C   C45       1.0  0.22887  0.56550  0.18538  1.0000
  H   H60       1.0  0.19934  0.75276  0.28164  1.0000
  C   C46       1.0  0.20063  0.67962  0.50259  1.0000
  H   H61       1.0  0.27250  0.95337  0.26556  1.0000
  C   C47       1.0  0.16976  0.61629  0.07307  1.0000
  H   H62       1.0  0.06517  0.72152  0.21401  1.0000
  C   C48       1.0  0.24244  0.57610  0.12236  1.0000
  C   C49       1.0  0.14785  0.58245  0.07245  1.0000
  H   H63       1.0  0.16289  0.75355  0.28647  1.0000
  H   H64       1.0  0.16287  0.63189  0.08577  1.0000
  H   H65       1.0  0.10749  0.67009  0.24874  1.0000
  H   H66       1.0  0.18629  0.73955  0.21687  1.0000
  C   C50       1.0  0.07980  0.66703  0.17427  1.0000
  H   H67       1.0  0.17486  0.67187  0.50817  1.0000
  H   H68       1.0  0.19753  0.62239  0.50832  1.0000
  C   C51       1.0  0.28456  0.94034  0.25671  1.0000
  S   S25       1.0  0.25203  0.75231  0.21004  1.0000
  H   H69       1.0  0.16769  0.67922  0.28833  1.0000
  H   H70       1.0  0.14791  0.70496  0.20300  1.0000
  C   C52       1.0  0.25802  0.78483  0.23706  1.0000
  S   S26       1.0  0.17953  0.73450  0.53051  1.0000
  H   H71       1.0  0.25194  0.58813  0.19360  1.0000
  C   C53       1.0  0.16007  0.72442  0.22394  1.0000
  N   N3        1.0  0.15593  0.71057  0.26032  1.0000
  H   H72       1.0  0.16989  0.72782  0.31496  1.0000
  C   C54       1.0  0.12075  0.69039  0.26859  1.0000
  C   C55       1.0  0.17037  0.69026  0.26133  1.0000
  H   H73       1.0  0.11655  0.67949  0.29590  1.0000
  H   H74       1.0  0.10310  0.71904  0.17081  1.0000
  H   H75       1.0  0.19695  0.70491  0.25510  1.0000
  C   C56       1.0  0.15683  0.56205  0.05664  1.0000
  C   C57       1.0  0.24378  0.80264  0.22812  1.0000
  H   H76       1.0  0.15864  0.67021  0.24099  1.0000
  H   H77       1.0  0.10905  0.70495  0.26761  1.0000
  C   C58       1.0  0.19585  0.63362  0.53375  1.0000
  C   C59       1.0  0.08409  0.69708  0.18352  1.0000
  C   C60       1.0  0.27618  0.79195  0.26908  1.0000
  H   H78       1.0  0.12416  0.57201  0.08483  1.0000
  H   H79       1.0  0.25182  0.67228  0.49822  1.0000
  H   H80       1.0  0.26358  0.70892  0.52298  1.0000
  H   H81       1.0  0.21452  0.70660  0.49979  1.0000
  H   H82       1.0  0.21956  0.76077  0.46793  1.0000
  H   H83       1.0  0.23402  0.61956  0.15748  1.0000
  H   H84       1.0  0.19252  0.59143  0.17082  1.0000
  H   H85       1.0  0.26943  0.91481  0.26655  1.0000
  C   C61       1.0  0.22719  0.78040  0.48713  1.0000
  H   H86       1.0  0.23007  0.79755  0.20326  1.0000
  C   C62       1.0  0.20063  0.62972  0.05773  1.0000
  S   S27       1.0  0.26895  0.86438  0.31277  1.0000
  C   C63       1.0  0.28008  0.81672  0.29222  1.0000
  C   C64       1.0  0.26290  0.83750  0.50307  1.0000
  H   H87       1.0  0.27828  0.79574  0.04933  1.0000
  C   C65       1.0  0.24717  0.82703  0.25162  1.0000
  C   C66       1.0  0.25301  0.81187  0.47860  1.0000
  H   H88       1.0  0.23584  0.84054  0.24488  1.0000
  H   H89       1.0  0.26519  0.81622  0.45310  1.0000
  H   H90       1.0  0.23452  0.57887  0.09505  1.0000
  S   S28       1.0  0.22920  0.67162  0.06020  1.0000
  C   C67       1.0  0.26532  0.83407  0.28366  1.0000
  H   H91       1.0  0.26592  0.59898  0.12877  1.0000
  C   C68       1.0  0.21141  0.59592  0.15069  1.0000
  N   N4        1.0  0.21738  0.56900  0.14966  1.0000
  H   H92       1.0  0.20113  0.66910  0.47610  1.0000
  H   H93       1.0  0.16952  0.62359  0.53879  1.0000
  N   N5        1.0  0.21433  0.66952  0.53176  1.0000
  H   H94       1.0  0.20259  0.59889  0.12405  1.0000
  H   H95       1.0  0.24740  0.55615  0.12066  1.0000
  H   H96       1.0  0.28388  0.93933  0.22671  1.0000
  S   S29       1.0  0.29615  0.87704  0.49400  1.0000
  C   C69       1.0  0.06258  0.69840  0.20789  1.0000
  C   C70       1.0  0.05471  0.63862  0.19034  1.0000
  C   C71       1.0  0.24647  0.83149  0.53593  1.0000
  H   H97       1.0  0.21039  0.55973  0.20654  1.0000
  H   H98       1.0  0.23369  0.54537  0.18514  1.0000
  H   H99       1.0  0.05132  0.61532  0.18331  1.0000
  H   H100      1.0  0.17817  0.53967  0.11269  1.0000
  H   H101      1.0  0.18595  0.67330  0.57350  1.0000
  Fe  Fe13      1.0  0.17138  0.74463  0.66715  1.0000
  S   S30       1.0  0.13727  0.74046  0.62297  1.0000
  Fe  Fe14      1.0  0.16476  0.68063  0.64609  1.0000
  S   S31       1.0  0.12956  0.67141  0.60129  1.0000
  S   S32       1.0  0.18420  0.64802  0.65617  1.0000
  Fe  Fe15      1.0  0.16395  0.72405  0.58849  1.0000
  C   C72       1.0  0.29228  0.83080  0.75107  1.0000
  Fe  Fe16      1.0  0.10643  0.68833  0.64048  1.0000
  H   H102      1.0  0.09982  0.70032  0.75167  1.0000
  S   S33       1.0  0.20074  0.73259  0.63111  1.0000
  S   S34       1.0  0.13905  0.69354  0.68676  1.0000
  H   H103      1.0  0.18550  0.68381  0.94906  1.0000
  C   C73       1.0  0.20927  0.60942  0.04109  1.0000
  C   C74       1.0  0.29741  0.89494  0.62769  1.0000
  C   C75       1.0  0.06134  0.72447  0.75909  1.0000
  C   C76       1.0  0.14395  0.55822  0.58332  1.0000
  C   C77       1.0  0.12698  0.57419  0.58675  1.0000
  C   C78       1.0  0.13868  0.60113  0.60988  1.0000
  C   C79       1.0  0.16757  0.61250  0.62950  1.0000
  C   C80       1.0  0.18405  0.59591  0.62690  1.0000
  C   C81       1.0  0.17225  0.56877  0.60385  1.0000
  H   H104      1.0  0.20596  0.70283  0.01080  1.0000
  H   H105      1.0  0.12508  0.61282  0.61276  1.0000
  H   H106      1.0  0.25203  0.69017  0.94062  1.0000
  C   C82       1.0  0.20677  0.70686  0.93869  1.0000
  H   H107      1.0  0.21826  0.74348  0.99778  1.0000
  H   H108      1.0  0.26547  0.70383  0.98631  1.0000
  C   C83       1.0  0.25677  0.82965  0.98362  1.0000
  S   S35       1.0  0.18907  0.78656  0.70622  1.0000
  H   H109      1.0  0.13787  0.73857  0.75125  1.0000
  H   H110      1.0  0.18531  0.55635  0.60162  1.0000
  S   S36       1.0  0.05167  0.66455  0.64442  1.0000
  C   C84       1.0  0.26745  0.83736  0.64008  1.0000
  C   C85       1.0  0.27883  0.80347  0.72830  1.0000
  H   H111      1.0  0.12074  0.75508  0.69582  1.0000
  C   C86       1.0  0.21183  0.68305  0.56647  1.0000
  H   H112      1.0  0.25643  0.76931  0.94701  1.0000
  H   H113      1.0  0.22427  0.71003  0.56550  1.0000
  H   H114      1.0  0.06018  0.72365  0.78907  1.0000
  H   H115      1.0  0.22434  0.67186  0.97772  1.0000
  N   N6        1.0  0.09541  0.74199  0.74631  1.0000
  C   C87       1.0  0.24474  0.69534  0.96695  1.0000
  C   C88       1.0  0.11217  0.72612  0.76064  1.0000
  H   H116      1.0  0.20621  0.60432  0.64238  1.0000
  N   N7        1.0  0.23515  0.71957  0.96336  1.0000
  H   H117      1.0  0.07498  0.65037  0.70974  1.0000
  H   H118      1.0  0.23302  0.61976  0.02891  1.0000
  H   H119      1.0  0.13864  0.78984  0.74986  1.0000
  H   H120      1.0  0.20832  0.79542  0.57009  1.0000
  C   C89       1.0  0.09549  0.74122  0.70647  1.0000
  H   H121      1.0  0.10111  0.78909  0.74822  1.0000
  C   C90       1.0  0.27321  0.84314  0.76180  1.0000
  H   H122      1.0  0.26963  0.74683  0.92153  1.0000
  C   C91       1.0  0.26267  0.75026  0.94894  1.0000
  C   C92       1.0  0.22623  0.72574  0.99914  1.0000
  H   H123      1.0  0.11305  0.77773  0.78890  1.0000
  H   H124      1.0  0.28554  0.85364  0.93628  1.0000
  H   H125      1.0  0.21248  0.70176  0.91137  1.0000
  H   H126      1.0  0.08381  0.71593  0.69597  1.0000
  C   C93       1.0  0.28401  0.84104  0.96096  1.0000
  H   H127      1.0  0.19892  0.72461  0.93565  1.0000
  H   H128      1.0  0.22673  0.83903  0.75615  1.0000
  H   H129      1.0  0.08207  0.75191  0.69459  1.0000
  H   H130      1.0  0.23645  0.76779  0.69815  1.0000
  H   H131      1.0  0.28349  0.89115  0.60219  1.0000
  H   H132      1.0  0.24705  0.73559  0.01859  1.0000
  C   C94       1.0  0.24657  0.78878  0.71580  1.0000
  H   H133      1.0  0.23750  0.83370  0.97633  1.0000
  H   H134      1.0  0.19404  0.56013  0.02728  1.0000
  H   H135      1.0  0.25234  0.83185  0.61528  1.0000
  H   H136      1.0  0.05040  0.63255  0.77010  1.0000
  H   H137      1.0  0.28357  0.86440  0.77913  1.0000
  C   C95       1.0  0.11275  0.77617  0.75894  1.0000
  H   H138      1.0  0.11273  0.72640  0.79063  1.0000
  C   C96       1.0  0.24109  0.82880  0.74872  1.0000
  C   C97       1.0  0.22791  0.80186  0.72535  1.0000
  H   H139      1.0  0.28455  0.89933  0.64967  1.0000
  H   H140      1.0  0.25321  0.85144  0.55427  1.0000
  H   H141      1.0  0.26869  0.81556  0.64610  1.0000
  H   H142      1.0  0.25403  0.84036  0.66254  1.0000
  H   H143      1.0  0.22268  0.67672  0.58913  1.0000
  C   C98       1.0  0.22100  0.79990  0.54479  1.0000
  H   H144      1.0  0.10486  0.56589  0.57127  1.0000
  C   C99       1.0  0.05064  0.64503  0.71433  1.0000
  C   C100      1.0  0.27942  0.80791  0.02465  1.0000
  C   C101      1.0  0.25421  0.81273  0.01541  1.0000
  H   H145      1.0  0.28461  0.76021  0.96668  1.0000
  H   H146      1.0  0.29354  0.79384  0.72002  1.0000
  H   H147      1.0  0.20502  0.62517  0.55609  1.0000
  H   H148      1.0  0.25994  0.67450  0.54588  1.0000
  N   N8        1.0  0.30034  0.86673  0.63575  1.0000
  S   S37       1.0  0.21891  0.79701  0.04236  1.0000
  C   C102      1.0  0.18737  0.57564  0.04050  1.0000
  C   C103      1.0  0.38369  0.35375  0.39296  1.0000
  S   S38       1.0  0.31837  0.47125  0.31055  1.0000
  H   H149      1.0  0.33818  0.35825  0.15834  1.0000
  C   C104      1.0  0.36321  0.37143  0.17031  1.0000
  H   H150      1.0  0.40568  0.53684  0.25185  1.0000
  H   H151      1.0  0.36629  0.44101  0.19330  1.0000
  C   C105      1.0  0.40075  0.53692  0.42245  1.0000
  H   H152      1.0  0.34529  0.47707  0.42608  1.0000
  H   H153      1.0  0.34835  0.51225  0.37762  1.0000
  H   H154      1.0  0.32672  0.52611  0.40356  1.0000
  C   C106      1.0  0.34393  0.38311  0.22453  1.0000
  H   H155      1.0  0.36656  0.35321  0.18461  1.0000
  H   H156      1.0  0.33796  0.40931  0.16373  1.0000
  N   N9        1.0  0.36790  0.39750  0.19513  1.0000
  H   H157      1.0  0.36048  0.37532  0.36475  1.0000
  H   H158      1.0  0.51524  0.05103  0.14826  1.0000
  S   S39       1.0  0.37087  0.46148  0.35848  1.0000
  H   H159      1.0  0.42206  0.30137  0.50455  1.0000
  Fe  Fe17      1.0  0.31670  0.43512  0.34980  1.0000
  H   H160      1.0  0.50878  0.31757  0.18923  1.0000
  C   C107      1.0  0.42347  0.04914  0.33297  1.0000
  S   S40       1.0  0.54124  0.35055  0.49220  1.0000
  S   S41       1.0  0.48026  0.36178  0.49835  1.0000
  S   S42       1.0  0.31636  0.40195  0.30721  1.0000
  Fe  Fe18      1.0  0.37086  0.43161  0.31238  1.0000
  Fe  Fe19      1.0  0.52944  0.38707  0.47295  1.0000
  C   C108      1.0  0.43662  0.36793  0.37093  1.0000
  Fe  Fe20      1.0  0.37281  0.49562  0.31637  1.0000
  S   S43       1.0  0.37747  0.46813  0.27074  1.0000
  H   H161      1.0  0.52537  0.05013  0.19483  1.0000
  H   H162      1.0  0.42013  0.42536  0.18933  1.0000
  C   C109      1.0  0.52976  0.06647  0.17166  1.0000
  H   H163      1.0  0.41752  0.24865  0.51287  1.0000
  C   C110      1.0  0.36312  0.42110  0.17524  1.0000
  H   H164      1.0  0.33320  0.25553  0.52079  1.0000
  C   C111      1.0  0.40126  0.41434  0.21062  1.0000
  H   H165      1.0  0.51323  0.29019  0.16051  1.0000
  S   S44       1.0  0.45081  0.27919  0.07367  1.0000
  C   C112      1.0  0.41115  0.35100  0.39536  1.0000
  H   H166      1.0  0.38089  0.38139  0.14772  1.0000
  Fe  Fe21      1.0  0.49204  0.18126  0.25575  1.0000
  S   S45       1.0  0.46043  0.14662  0.21146  1.0000
  S   S46       1.0  0.46746  0.20005  0.29091  1.0000
  C   C113      1.0  0.47028  0.27257  0.23849  1.0000
  S   S47       1.0  0.52398  0.14388  0.18906  1.0000
  Fe  Fe22      1.0  0.50448  0.17584  0.17679  1.0000
  S   S48       1.0  0.50657  0.19150  0.11874  1.0000
  Fe  Fe23      1.0  0.48285  0.11802  0.22808  1.0000
  S   S49       1.0  0.45802  0.06318  0.23071  1.0000
  S   S50       1.0  0.53471  0.21259  0.21983  1.0000
  S   S51       1.0  0.51110  0.15040  0.27486  1.0000
  C   C114      1.0  0.49067  0.23114  0.32256  1.0000
  C   C115      1.0  0.47514  0.24319  0.34328  1.0000
  C   C116      1.0  0.49291  0.26825  0.36855  1.0000
  C   C117      1.0  0.40690  0.38970  0.34147  1.0000
  H   H167      1.0  0.45379  0.39937  0.32457  1.0000
  C   C118      1.0  0.52421  0.24450  0.32683  1.0000
  H   H168      1.0  0.44921  0.23295  0.33999  1.0000
  H   H169      1.0  0.40556  0.43421  0.22948  1.0000
  H   H170      1.0  0.54096  0.28019  0.21090  1.0000
  C   C119      1.0  0.46649  0.25483  0.08547  1.0000
  C   C120      1.0  0.44829  0.22800  0.10804  1.0000
  C   C121      1.0  0.46028  0.20828  0.11814  1.0000
  C   C122      1.0  0.49094  0.21577  0.10647  1.0000
  C   C123      1.0  0.50884  0.24218  0.08326  1.0000
  C   C124      1.0  0.49670  0.26172  0.07284  1.0000
  H   H171      1.0  0.44588  0.18730  0.13509  1.0000
  H   H172      1.0  0.53241  0.24782  0.07373  1.0000
  H   H173      1.0  0.47376  0.28415  0.16701  1.0000
  H   H174      1.0  0.44793  0.08955  0.29634  1.0000
  C   C125      1.0  0.43821  0.06389  0.30014  1.0000
  C   C126      1.0  0.47714  0.23669  0.19967  1.0000
  N   N10       1.0  0.49214  0.27062  0.21229  1.0000
  H   H175      1.0  0.42468  0.22228  0.11746  1.0000
  H   H176      1.0  0.36035  0.49313  0.47041  1.0000
  H   H177      1.0  0.35951  0.26217  0.46135  1.0000
  H   H178      1.0  0.34700  0.36554  0.24068  1.0000
  C   C127      1.0  0.43428  0.38685  0.34379  1.0000
  C   C128      1.0  0.34838  0.49574  0.44607  1.0000
  H   H179      1.0  0.34691  0.40223  0.24343  1.0000
  H   H180      1.0  0.46588  0.25669  0.26223  1.0000
  H   H181      1.0  0.40545  0.39741  0.22659  1.0000
  H   H182      1.0  0.36386  0.34068  0.41170  1.0000
  H   H183      1.0  0.31837  0.37050  0.21413  1.0000
  H   H184      1.0  0.42211  0.06364  0.35433  1.0000
  C   C129      1.0  0.52381  0.28128  0.22992  1.0000
  H   H185      1.0  0.38068  0.43251  0.15275  1.0000
  H   H186      1.0  0.49332  0.23422  0.18049  1.0000
  C   C130      1.0  0.39366  0.23959  0.52624  1.0000
  H   H187      1.0  0.48068  0.27728  0.38451  1.0000
  C   C131      1.0  0.44000  0.04540  0.27231  1.0000
  H   H188      1.0  0.53571  0.30665  0.24031  1.0000
  C   C132      1.0  0.52634  0.28139  0.37319  1.0000
  H   H189      1.0  0.39447  0.25892  0.45803  1.0000
  Fe  Fe24      1.0  0.32276  0.44042  0.26827  1.0000
  C   C133      1.0  0.38175  0.37340  0.36641  1.0000
  S   S52       1.0  0.46856  0.29437  0.46077  1.0000
  H   H190      1.0  0.44607  0.26449  0.22617  1.0000
  H   H191      1.0  0.32350  0.48938  0.45394  1.0000
  H   H192      1.0  0.47258  0.21992  0.22224  1.0000
  Fe  Fe25      1.0  0.48974  0.32238  0.51236  1.0000
  H   H193      1.0  0.45776  0.36582  0.37238  1.0000
  S   S53       1.0  0.40413  0.41235  0.30592  1.0000
  Fe  Fe26      1.0  0.46180  0.33541  0.44556  1.0000
  S   S54       1.0  0.51035  0.36414  0.41862  1.0000
  S   S55       1.0  0.41229  0.32505  0.42797  1.0000
  Fe  Fe27      1.0  0.51921  0.32597  0.43900  1.0000
  H   H194      1.0  0.45320  0.22778  0.18627  1.0000
  C   C134      1.0  0.54202  0.26965  0.35212  1.0000
  H   H195      1.0  0.53632  0.23528  0.31093  1.0000
  N   N11       1.0  0.37733  0.25599  0.51215  1.0000
  H   H196      1.0  0.52068  0.26542  0.25325  1.0000
  H   H197      1.0  0.51954  0.08156  0.17920  1.0000
  H   H198      1.0  0.48087  0.29781  0.24885  1.0000
  C   C135      1.0  0.49723  0.29164  0.18099  1.0000
  H   H199      1.0  0.40018  0.51966  0.40218  1.0000
  N   N12       1.0  0.36747  0.52894  0.43108  1.0000
  C   C136      1.0  0.35133  0.53061  0.39791  1.0000
  C   C137      1.0  0.37127  0.24963  0.47298  1.0000
  H   H200      1.0  0.35531  0.22319  0.46693  1.0000
  H   H201      1.0  0.37852  0.21281  0.52191  1.0000
  C   C138      1.0  0.39849  0.29139  0.51855  1.0000
  H   H202      1.0  0.38724  0.30478  0.50803  1.0000
  S   S56       1.0  0.54893  0.31258  0.40502  1.0000
  H   H203      1.0  0.32940  0.21684  0.52663  1.0000
  H   H204      1.0  0.51106  0.28248  0.05566  1.0000
  H   H205      1.0  0.55002  0.16153  0.53674  1.0000
  C   C139      1.0  0.34602  0.24352  0.53084  1.0000
  H   H206      1.0  0.51648  0.28210  0.53722  1.0000
  H   H207      1.0  0.41380  0.53595  0.44674  1.0000
  Fe  Fe28      1.0  0.32264  0.44789  0.83756  1.0000
  S   S57       1.0  0.32694  0.41599  0.79689  1.0000
  H   H208      1.0  0.49270  0.31204  0.70982  1.0000
  Fe  Fe29      1.0  0.33378  0.45347  0.75645  1.0000
  C   C140      1.0  0.50234  0.26333  0.72322  1.0000
  S   S58       1.0  0.32510  0.48295  0.79631  1.0000
  Fe  Fe30      1.0  0.38069  0.44756  0.80794  1.0000
  H   H209      1.0  0.31763  0.39628  0.92669  1.0000
  H   H210      1.0  0.46559  0.06897  0.77110  1.0000
  Fe  Fe31      1.0  0.53130  0.14928  0.72584  1.0000
  S   S59       1.0  0.41014  0.42373  0.81304  1.0000
  H   H211      1.0  0.39902  0.24427  0.55566  1.0000
  S   S60       1.0  0.53319  0.23742  0.79484  1.0000
  N   N13       1.0  0.31708  0.35863  0.89512  1.0000
  S   S61       1.0  0.37609  0.47724  0.85120  1.0000
  C   C141      1.0  0.52999  0.43623  0.92217  1.0000
  H   H212      1.0  0.53308  0.49309  0.91915  1.0000
  H   H213      1.0  0.30779  0.51910  0.67837  1.0000
  C   C142      1.0  0.33374  0.39246  0.90877  1.0000
  H   H214      1.0  0.40424  0.29732  0.54773  1.0000
  H   H215      1.0  0.49294  0.25759  0.75131  1.0000
  H   H216      1.0  0.42125  0.16074  0.01910  1.0000
  H   H217      1.0  0.53472  0.24606  0.55961  1.0000
  H   H218      1.0  0.43211  0.38157  0.83383  1.0000
  S   S62       1.0  0.38832  0.48227  0.76336  1.0000
  Fe  Fe32      1.0  0.37931  0.50948  0.80581  1.0000
  H   H219      1.0  0.34598  0.37274  0.84692  1.0000
  H   H220      1.0  0.44466  0.23375  0.01579  1.0000
  H   H221      1.0  0.49517  0.23902  0.99324  1.0000
  Fe  Fe33      1.0  0.51141  0.19411  0.75729  1.0000
  S   S63       1.0  0.47005  0.17834  0.71761  1.0000
  H   H222      1.0  0.53369  0.49926  0.96709  1.0000
  C   C143      1.0  0.36242  0.52456  0.65332  1.0000
  S   S64       1.0  0.49264  0.13067  0.68317  1.0000
  Fe  Fe34      1.0  0.50594  0.18224  0.67665  1.0000
  C   C144      1.0  0.39788  0.04776  0.82985  1.0000
  Fe  Fe35      1.0  0.46020  0.12796  0.72777  1.0000
  S   S65       1.0  0.41170  0.08049  0.72683  1.0000
  H   H223      1.0  0.42806  0.19333  0.92653  1.0000
  S   S66       1.0  0.49826  0.14339  0.77124  1.0000
  C   C145      1.0  0.50775  0.24200  0.82459  1.0000
  C   C146      1.0  0.47397  0.22031  0.82396  1.0000
  C   C147      1.0  0.45420  0.22518  0.84740  1.0000
  C   C148      1.0  0.46813  0.25167  0.87146  1.0000
  C   C149      1.0  0.52167  0.26847  0.84866  1.0000
  H   H224      1.0  0.46308  0.19987  0.80541  1.0000
  H   H225      1.0  0.42802  0.20842  0.84680  1.0000
  C   C150      1.0  0.43091  0.21693  0.99304  1.0000
  C   C151      1.0  0.48368  0.27183  0.58129  1.0000
  H   H226      1.0  0.34104  0.41010  0.88626  1.0000
  C   C152      1.0  0.44650  0.17904  0.01044  1.0000
  C   C153      1.0  0.50442  0.23090  0.60685  1.0000
  C   C154      1.0  0.48134  0.23384  0.62613  1.0000
  C   C155      1.0  0.47097  0.25427  0.61334  1.0000
  H   H227      1.0  0.50435  0.31363  0.75627  1.0000
  H   H228      1.0  0.53662  0.44762  0.89506  1.0000
  H   H229      1.0  0.47109  0.21996  0.65048  1.0000
  C   C156      1.0  0.40862  0.06849  0.79984  1.0000
  H   H230      1.0  0.42288  0.09460  0.80365  1.0000
  H   H231      1.0  0.49297  0.21072  0.96023  1.0000
  H   H232      1.0  0.34162  0.49893  0.65527  1.0000
  N   N14       1.0  0.44655  0.19938  0.98076  1.0000
  C   C157      1.0  0.48055  0.22309  0.97013  1.0000
  C   C158      1.0  0.51357  0.31798  0.72807  1.0000
  C   C159      1.0  0.42828  0.17855  0.94941  1.0000
  S   S67       1.0  0.51824  0.20570  0.62169  1.0000
  H   H233      1.0  0.51280  0.29373  0.89072  1.0000
  H   H234      1.0  0.42972  0.23189  0.97112  1.0000
  C   C160      1.0  0.50665  0.26875  0.56200  1.0000
  H   H235      1.0  0.54429  0.19030  0.56065  1.0000
  S   S68       1.0  0.47056  0.29751  0.56608  1.0000
  H   H236      1.0  0.45295  0.25635  0.62817  1.0000
  H   H237      1.0  0.50302  0.41923  0.92248  1.0000
  H   H238      1.0  0.45986  0.19409  0.03458  1.0000
  C   C161      1.0  0.33866  0.35534  0.86975  1.0000
  H   H239      1.0  0.48148  0.23910  0.94804  1.0000
  H   H240      1.0  0.33200  0.34182  0.94043  1.0000
  C   C162      1.0  0.42241  0.41959  0.92110  1.0000
  C   C163      1.0  0.53076  0.44449  0.98644  1.0000
  S   S69       1.0  0.44270  0.25678  0.90066  1.0000
  H   H241      1.0  0.36144  0.36032  0.88339  1.0000
  H   H242      1.0  0.40554  0.19991  0.00230  1.0000
  H   H243      1.0  0.41966  0.43025  0.94544  1.0000
  H   H244      1.0  0.44196  0.36508  0.89351  1.0000
  C   C164      1.0  0.43524  0.38307  0.89197  1.0000
  H   H245      1.0  0.53073  0.07143  0.77900  1.0000
  C   C165      1.0  0.42960  0.39240  0.85817  1.0000
  C   C166      1.0  0.43139  0.39646  0.92356  1.0000
  H   H246      1.0  0.49886  0.46478  0.94591  1.0000
  H   H247      1.0  0.45849  0.16572  0.00238  1.0000
  N   N15       1.0  0.52762  0.29815  0.71925  1.0000
  H   H248      1.0  0.32658  0.33043  0.85796  1.0000
  C   C167      1.0  0.41972  0.41486  0.85573  1.0000
  S   S70       1.0  0.54788  0.20117  0.71544  1.0000
  H   H249      1.0  0.51239  0.24785  0.71705  1.0000
  H   H250      1.0  0.43937  0.16493  0.93934  1.0000
  H   H251      1.0  0.53960  0.46225  0.00917  1.0000
  S   S71       1.0  0.31367  0.44194  0.69927  1.0000
  H   H252      1.0  0.40933  0.44634  0.88571  1.0000
  H   H253      1.0  0.34011  0.50834  0.72118  1.0000
  H   H254      1.0  0.48120  0.25579  0.70482  1.0000
  H   H255      1.0  0.35610  0.39905  0.92443  1.0000
  H   H256      1.0  0.34985  0.24814  0.56043  1.0000
  C   C168      1.0  0.50191  0.27328  0.87217  1.0000
  H   H257      1.0  0.40242  0.16052  0.95629  1.0000
  H   H258      1.0  0.50373  0.42876  0.98827  1.0000
  H   H259      1.0  0.51947  0.29911  0.66225  1.0000
  Fe  Fe36      1.0  0.46782  0.30770  0.02167  1.0000
  S   S72       1.0  0.50204  0.30488  0.98346  1.0000
  S   S73       1.0  0.43012  0.29806  0.97949  1.0000
  Fe  Fe37      1.0  0.45753  0.35204  0.97092  1.0000
  S   S74       1.0  0.49029  0.35147  0.92895  1.0000
  S   S75       1.0  0.43702  0.38453  0.96651  1.0000
  C   C169      1.0  0.51696  0.24833  0.57475  1.0000
  Fe  Fe38      1.0  0.52308  0.35849  0.97598  1.0000
  C   C170      1.0  0.41651  0.42872  0.88731  1.0000
  S   S76       1.0  0.49154  0.36186  0.01749  1.0000
  C   C171      1.0  0.52605  0.48046  0.94560  1.0000
  Fe  Fe39      1.0  0.46577  0.29824  0.94081  1.0000
  H   H260      1.0  0.51325  0.08553  0.81095  1.0000
  H   H261      1.0  0.38513  0.52419  0.65683  1.0000
  H   H262      1.0  0.40406  0.05796  0.85681  1.0000
  H   H263      1.0  0.54818  0.13563  0.59464  1.0000
  H   H264      1.0  0.52332  0.05614  0.82432  1.0000
  C   C172      1.0  0.39980  0.05535  0.76501  1.0000
  H   H265      1.0  0.45712  0.04759  0.83345  1.0000
  N   N16       1.0  0.54097  0.46090  0.95118  1.0000
  H   H266      1.0  0.54784  0.28528  0.84922  1.0000
  H   H267      1.0  0.54700  0.30237  0.77277  1.0000
  C   C173      1.0  0.46791  0.04843  0.76183  1.0000
  H   H268      1.0  0.36217  0.53298  0.62553  1.0000
  C   C174      1.0  0.51338  0.06366  0.80188  1.0000
  C   C175      1.0  0.30939  0.33629  0.92574  1.0000
  H   H269      1.0  0.54133  0.42143  0.92519  1.0000
  C   C176      1.0  0.53940  0.30439  0.68165  1.0000
  H   H270      1.0  0.54061  0.42861  0.99084  1.0000
  H   H271      1.0  0.53201  0.34444  0.72544  1.0000
  H   H272      1.0  0.54383  0.16497  0.61922  1.0000
  C   C177      1.0  0.36113  0.53356  0.71713  1.0000
  H   H273      1.0  0.38373  0.53321  0.72144  1.0000
  H   H274      1.0  0.48448  0.05727  0.73819  1.0000
  H   H275      1.0  0.54894  0.28878  0.67368  1.0000
  H   H276      1.0  0.51418  0.72502  0.42260  1.0000
  H   H277      1.0  0.48150  0.95457  0.31137  1.0000
  S   S77       1.0  0.54201  0.85700  0.46727  1.0000
  H   H278      1.0  0.43465  0.93983  0.39488  1.0000
  H   H279      1.0  0.34457  0.54711  0.46491  1.0000
  C   C178      1.0  0.36936  0.55253  0.45785  1.0000
  H   H280      1.0  0.30262  0.93238  0.32188  1.0000
  H   H281      1.0  0.32716  0.00456  0.26501  1.0000
  Fe  Fe40      1.0  0.36235  0.94349  0.38684  1.0000
  S   S78       1.0  0.31246  0.84914  0.39839  1.0000
  H   H282      1.0  0.41567  0.56162  0.41049  1.0000
  H   H283      1.0  0.44333  0.95254  0.31499  1.0000
  S   S79       1.0  0.35978  0.90963  0.34411  1.0000
  S   S80       1.0  0.40626  0.54921  0.32846  1.0000
  N   N17       1.0  0.53974  0.76361  0.46166  1.0000
  Fe  Fe41      1.0  0.30656  0.87957  0.35707  1.0000
  H   H284      1.0  0.44957  0.92424  0.33911  1.0000
  S   S81       1.0  0.30854  0.91532  0.39721  1.0000
  H   H285      1.0  0.51122  0.01294  0.33051  1.0000
  Fe  Fe42      1.0  0.36635  0.88325  0.38986  1.0000
  H   H286      1.0  0.36583  0.55485  0.38484  1.0000
  H   H287      1.0  0.50851  0.98415  0.40561  1.0000
  C   C179      1.0  0.46180  0.95010  0.33030  1.0000
  H   H288      1.0  0.31926  0.91246  0.26924  1.0000
  S   S82       1.0  0.37249  0.91934  0.43205  1.0000
  C   C180      1.0  0.53734  0.74898  0.42581  1.0000
  H   H289      1.0  0.42934  0.96907  0.37203  1.0000
  C   C181      1.0  0.43339  0.57197  0.29360  1.0000
  H   H290      1.0  0.34276  0.96804  0.32233  1.0000
  C   C182      1.0  0.44918  0.57855  0.23068  1.0000
  C   C183      1.0  0.47726  0.60885  0.23851  1.0000
  C   C184      1.0  0.48326  0.62090  0.27387  1.0000
  C   C185      1.0  0.46121  0.60256  0.30133  1.0000
  H   H291      1.0  0.30790  0.97184  0.32064  1.0000
  H   H292      1.0  0.50484  0.64432  0.28008  1.0000
  H   H293      1.0  0.46592  0.61192  0.32865  1.0000
  C   C186      1.0  0.42738  0.56007  0.25819  1.0000
  N   N18       1.0  0.48295  0.69850  0.15934  1.0000
  C   C187      1.0  0.50779  0.69267  0.14475  1.0000
  C   C188      1.0  0.45811  0.69103  0.13119  1.0000
  C   C189      1.0  0.49878  0.73300  0.17045  1.0000
  C   C190      1.0  0.46723  0.67730  0.19085  1.0000
  H   H294      1.0  0.51985  0.70779  0.12055  1.0000
  H   H295      1.0  0.49704  0.66665  0.13715  1.0000
  H   H296      1.0  0.52713  0.69874  0.16512  1.0000
  H   H297      1.0  0.43892  0.69514  0.14125  1.0000
  H   H298      1.0  0.46927  0.70661  0.10702  1.0000
  H   H299      1.0  0.44585  0.66519  0.12215  1.0000
  H   H300      1.0  0.51116  0.74968  0.14738  1.0000
  H   H301      1.0  0.51785  0.73956  0.19153  1.0000
  H   H302      1.0  0.48089  0.73845  0.18169  1.0000
  H   H303      1.0  0.44832  0.68096  0.20272  1.0000
  H   H304      1.0  0.48535  0.68211  0.21249  1.0000
  H   H305      1.0  0.45539  0.65107  0.18351  1.0000
  N   N19       1.0  0.47479  0.97266  0.36152  1.0000
  H   H306      1.0  0.51990  0.97376  0.36392  1.0000
  H   H307      1.0  0.36326  0.00296  0.26782  1.0000
  C   C191      1.0  0.51214  0.76832  0.46626  1.0000
  H   H308      1.0  0.40237  0.97176  0.31411  1.0000
  S   S83       1.0  0.40212  0.86724  0.38204  1.0000
  Fe  Fe43      1.0  0.31811  0.88710  0.43802  1.0000
  C   C192      1.0  0.41213  0.99732  0.31034  1.0000
  H   H309      1.0  0.38347  0.57779  0.44725  1.0000
  C   C193      1.0  0.41024  0.01580  0.33816  1.0000
  C   C194      1.0  0.31790  0.95723  0.31059  1.0000
  H   H310      1.0  0.42831  0.99765  0.25607  1.0000
  H   H311      1.0  0.47309  0.01077  0.33397  1.0000
  C   C195      1.0  0.49887  0.96827  0.38122  1.0000
  C   C196      1.0  0.44768  0.96550  0.38578  1.0000
  H   H312      1.0  0.50030  0.02414  0.37192  1.0000
  H   H313      1.0  0.33937  0.99038  0.22703  1.0000
  C   C197      1.0  0.49061  0.00661  0.34890  1.0000
  H   H314      1.0  0.45631  0.98139  0.41019  1.0000
  C   C198      1.0  0.49019  0.90864  0.45823  1.0000
  C   C199      1.0  0.48784  0.88982  0.42833  1.0000
  C   C200      1.0  0.46012  0.87618  0.40575  1.0000
  C   C201      1.0  0.43460  0.88108  0.41317  1.0000
  C   C202      1.0  0.43651  0.89878  0.44394  1.0000
  C   C203      1.0  0.46441  0.91293  0.46609  1.0000
  H   H315      1.0  0.50768  0.88643  0.42205  1.0000
  H   H316      1.0  0.45876  0.86235  0.38211  1.0000
  H   H317      1.0  0.41662  0.90177  0.45065  1.0000
  H   H318      1.0  0.46591  0.92708  0.48946  1.0000
  H   H319      1.0  0.35859  0.94925  0.26860  1.0000
  S   S84       1.0  0.39155  0.99814  0.37963  1.0000
  N   N20       1.0  0.31836  0.95637  0.27076  1.0000
  C   C204      1.0  0.42697  0.01206  0.27753  1.0000
  H   H320      1.0  0.51197  0.78438  0.44491  1.0000
  H   H321      1.0  0.48776  0.94278  0.39053  1.0000
  S   S85       1.0  0.50410  0.63137  0.20345  1.0000
  S   S86       1.0  0.52561  0.92831  0.48520  1.0000
  C   C205      1.0  0.33783  0.99000  0.25698  1.0000
  H   H322      1.0  0.33326  0.93621  0.22890  1.0000
  H   H323      1.0  0.51364  0.78000  0.49275  1.0000
  H   H324      1.0  0.51612  0.71769  0.48913  1.0000
  H   H325      1.0  0.48830  0.74481  0.46498  1.0000
  H   H326      1.0  0.53827  0.76503  0.40372  1.0000
  C   C206      1.0  0.53901  0.74208  0.49031  1.0000
  H   H327      1.0  0.53986  0.98089  0.53804  1.0000
  H   H328      1.0  0.54060  0.75259  0.51762  1.0000
  C   C207      1.0  0.33304  0.93780  0.25883  1.0000
  H   H329      1.0  0.44434  0.56924  0.20332  1.0000
  H   H330      1.0  0.38143  0.55194  0.48325  1.0000
  H   H331      1.0  0.44333  0.02877  0.75227  1.0000
  H   H332      1.0  0.46951  0.62888  0.84221  1.0000
  H   H333      1.0  0.49779  0.67041  0.79588  1.0000
  H   H334      1.0  0.38781  0.58944  0.65011  1.0000
  H   H335      1.0  0.39626  0.77675  0.95769  1.0000
  H   H336      1.0  0.41170  0.58057  0.67935  1.0000
  H   H337      1.0  0.53574  0.76867  0.59807  1.0000
  Fe  Fe44      1.0  0.35168  0.88279  0.81196  1.0000
  S   S87       1.0  0.32344  0.88911  0.85592  1.0000
  S   S88       1.0  0.33393  0.85105  0.76210  1.0000
  H   H338      1.0  0.45710  0.84585  0.90363  1.0000
  Fe  Fe45      1.0  0.35471  0.88065  0.89403  1.0000
  S   S89       1.0  0.34186  0.84620  0.94119  1.0000
  H   H339      1.0  0.30709  0.87675  0.69283  1.0000
  S   S90       1.0  0.38002  0.87087  0.84988  1.0000
  N   N21       1.0  0.36020  0.54546  0.68078  1.0000
  H   H340      1.0  0.51162  0.64629  0.77527  1.0000
  H   H341      1.0  0.49787  0.01546  0.75404  1.0000
  H   H342      1.0  0.32180  0.91759  0.62447  1.0000
  C   C208      1.0  0.41384  0.79137  0.93609  1.0000
  S   S91       1.0  0.54057  0.82540  0.93828  1.0000
  Fe  Fe46      1.0  0.36592  0.94147  0.85611  1.0000
  H   H343      1.0  0.49137  0.99987  0.79919  1.0000
  H   H344      1.0  0.34419  0.89509  0.66758  1.0000
  H   H345      1.0  0.42881  0.81954  0.86971  1.0000
  H   H346      1.0  0.54191  0.94850  0.00356  1.0000
  H   H347      1.0  0.53794  0.99220  0.58367  1.0000
  C   C209      1.0  0.32926  0.54438  0.67589  1.0000
  C   C210      1.0  0.37438  0.79989  0.90629  1.0000
  H   H348      1.0  0.40854  0.85844  0.94115  1.0000
  C   C211      1.0  0.43171  0.83500  0.89341  1.0000
  H   H349      1.0  0.46637  0.01713  0.84440  1.0000
  H   H350      1.0  0.42929  0.85534  0.88355  1.0000
  H   H351      1.0  0.36918  0.81801  0.89523  1.0000
  H   H352      1.0  0.37093  0.78296  0.88395  1.0000
  S   S92       1.0  0.49375  0.64171  0.67553  1.0000
  H   H353      1.0  0.32764  0.55328  0.64881  1.0000
  S   S93       1.0  0.40734  0.56428  0.80932  1.0000
  C   C212      1.0  0.43168  0.58531  0.77213  1.0000
  C   C213      1.0  0.44787  0.57334  0.75259  1.0000
  C   C214      1.0  0.46790  0.59118  0.72353  1.0000
  C   C215      1.0  0.47147  0.62081  0.71380  1.0000
  C   C216      1.0  0.45519  0.63266  0.73329  1.0000
  C   C217      1.0  0.43572  0.61517  0.76271  1.0000
  H   H354      1.0  0.48029  0.58183  0.70832  1.0000
  H   H355      1.0  0.45765  0.65539  0.72562  1.0000
  H   H356      1.0  0.42337  0.62458  0.77788  1.0000
  C   C218      1.0  0.38099  0.02147  0.76031  1.0000
  H   H357      1.0  0.43889  0.80299  0.94797  1.0000
  H   H358      1.0  0.39156  0.82520  0.97197  1.0000
  H   H359      1.0  0.54327  0.94698  0.60577  1.0000
  H   H360      1.0  0.48313  0.60420  0.82312  1.0000
  H   H361      1.0  0.38793  0.59553  0.69800  1.0000
  H   H362      1.0  0.54135  0.62735  0.81058  1.0000
  S   S94       1.0  0.50913  0.88260  0.97221  1.0000
  S   S95       1.0  0.47073  0.94381  0.84653  1.0000
  H   H363      1.0  0.43487  0.84899  0.96536  1.0000
  H   H364      1.0  0.44536  0.55059  0.76015  1.0000
  H   H365      1.0  0.49142  0.61608  0.86968  1.0000
  C   C219      1.0  0.31723  0.86159  0.60578  1.0000
  Fe  Fe47      1.0  0.41704  0.92413  0.85102  1.0000
  C   C220      1.0  0.53001  0.68028  0.85896  1.0000
  H   H366      1.0  0.37396  0.01123  0.73342  1.0000
  C   C221      1.0  0.50148  0.90269  0.93797  1.0000
  C   C222      1.0  0.51563  0.90751  0.90394  1.0000
  C   C223      1.0  0.50712  0.92139  0.87622  1.0000
  C   C224      1.0  0.48373  0.92956  0.88218  1.0000
  C   C225      1.0  0.47004  0.92527  0.91637  1.0000
  C   C226      1.0  0.47938  0.91244  0.94437  1.0000
  H   H367      1.0  0.53222  0.89951  0.89847  1.0000
  H   H368      1.0  0.51761  0.92450  0.84972  1.0000
  H   H369      1.0  0.45223  0.93184  0.92126  1.0000
  H   H370      1.0  0.46865  0.90919  0.97076  1.0000
  H   H371      1.0  0.35696  0.97464  0.78639  1.0000
  H   H372      1.0  0.54202  0.97638  0.94794  1.0000
  C   C227      1.0  0.37945  0.01385  0.82509  1.0000
  H   H373      1.0  0.51116  0.68682  0.86024  1.0000
  S   S96       1.0  0.36720  0.98838  0.86301  1.0000
  N   N22       1.0  0.52117  0.65419  0.83214  1.0000
  N   N23       1.0  0.40768  0.81609  0.92177  1.0000
  S   S97       1.0  0.39128  0.93560  0.80905  1.0000
  H   H374      1.0  0.30387  0.85717  0.57970  1.0000
  C   C228      1.0  0.51755  0.66512  0.79623  1.0000
  H   H375      1.0  0.31951  0.84024  0.61077  1.0000
  C   C229      1.0  0.37140  0.00075  0.79022  1.0000
  S   S98       1.0  0.39455  0.93342  0.89816  1.0000
  H   H376      1.0  0.45714  0.98816  0.77011  1.0000
  C   C230      1.0  0.38807  0.57925  0.67686  1.0000
  C   C231      1.0  0.41086  0.83813  0.95135  1.0000
  H   H377      1.0  0.32203  0.85226  0.67656  1.0000
  C   C232      1.0  0.30884  0.83558  0.97008  1.0000
  H   H378      1.0  0.35557  0.78595  0.92709  1.0000
  C   C233      1.0  0.49001  0.62462  0.84231  1.0000
  C   C234      1.0  0.31926  0.87302  0.66955  1.0000
  C   C235      1.0  0.45838  0.02695  0.82230  1.0000
  H   H379      1.0  0.34221  0.88321  0.60191  1.0000
  H   H380      1.0  0.54522  0.93585  0.56008  1.0000
  H   H381      1.0  0.36032  0.54908  0.73878  1.0000
  H   H382      1.0  0.41179  0.77437  0.91450  1.0000
  N   N24       1.0  0.48036  0.03700  0.79098  1.0000
  Fe  Fe48      1.0  0.54782  0.67268  0.68639  1.0000
  H   H383      1.0  0.43307  0.00749  0.81476  1.0000
  C   C236      1.0  0.48180  0.00894  0.77792  1.0000
  H   H384      1.0  0.32656  0.55948  0.69655  1.0000
  H   H385      1.0  0.53286  0.67292  0.88645  1.0000
  C   C237      1.0  0.30654  0.81924  0.00214  1.0000
  H   H386      1.0  0.54038  0.68767  0.78786  1.0000
  H   H387      1.0  0.32578  0.81519  0.00959  1.0000
  Fe  Fe49      1.0  0.54836  0.87203  0.96072  1.0000
  C   C238      1.0  0.54710  0.64670  0.83088  1.0000
  Fe  Fe50      1.0  0.69602  0.15603  0.11250  1.0000
  S   S99       1.0  0.66388  0.17611  0.10431  1.0000
  S   S100      1.0  0.60247  0.19194  0.24636  1.0000
  C   C239      1.0  0.62368  0.46979  0.06532  1.0000
  H   H388      1.0  0.60952  0.12233  0.18950  1.0000
  C   C240      1.0  0.65036  0.18507  0.14396  1.0000
  C   C241      1.0  0.66307  0.18447  0.17777  1.0000
  C   C242      1.0  0.64938  0.18834  0.20929  1.0000
  C   C243      1.0  0.62266  0.19223  0.20699  1.0000
  C   C244      1.0  0.61082  0.19400  0.17315  1.0000
  C   C245      1.0  0.62484  0.19074  0.14172  1.0000
  H   H389      1.0  0.68302  0.18047  0.17964  1.0000
  H   H390      1.0  0.65868  0.18709  0.23544  1.0000
  H   H391      1.0  0.59074  0.19779  0.17113  1.0000
  H   H392      1.0  0.61523  0.19164  0.11560  1.0000
  H   H393      1.0  0.77122  0.22673  0.27459  1.0000
  S   S101      1.0  0.76500  0.15905  0.21856  1.0000
  S   S102      1.0  0.68588  0.12026  0.15630  1.0000
  H   H394      1.0  0.78459  0.25900  0.36887  1.0000
  H   H395      1.0  0.77916  0.13887  0.52860  1.0000
  S   S103      1.0  0.69937  0.12591  0.06857  1.0000
  C   C246      1.0  0.77533  0.20421  0.33976  1.0000
  Fe  Fe51      1.0  0.69299  0.09191  0.11311  1.0000
  H   H396      1.0  0.57967  0.09187  0.21884  1.0000
  C   C247      1.0  0.60009  0.45865  0.49482  1.0000
  C   C248      1.0  0.62534  0.49000  0.48573  1.0000
  C   C249      1.0  0.65511  0.50477  0.50438  1.0000
  H   H397      1.0  0.62391  0.45770  0.36985  1.0000
  C   C250      1.0  0.65950  0.48882  0.53308  1.0000
  H   H398      1.0  0.77108  0.20692  0.46997  1.0000
  H   H399      1.0  0.75802  0.05358  0.51879  1.0000
  C   C251      1.0  0.59378  0.44052  0.07015  1.0000
  H   H400      1.0  0.76632  0.19027  0.36530  1.0000
  N   N25       1.0  0.62035  0.41834  0.40064  1.0000
  C   C252      1.0  0.60949  0.40402  0.43678  1.0000
  C   C253      1.0  0.60076  0.39341  0.37285  1.0000
  C   C254      1.0  0.65521  0.42978  0.39638  1.0000
  C   C255      1.0  0.61584  0.44607  0.39671  1.0000
  H   H401      1.0  0.62470  0.42154  0.45853  1.0000
  H   H402      1.0  0.61037  0.38164  0.44004  1.0000
  H   H403      1.0  0.58392  0.39706  0.44145  1.0000
  H   H404      1.0  0.60391  0.37229  0.37477  1.0000
  C   C256      1.0  0.63433  0.45721  0.54195  1.0000
  H   H405      1.0  0.60766  0.40342  0.34516  1.0000
  H   H406      1.0  0.65941  0.40943  0.39963  1.0000
  H   H407      1.0  0.67062  0.44874  0.41691  1.0000
  H   H408      1.0  0.66423  0.44057  0.36929  1.0000
  C   C257      1.0  0.72311  0.19543  0.32193  1.0000
  H   H409      1.0  0.62991  0.46507  0.41764  1.0000
  H   H410      1.0  0.58973  0.43822  0.39986  1.0000
  S   S104      1.0  0.64094  0.49833  0.10091  1.0000
  H   H411      1.0  0.74773  0.22536  0.38582  1.0000
  H   H412      1.0  0.62193  0.50287  0.46407  1.0000
  H   H413      1.0  0.57420  0.38353  0.37612  1.0000
  H   H414      1.0  0.57474  0.04965  0.17606  1.0000
  H   H415      1.0  0.58175  0.43529  0.09595  1.0000
  C   C258      1.0  0.77264  0.24129  0.29859  1.0000
  C   C259      1.0  0.75895  0.24040  0.36135  1.0000
  H   H416      1.0  0.56457  0.05050  0.12949  1.0000
  H   H417      1.0  0.60401  0.08082  0.14684  1.0000
  H   H418      1.0  0.58514  0.41779  0.52987  1.0000
  H   H419      1.0  0.77689  0.21700  0.04905  1.0000
  Fe  Fe52      1.0  0.74041  0.14821  0.16363  1.0000
  S   S105      1.0  0.74996  0.18641  0.12300  1.0000
  H   H420      1.0  0.79892  0.25980  0.30350  1.0000
  Fe  Fe53      1.0  0.75257  0.15276  0.08336  1.0000
  N   N26       1.0  0.56487  0.08691  0.16310  1.0000
  S   S106      1.0  0.74662  0.11628  0.12477  1.0000
  H   H421      1.0  0.59685  0.52003  0.53701  1.0000
  C   C260      1.0  0.58293  0.10705  0.19490  1.0000
  H   H422      1.0  0.76035  0.25449  0.29126  1.0000
  N   N27       1.0  0.75752  0.22035  0.33042  1.0000
  C   C261      1.0  0.78407  0.07243  0.51364  1.0000
  S   S107      1.0  0.79376  0.16790  0.04440  1.0000
  H   H423      1.0  0.72124  0.18003  0.29849  1.0000
  H   H424      1.0  0.77872  0.12143  0.48575  1.0000
  H   H425      1.0  0.78725  0.07469  0.48386  1.0000
  H   H426      1.0  0.57823  0.20449  0.53086  1.0000
  H   H427      1.0  0.70891  0.20678  0.31486  1.0000
  H   H428      1.0  0.56790  0.27973  0.35567  1.0000
  H   H429      1.0  0.67447  0.52862  0.49665  1.0000
  H   H430      1.0  0.69877  0.04297  0.50446  1.0000
  H   H431      1.0  0.59851  0.51669  0.13864  1.0000
  C   C262      1.0  0.60465  0.44200  0.52266  1.0000
  H   H432      1.0  0.77271  0.18697  0.31821  1.0000
  H   H433      1.0  0.71099  0.17898  0.34520  1.0000
  C   C263      1.0  0.57752  0.06598  0.15347  1.0000
  H   H434      1.0  0.77014  0.18808  0.53235  1.0000
  H   H435      1.0  0.74620  0.25341  0.35526  1.0000
  H   H436      1.0  0.59556  0.12312  0.12433  1.0000
  H   H437      1.0  0.70533  0.05275  0.05510  1.0000
  S   S108      1.0  0.56330  0.44133  0.47075  1.0000
  C   C264      1.0  0.77378  0.11606  0.51499  1.0000
  C   C265      1.0  0.79363  0.21279  0.48308  1.0000
  C   C266      1.0  0.56946  0.10830  0.13238  1.0000
  H   H438      1.0  0.57463  0.12376  0.20255  1.0000
  H   H439      1.0  0.79227  0.22164  0.18260  1.0000
  C   C267      1.0  0.79305  0.20209  0.51839  1.0000
  N   N28       1.0  0.79353  0.10392  0.53064  1.0000
  H   H440      1.0  0.74727  0.09816  0.51800  1.0000
  H   H441      1.0  0.56172  0.12562  0.13917  1.0000
  C   C268      1.0  0.79715  0.53662  0.04786  1.0000
  C   C269      1.0  0.79772  0.19856  0.22926  1.0000
  H   H442      1.0  0.55523  0.09409  0.10824  1.0000
  Fe  Fe54      1.0  0.55090  0.17834  0.23461  1.0000
  H   H443      1.0  0.55658  0.39528  0.04583  1.0000
  H   H444      1.0  0.79893  0.06286  0.52434  1.0000
  H   H445      1.0  0.60860  0.53203  0.18417  1.0000
  H   H446      1.0  0.78876  0.53674  0.07570  1.0000
  H   H447      1.0  0.55922  0.53536  0.13554  1.0000
  C   C270      1.0  0.61455  0.53876  0.15536  1.0000
  C   C271      1.0  0.68929  0.21930  0.76155  1.0000
  H   H448      1.0  0.76053  0.53795  0.91373  1.0000
  S   S109      1.0  0.68540  0.19244  0.62945  1.0000
  H   H449      1.0  0.61354  0.53516  0.63584  1.0000
  H   H450      1.0  0.64573  0.53038  0.61910  1.0000
  C   C272      1.0  0.57693  0.48217  0.95053  1.0000
  C   C273      1.0  0.65134  0.17408  0.65770  1.0000
  C   C274      1.0  0.63578  0.14109  0.66622  1.0000
  C   C275      1.0  0.60853  0.12679  0.68882  1.0000
  C   C276      1.0  0.59626  0.14522  0.70223  1.0000
  C   C277      1.0  0.61180  0.17824  0.69367  1.0000
  C   C278      1.0  0.63938  0.19265  0.67152  1.0000
  H   H451      1.0  0.64434  0.12640  0.65491  1.0000
  H   H452      1.0  0.59654  0.10122  0.69533  1.0000
  H   H453      1.0  0.60282  0.19273  0.70448  1.0000
  H   H454      1.0  0.65180  0.21833  0.66551  1.0000
  H   H455      1.0  0.74798  0.24223  0.79419  1.0000
  C   C279      1.0  0.63933  0.47615  0.03202  1.0000
  H   H456      1.0  0.70155  0.07385  0.55973  1.0000
  H   H457      1.0  0.67300  0.20931  0.78534  1.0000
  C   C280      1.0  0.60774  0.17877  0.56748  1.0000
  H   H458      1.0  0.70373  0.24630  0.76412  1.0000
  H   H459      1.0  0.59594  0.15455  0.55399  1.0000
  H   H460      1.0  0.57495  0.33270  0.74174  1.0000
  H   H461      1.0  0.71679  0.20603  0.81636  1.0000
  C   C281      1.0  0.69053  0.17037  0.75560  1.0000
  S   S110      1.0  0.68410  0.05322  0.63370  1.0000
  H   H462      1.0  0.63762  0.44470  0.56410  1.0000
  S   S111      1.0  0.70448  0.13336  0.67744  1.0000
  C   C282      1.0  0.73160  0.21536  0.79145  1.0000
  H   H463      1.0  0.74748  0.20513  0.79054  1.0000
  C   C283      1.0  0.56313  0.18544  0.55099  1.0000
  H   H464      1.0  0.67435  0.15924  0.77927  1.0000
  C   C284      1.0  0.60013  0.21778  0.59915  1.0000
  H   H465      1.0  0.58632  0.50066  0.97260  1.0000
  H   H466      1.0  0.70598  0.15968  0.75372  1.0000
  H   H467      1.0  0.61204  0.50130  0.56585  1.0000
  S   S112      1.0  0.57627  0.39781  0.97111  1.0000
  C   C285      1.0  0.59482  0.42447  0.00821  1.0000
  C   C286      1.0  0.62500  0.45349  0.00363  1.0000
  H   H468      1.0  0.62423  0.19742  0.54766  1.0000
  H   H469      1.0  0.63726  0.45863  0.97796  1.0000
  C   C287      1.0  0.69349  0.04841  0.56143  1.0000
  H   H470      1.0  0.62346  0.17890  0.58969  1.0000
  H   H471      1.0  0.74692  0.24682  0.72781  1.0000
  Fe  Fe55      1.0  0.71655  0.10794  0.63571  1.0000
  C   C288      1.0  0.60287  0.51808  0.56558  1.0000
  N   N29       1.0  0.58324  0.18553  0.58126  1.0000
  H   H472      1.0  0.57974  0.50627  0.58105  1.0000
  Fe  Fe56      1.0  0.71585  0.17000  0.63446  1.0000
  H   H473      1.0  0.61652  0.23745  0.58024  1.0000
  H   H474      1.0  0.55926  0.33021  0.67781  1.0000
  H   H475      1.0  0.57636  0.15894  0.63022  1.0000
  H   H476      1.0  0.58559  0.49526  0.92447  1.0000
  H   H477      1.0  0.58249  0.22385  0.60975  1.0000
  S   S113      1.0  0.77129  0.17111  0.74949  1.0000
  Fe  Fe57      1.0  0.75790  0.16255  0.69027  1.0000
  S   S114      1.0  0.76863  0.20158  0.65038  1.0000
  S   S115      1.0  0.56145  0.12649  0.72937  1.0000
  Fe  Fe58      1.0  0.77607  0.17083  0.61105  1.0000
  S   S116      1.0  0.76923  0.13380  0.65239  1.0000
  C   C289      1.0  0.79742  0.22556  0.03117  1.0000
  H   H478      1.0  0.74833  0.21079  0.72407  1.0000
  H   H479      1.0  0.61517  0.21864  0.62237  1.0000
  H   H480      1.0  0.79525  0.12292  0.58359  1.0000
  H   H481      1.0  0.71665  0.21288  0.70136  1.0000
  S   S117      1.0  0.72403  0.14251  0.59113  1.0000
  C   C290      1.0  0.55510  0.30670  0.74414  1.0000
  C   C291      1.0  0.73152  0.21980  0.72661  1.0000
  S   S118      1.0  0.69529  0.50864  0.55952  1.0000
  H   H482      1.0  0.67475  0.16261  0.73103  1.0000
  N   N30       1.0  0.71074  0.20622  0.75882  1.0000
  H   H483      1.0  0.67339  0.21291  0.73723  1.0000
  H   H484      1.0  0.56574  0.29156  0.73882  1.0000
  H   H485      1.0  0.79760  0.20070  0.81861  1.0000
  H   H486      1.0  0.66261  0.49844  0.02812  1.0000
  H   H487      1.0  0.77579  0.52837  0.02943  1.0000
  H   H488      1.0  0.58865  0.46777  0.95408  1.0000
  C   C292      1.0  0.57939  0.41791  0.04168  1.0000
  C   C293      1.0  0.56201  0.16016  0.60744  1.0000
  H   H489      1.0  0.76165  0.08208  0.57606  1.0000
  C   C294      1.0  0.78785  0.09948  0.56993  1.0000
  H   H490      1.0  0.57047  0.82297  0.12974  1.0000
  H   H491      1.0  0.57333  0.57734  0.14442  1.0000
  H   H492      1.0  0.65202  0.56789  0.53031  1.0000
  C   C295      1.0  0.60017  0.99166  0.54241  1.0000
  H   H493      1.0  0.66868  0.76231  0.30575  1.0000
  Fe  Fe59      1.0  0.59134  0.74732  0.20157  1.0000
  S   S119      1.0  0.63281  0.75713  0.23795  1.0000
  S   S120      1.0  0.58836  0.67954  0.25953  1.0000
  Fe  Fe60      1.0  0.59415  0.72658  0.27801  1.0000
  S   S121      1.0  0.60542  0.74343  0.33618  1.0000
  Fe  Fe61      1.0  0.62476  0.70982  0.21706  1.0000
  S   S122      1.0  0.66736  0.70298  0.21143  1.0000
  C   C296      1.0  0.58105  0.78501  0.12860  1.0000
  S   S123      1.0  0.58708  0.70304  0.17631  1.0000
  C   C297      1.0  0.67190  0.68766  0.17014  1.0000
  C   C298      1.0  0.69531  0.67900  0.16740  1.0000
  H   H494      1.0  0.73773  0.75011  0.31861  1.0000
  C   C299      1.0  0.67911  0.66171  0.10520  1.0000
  C   C300      1.0  0.65602  0.67077  0.10780  1.0000
  C   C301      1.0  0.65225  0.68348  0.14022  1.0000
  S   S124      1.0  0.73328  0.55253  0.06719  1.0000
  H   H495      1.0  0.64087  0.66779  0.08469  1.0000
  H   H496      1.0  0.63435  0.69031  0.14190  1.0000
  H   H497      1.0  0.66901  0.74623  0.36855  1.0000
  H   H498      1.0  0.71075  0.68233  0.19035  1.0000
  H   H499      1.0  0.56820  0.76675  0.30073  1.0000
  H   H500      1.0  0.61528  0.01773  0.53475  1.0000
  H   H501      1.0  0.63093  0.61602  0.16084  1.0000
  C   C302      1.0  0.69882  0.66591  0.13507  1.0000
  C   C303      1.0  0.57356  0.80580  0.33394  1.0000
  C   C304      1.0  0.57299  0.80614  0.11292  1.0000
  H   H502      1.0  0.65917  0.60271  0.16295  1.0000
  H   H503      1.0  0.65231  0.69327  0.28864  1.0000
  N   N31       1.0  0.68661  0.73232  0.32326  1.0000
  C   C305      1.0  0.57068  0.79540  0.46425  1.0000
  H   H504      1.0  0.65265  0.68171  0.33452  1.0000
  S   S125      1.0  0.55298  0.72015  0.24330  1.0000
  S   S126      1.0  0.68193  0.64433  0.06464  1.0000
  H   H505      1.0  0.68640  0.75092  0.27075  1.0000
  C   C306      1.0  0.68856  0.75788  0.29977  1.0000
  C   C307      1.0  0.68916  0.74241  0.36141  1.0000
  H   H506      1.0  0.59208  0.79323  0.45891  1.0000
  H   H507      1.0  0.59049  0.74695  0.11882  1.0000
  H   H508      1.0  0.71273  0.70813  0.33154  1.0000
  H   H509      1.0  0.71635  0.89510  0.09194  1.0000
  C   C308      1.0  0.63328  0.59496  0.16751  1.0000
  H   H510      1.0  0.56295  0.82269  0.06343  1.0000
  Fe  Fe62      1.0  0.77846  0.61084  0.49286  1.0000
  C   C309      1.0  0.65506  0.70157  0.31721  1.0000
  H   H511      1.0  0.71211  0.78142  0.30343  1.0000
  H   H512      1.0  0.71260  0.76564  0.36699  1.0000
  H   H513      1.0  0.63016  0.79086  0.39398  1.0000
  S   S127      1.0  0.72567  0.59051  0.50469  1.0000
  H   H514      1.0  0.77812  0.55731  0.12966  1.0000
  H   H515      1.0  0.64503  0.84314  0.10962  1.0000
  H   H516      1.0  0.65477  0.90973  0.05113  1.0000
  Fe  Fe63      1.0  0.70549  0.61467  0.06623  1.0000
  C   C310      1.0  0.71349  0.72739  0.31448  1.0000
  H   H517      1.0  0.71697  0.65937  0.13318  1.0000
  H   H518      1.0  0.55993  0.73861  0.48802  1.0000
  C   C311      1.0  0.59950  0.77549  0.34646  1.0000
  H   H519      1.0  0.71435  0.88360  0.04541  1.0000
  H   H520      1.0  0.68768  0.72368  0.37999  1.0000
  S   S128      1.0  0.79665  0.62058  0.43545  1.0000
  C   C312      1.0  0.58400  0.76311  0.10693  1.0000
  S   S129      1.0  0.70775  0.59101  0.11701  1.0000
  N   N32       1.0  0.61079  0.56611  0.14536  1.0000
  C   C313      1.0  0.57953  0.78135  0.32459  1.0000
  Fe  Fe64      1.0  0.62946  0.92957  0.48567  1.0000
  S   S130      1.0  0.58941  0.91368  0.52580  1.0000
  S   S131      1.0  0.67825  0.97624  0.49324  1.0000
  Fe  Fe65      1.0  0.58595  0.87647  0.43199  1.0000
  C   C314      1.0  0.68623  0.02733  0.05254  1.0000
  S   S132      1.0  0.75508  0.62810  0.04662  1.0000
  Fe  Fe66      1.0  0.75556  0.60089  0.09559  1.0000
  S   S133      1.0  0.59938  0.92831  0.43862  1.0000
  S   S134      1.0  0.61946  0.87905  0.47599  1.0000
  H   H521      1.0  0.61436  0.97053  0.09021  1.0000
  C   C315      1.0  0.58774  0.82484  0.36500  1.0000
  H   H522      1.0  0.58625  0.97755  0.51802  1.0000
  C   C316      1.0  0.61425  0.79491  0.37725  1.0000
  H   H523      1.0  0.58228  0.74618  0.05265  1.0000
  C   C317      1.0  0.60881  0.81992  0.38618  1.0000
  H   H524      1.0  0.57104  0.81296  0.44469  1.0000
  H   H525      1.0  0.62095  0.83542  0.40933  1.0000
  Fe  Fe67      1.0  0.57617  0.86310  0.51201  1.0000
  H   H526      1.0  0.64399  0.58077  0.10098  1.0000
  C   C318      1.0  0.69184  0.03097  0.53032  1.0000
  C   C319      1.0  0.63496  0.98102  0.07216  1.0000
  H   H527      1.0  0.71199  0.71979  0.28571  1.0000
  N   N33       1.0  0.66973  0.87671  0.06624  1.0000
  C   C320      1.0  0.57944  0.76277  0.06951  1.0000
  H   H528      1.0  0.69527  0.85279  0.07940  1.0000
  Fe  Fe68      1.0  0.55852  0.90888  0.47807  1.0000
  C   C321      1.0  0.68037  0.99770  0.53235  1.0000
  H   H529      1.0  0.64264  0.82754  0.04571  1.0000
  H   H530      1.0  0.60233  0.55243  0.08918  1.0000
  H   H531      1.0  0.64003  0.54498  0.15116  1.0000
  C   C322      1.0  0.57685  0.55710  0.15178  1.0000
  H   H532      1.0  0.61628  0.59446  0.09822  1.0000
  C   C323      1.0  0.56883  0.80610  0.07545  1.0000
  S   S135      1.0  0.57747  0.85359  0.37668  1.0000
  S   S136      1.0  0.78367  0.57886  0.53237  1.0000
  H   H533      1.0  0.66668  0.88530  0.12268  1.0000
  C   C324      1.0  0.70031  0.87708  0.07097  1.0000
  C   C325      1.0  0.57238  0.78461  0.05370  1.0000
  Fe  Fe69      1.0  0.68532  0.54537  0.08341  1.0000
  H   H534      1.0  0.57434  0.80634  0.49151  1.0000
  H   H535      1.0  0.63420  0.70445  0.32338  1.0000
  Fe  Fe70      1.0  0.55116  0.67638  0.22059  1.0000
  H   H536      1.0  0.62842  0.59015  0.19682  1.0000
  C   C326      1.0  0.79959  0.56993  0.14670  1.0000
  C   C327      1.0  0.61853  0.57371  0.10678  1.0000
  H   H537      1.0  0.55761  0.80978  0.31715  1.0000
  S   S137      1.0  0.79534  0.65257  0.53142  1.0000
  H   H538      1.0  0.62893  0.86797  0.09816  1.0000
  C   C328      1.0  0.65186  0.86791  0.10068  1.0000
  C   C329      1.0  0.67738  0.90927  0.05509  1.0000
  C   C330      1.0  0.65953  0.01401  0.07578  1.0000
  H   H539      1.0  0.69267  0.92828  0.07554  1.0000
  H   H540      1.0  0.57023  0.55141  0.18069  1.0000
  S   S138      1.0  0.58827  0.78738  0.17513  1.0000
  C   C331      1.0  0.63666  0.96159  0.04512  1.0000
  H   H541      1.0  0.55788  0.74522  0.42129  1.0000
  S   S139      1.0  0.65512  0.03793  0.10847  1.0000
  C   C332      1.0  0.56458  0.99866  0.95812  1.0000
  C   C333      1.0  0.58054  0.77095  0.61025  1.0000
  C   C334      1.0  0.56014  0.95182  0.58305  1.0000
  H   H542      1.0  0.57856  0.96374  0.02955  1.0000
  H   H543      1.0  0.56888  0.74944  0.62687  1.0000
  Fe  Fe71      1.0  0.61101  0.73274  0.66374  1.0000
  S   S140      1.0  0.64009  0.72649  0.70675  1.0000
  C   C335      1.0  0.61394  0.57156  0.58098  1.0000
  S   S141      1.0  0.57166  0.66148  0.73112  1.0000
  Fe  Fe72      1.0  0.59835  0.71511  0.74288  1.0000
  Fe  Fe73      1.0  0.61111  0.67384  0.69079  1.0000
  S   S142      1.0  0.63414  0.64366  0.68849  1.0000
  N   N34       1.0  0.62728  0.55026  0.58096  1.0000
  S   S143      1.0  0.58501  0.68078  0.64477  1.0000
  C   C336      1.0  0.65924  0.64984  0.65127  1.0000
  C   C337      1.0  0.67876  0.63638  0.65154  1.0000
  C   C338      1.0  0.69775  0.63951  0.62145  1.0000
  C   C339      1.0  0.69697  0.65574  0.59068  1.0000
  C   C340      1.0  0.67786  0.66966  0.59066  1.0000
  C   C341      1.0  0.65913  0.66684  0.62090  1.0000
  H   H544      1.0  0.67729  0.68243  0.56705  1.0000
  H   H545      1.0  0.64431  0.67746  0.62050  1.0000
  S   S144      1.0  0.73638  0.56440  0.96410  1.0000
  S   S145      1.0  0.74590  0.59894  0.59119  1.0000
  C   C342      1.0  0.68392  0.03262  0.59464  1.0000
  H   H546      1.0  0.61484  0.99934  0.61383  1.0000
  S   S146      1.0  0.60771  0.73395  0.80035  1.0000
  H   H547      1.0  0.67921  0.62356  0.67515  1.0000
  H   H548      1.0  0.71284  0.62923  0.62204  1.0000
  H   H549      1.0  0.56787  0.02184  0.55340  1.0000
  H   H550      1.0  0.79190  0.59036  0.74570  1.0000
  H   H551      1.0  0.79732  0.62707  0.97320  1.0000
  H   H552      1.0  0.57143  0.75930  0.76596  1.0000
  C   C343      1.0  0.63541  0.54621  0.61829  1.0000
  S   S147      1.0  0.63842  0.77629  0.62767  1.0000
  H   H553      1.0  0.62199  0.84796  0.55006  1.0000
  H   H554      1.0  0.70887  0.01821  0.00790  1.0000
  C   C344      1.0  0.59353  0.97068  0.95968  1.0000
  H   H555      1.0  0.63179  0.59600  0.59249  1.0000
  H   H556      1.0  0.79723  0.62808  0.76079  1.0000
  H   H557      1.0  0.62615  0.85178  0.03366  1.0000
  C   C345      1.0  0.59862  0.76318  0.81382  1.0000
  S   S148      1.0  0.57143  0.72553  0.70120  1.0000
  H   H558      1.0  0.67574  0.58981  0.56916  1.0000
  H   H559      1.0  0.62964  0.01480  0.01032  1.0000
  C   C346      1.0  0.61404  0.02040  0.99366  1.0000
  S   S149      1.0  0.67976  0.56827  0.03411  1.0000
  H   H560      1.0  0.56269  0.80348  0.78427  1.0000
  H   H561      1.0  0.67903  0.81886  0.73754  1.0000
  Fe  Fe74      1.0  0.72951  0.57906  0.01965  1.0000
  C   C347      1.0  0.56182  0.78181  0.59388  1.0000
  C   C348      1.0  0.61038  0.82648  0.56674  1.0000
  H   H562      1.0  0.63662  0.79171  0.74711  1.0000
  C   C349      1.0  0.58095  0.77167  0.79143  1.0000
  Fe  Fe75      1.0  0.62089  0.90352  0.96988  1.0000
  S   S150      1.0  0.57930  0.87401  0.00732  1.0000
  S   S151      1.0  0.66596  0.95112  0.98728  1.0000
  Fe  Fe76      1.0  0.58533  0.85728  0.90570  1.0000
  H   H563      1.0  0.66204  0.85831  0.01179  1.0000
  S   S152      1.0  0.58339  0.84534  0.84640  1.0000
  H   H564      1.0  0.57156  0.94777  0.94991  1.0000
  Fe  Fe77      1.0  0.57608  0.83061  0.98103  1.0000
  H   H565      1.0  0.74848  0.54830  0.80699  1.0000
  S   S153      1.0  0.59019  0.90376  0.92452  1.0000
  S   S154      1.0  0.62077  0.86024  0.94725  1.0000
  H   H566      1.0  0.65394  0.57002  0.63056  1.0000
  C   C350      1.0  0.58763  0.81240  0.83532  1.0000
  C   C351      1.0  0.60398  0.80283  0.85842  1.0000
  C   C352      1.0  0.68815  0.00773  0.02578  1.0000
  C   C353      1.0  0.61362  0.81822  0.70203  1.0000
  C   C354      1.0  0.67059  0.98189  0.56553  1.0000
  N   N35       1.0  0.57829  0.98652  0.57275  1.0000
  H   H567      1.0  0.61312  0.81488  0.88421  1.0000
  S   S155      1.0  0.71795  0.65745  0.55115  1.0000
  H   H568      1.0  0.60924  0.80168  0.67890  1.0000
  H   H569      1.0  0.62300  0.77171  0.86523  1.0000
  C   C355      1.0  0.62918  0.81578  0.58344  1.0000
  H   H570      1.0  0.78775  0.60666  0.85843  1.0000
  C   C356      1.0  0.66323  0.97488  0.02173  1.0000
  H   H571      1.0  0.59555  0.80344  0.72307  1.0000
  H   H572      1.0  0.78085  0.55478  0.83675  1.0000
  C   C357      1.0  0.61428  0.78809  0.60530  1.0000
  H   H573      1.0  0.61315  0.03290  0.59692  1.0000
  C   C358      1.0  0.67236  0.99934  0.59661  1.0000
  H   H574      1.0  0.64609  0.87298  0.74110  1.0000
  H   H575      1.0  0.79385  0.63717  0.82658  1.0000
  C   C359      1.0  0.65397  0.80820  0.72632  1.0000
  H   H576      1.0  0.65530  0.82906  0.57956  1.0000
  H   H577      1.0  0.57848  0.01291  0.93411  1.0000
  H   H578      1.0  0.60823  0.98408  0.93571  1.0000
  C   C360      1.0  0.78049  0.56215  0.92089  1.0000
  S   S156      1.0  0.56975  0.78554  0.00664  1.0000
  H   H579      1.0  0.78431  0.54185  0.67840  1.0000
  H   H580      1.0  0.60817  0.83662  0.69255  1.0000
  C   C361      1.0  0.77540  0.56023  0.80946  1.0000
  C   C362      1.0  0.64932  0.85256  0.03816  1.0000
  C   C363      1.0  0.60958  0.77839  0.84759  1.0000
  C   C364      1.0  0.77535  0.58099  0.94544  1.0000
  Fe  Fe78      1.0  0.79711  0.61927  0.57197  1.0000
  C   C365      1.0  0.59785  0.00665  0.60396  1.0000
  H   H581      1.0  0.58216  0.00430  0.62703  1.0000
  H   H582      1.0  0.66481  0.98703  0.62228  1.0000
  N   N36       1.0  0.64743  0.83365  0.71586  1.0000
  N   N37       1.0  0.58425  0.99029  0.98096  1.0000
  C   C366      1.0  0.67036  0.85402  0.68728  1.0000
  H   H583      1.0  0.66740  0.83923  0.66281  1.0000
  H   H584      1.0  0.63549  0.83928  0.77009  1.0000
  H   H585      1.0  0.69617  0.86569  0.69646  1.0000
  C   C367      1.0  0.78170  0.61046  0.83053  1.0000
  C   C368      1.0  0.57671  0.80960  0.57222  1.0000
  H   H586      1.0  0.67723  0.86669  0.75830  1.0000
  H   H587      1.0  0.66625  0.87357  0.67873  1.0000
  C   C369      1.0  0.57579  0.79648  0.80198  1.0000
  C   C370      1.0  0.65179  0.85410  0.74766  1.0000
  H   H588      1.0  0.65167  0.79286  0.70275  1.0000
  H   H589      1.0  0.66179  0.95623  0.56722  1.0000
  H   H590      1.0  0.55052  0.63834  0.85750  1.0000
  H   H591      1.0  0.60816  0.03559  0.01059  1.0000
  H   H592      1.0  0.57701  0.94390  0.59156  1.0000
  N   N38       1.0  0.79234  0.59567  0.80335  1.0000
  H   H593      1.0  0.57098  0.66847  0.82327  1.0000
  H   H594      1.0  0.78303  0.54831  0.78957  1.0000
  C   C371      1.0  0.56477  0.97121  0.01227  1.0000
  Fe  Fe79      1.0  0.74295  0.62917  0.54741  1.0000
  H   H595      1.0  0.59144  0.56118  0.59743  1.0000
  H   H596      1.0  0.61746  0.93633  0.04260  1.0000
  H   H597      1.0  0.60795  0.57543  0.55315  1.0000
  H   H598      1.0  0.79264  0.58499  0.02152  1.0000
  H   H599      1.0  0.75487  0.59970  0.82919  1.0000
  Fe  Fe80      1.0  0.73198  0.56150  0.54737  1.0000
  C   C372      1.0  0.65712  0.56520  0.55897  1.0000
  H   H600      1.0  0.60834  0.96377  0.97598  1.0000
  H   H601      1.0  0.75776  0.59112  0.76319  1.0000
  C   C373      1.0  0.78441  0.60161  0.76670  1.0000
  C   C374      1.0  0.55497  0.99585  0.56153  1.0000
  H   H602      1.0  0.79008  0.57715  0.62724  1.0000
  H   H603      1.0  0.62922  0.03550  0.97073  1.0000
  H   H604      1.0  0.66856  0.55046  0.55957  1.0000
  H   H605      1.0  0.55356  0.70284  0.85212  1.0000
  H   H606      1.0  0.55783  0.98540  0.02947  1.0000
  H   H607      1.0  0.61714  0.98364  0.54942  1.0000
  S   S157      1.0  0.55245  0.82233  0.55213  1.0000
  H   H608      1.0  0.55696  0.01334  0.97333  1.0000
  H   H609      1.0  0.69074  0.91674  0.02906  1.0000
  C   C375      1.0  0.85165  0.22724  0.51679  1.0000
  C   C376      1.0  0.85235  0.23880  0.48187  1.0000
  C   C377      1.0  0.82326  0.23120  0.46478  1.0000
  S   S158      1.0  0.88061  0.30104  0.26144  1.0000
  H   H610      1.0  0.84622  0.23813  0.13705  1.0000
  C   C378      1.0  0.84985  0.17389  0.10656  1.0000
  H   H611      1.0  0.87735  0.47274  0.40337  1.0000
  H   H612      1.0  0.89749  0.42199  0.27047  1.0000
  H   H613      1.0  0.01693  0.33141  0.50768  1.0000
  C   C379      1.0  0.83179  0.25640  0.21687  1.0000
  C   C380      1.0  0.84896  0.26147  0.24933  1.0000
  C   C381      1.0  0.84080  0.23496  0.27148  1.0000
  C   C382      1.0  0.81561  0.20354  0.26114  1.0000
  Fe  Fe81      1.0  0.86795  0.28648  0.39729  1.0000
  H   H614      1.0  0.85425  0.23860  0.29631  1.0000
  H   H615      1.0  0.96274  0.52170  0.43697  1.0000
  H   H616      1.0  0.81989  0.17177  0.16881  1.0000
  H   H617      1.0  0.84947  0.22804  0.09107  1.0000
  C   C383      1.0  0.02617  0.34975  0.48688  1.0000
  H   H618      1.0  0.85343  0.20873  0.18755  1.0000
  H   H619      1.0  0.80986  0.18300  0.27799  1.0000
  H   H620      1.0  0.81466  0.20066  0.11701  1.0000
  C   C384      1.0  0.89365  0.22461  0.13160  1.0000
  C   C385      1.0  0.89594  0.52785  0.44038  1.0000
  H   H621      1.0  0.90273  0.23440  0.10414  1.0000
  H   H622      1.0  0.95804  0.45821  0.26031  1.0000
  H   H623      1.0  0.96251  0.42785  0.28265  1.0000
  H   H624      1.0  0.90357  0.39213  0.29092  1.0000
  C   C386      1.0  0.84690  0.18866  0.16799  1.0000
  H   H625      1.0  0.99484  0.41330  0.52818  1.0000
  C   C387      1.0  0.84147  0.21788  0.11863  1.0000
  H   H626      1.0  0.90695  0.21298  0.14117  1.0000
  H   H627      1.0  0.82314  0.15548  0.10628  1.0000
  H   H628      1.0  0.93897  0.51851  0.47568  1.0000
  N   N39       1.0  0.85800  0.20126  0.13121  1.0000
  S   S159      1.0  0.90597  0.28674  0.36186  1.0000
  C   C388      1.0  0.89911  0.48196  0.42132  1.0000
  H   H629      1.0  0.87526  0.25286  0.46783  1.0000
  C   C389      1.0  0.82203  0.20885  0.53510  1.0000
  S   S160      1.0  0.82274  0.24244  0.41983  1.0000
  H   H630      1.0  0.87611  0.38089  0.25344  1.0000
  H   H631      1.0  0.83799  0.27685  0.19964  1.0000
  Fe  Fe82      1.0  0.89110  0.31080  0.32116  1.0000
  S   S161      1.0  0.85139  0.30733  0.35465  1.0000
  H   H632      1.0  0.83371  0.13183  0.49470  1.0000
  Fe  Fe83      1.0  0.93937  0.33746  0.38484  1.0000
  S   S162      1.0  0.90233  0.33522  0.42356  1.0000
  S   S163      1.0  0.99450  0.36596  0.39166  1.0000
  H   H633      1.0  0.83625  0.15198  0.53627  1.0000
  H   H634      1.0  0.97920  0.44174  0.23850  1.0000
  Fe  Fe84      1.0  0.88845  0.35571  0.37769  1.0000
  S   S164      1.0  0.87310  0.39202  0.38202  1.0000
  H   H635      1.0  0.87471  0.52118  0.42235  1.0000
  S   S165      1.0  0.92722  0.36127  0.34067  1.0000
  H   H636      1.0  0.94905  0.38619  0.21358  1.0000
  C   C390      1.0  0.89689  0.42674  0.35597  1.0000
  C   C391      1.0  0.88255  0.44246  0.34022  1.0000
  C   C392      1.0  0.90150  0.47088  0.32016  1.0000
  C   C393      1.0  0.93490  0.48380  0.31612  1.0000
  C   C394      1.0  0.94928  0.46822  0.33221  1.0000
  C   C395      1.0  0.93028  0.43959  0.35191  1.0000
  H   H637      1.0  0.85667  0.43247  0.34325  1.0000
  H   H638      1.0  0.89008  0.48231  0.30724  1.0000
  H   H639      1.0  0.97520  0.47833  0.32943  1.0000
  H   H640      1.0  0.94158  0.42785  0.36462  1.0000
  C   C396      1.0  0.94617  0.52897  0.44817  1.0000
  C   C397      1.0  0.01771  0.36980  0.43042  1.0000
  C   C398      1.0  0.00559  0.34675  0.45801  1.0000
  H   H641      1.0  0.93319  0.37100  0.25762  1.0000
  H   H642      1.0  0.90580  0.36049  0.22013  1.0000
  H   H643      1.0  0.98075  0.32614  0.45650  1.0000
  H   H644      1.0  0.89033  0.46994  0.44791  1.0000
  H   H645      1.0  0.86249  0.16120  0.11455  1.0000
  N   N40       1.0  0.92699  0.40958  0.23963  1.0000
  C   C399      1.0  0.92115  0.42145  0.20549  1.0000
  C   C400      1.0  0.89986  0.40080  0.26464  1.0000
  C   C401      1.0  0.95804  0.43545  0.25600  1.0000
  C   C402      1.0  0.92889  0.38063  0.23234  1.0000
  H   H646      1.0  0.94122  0.42843  0.18600  1.0000
  H   H647      1.0  0.91956  0.44331  0.21019  1.0000
  H   H648      1.0  0.89791  0.40250  0.19238  1.0000
  H   H649      1.0  0.90053  0.24569  0.14976  1.0000
  S   S166      1.0  0.95903  0.51876  0.29033  1.0000
  H   H650      1.0  0.94429  0.52546  0.37569  1.0000
  H   H651      1.0  0.90695  0.52467  0.37003  1.0000
  H   H652      1.0  0.84425  0.11983  0.53592  1.0000
  H   H653      1.0  0.85668  0.18231  0.07823  1.0000
  C   C403      1.0  0.92809  0.53244  0.38854  1.0000
  H   H654      1.0  0.85803  0.17506  0.17801  1.0000
  H   H655      1.0  0.87414  0.23252  0.52962  1.0000
  C   C404      1.0  0.82847  0.12785  0.52406  1.0000
  N   N41       1.0  0.91732  0.51780  0.42462  1.0000
  C   C405      1.0  0.80596  0.22510  0.20707  1.0000
  H   H656      1.0  0.88630  0.51634  0.46701  1.0000
  H   H657      1.0  0.04806  0.43153  0.50222  1.0000
  H   H658      1.0  0.91461  0.47352  0.40979  1.0000
  C   C406      1.0  0.05012  0.39619  0.43244  1.0000
  H   H659      1.0  0.80189  0.22227  0.34381  1.0000
  H   H660      1.0  0.80392  0.51799  0.04681  1.0000
  H   H661      1.0  0.00974  0.45475  0.54081  1.0000
  H   H662      1.0  0.80080  0.52695  0.15813  1.0000
  H   H663      1.0  0.99169  0.42315  0.57413  1.0000
  H   H664      1.0  0.98760  0.30392  0.82242  1.0000
  N   N42       1.0  0.04003  0.43702  0.55803  1.0000
  C   C407      1.0  0.85023  0.24788  0.98413  1.0000
  H   H665      1.0  0.98586  0.25493  0.79858  1.0000
  H   H666      1.0  0.97784  0.26017  0.86402  1.0000
  S   S167      1.0  0.85377  0.30565  0.97110  1.0000
  H   H667      1.0  0.94106  0.25663  0.87878  1.0000
  H   H668      1.0  0.85429  0.39213  0.01818  1.0000
  C   C408      1.0  0.82671  0.23027  0.73511  1.0000
  C   C409      1.0  0.85438  0.26020  0.74522  1.0000
  C   C410      1.0  0.86152  0.26892  0.78171  1.0000
  C   C411      1.0  0.84086  0.24754  0.80819  1.0000
  C   C412      1.0  0.03616  0.40600  0.56963  1.0000
  S   S168      1.0  0.90837  0.29239  0.89763  1.0000
  H   H669      1.0  0.84625  0.25407  0.83642  1.0000
  Fe  Fe85      1.0  0.87874  0.52763  0.83568  1.0000
  H   H670      1.0  0.95075  0.30042  0.83690  1.0000
  C   C413      1.0  0.81113  0.25616  0.01487  1.0000
  H   H671      1.0  0.83815  0.35269  0.99815  1.0000
  C   C414      1.0  0.81336  0.21737  0.79807  1.0000
  C   C415      1.0  0.83654  0.21729  0.00049  1.0000
  C   C416      1.0  0.96083  0.29077  0.81729  1.0000
  H   H672      1.0  0.87060  0.25638  0.96606  1.0000
  C   C417      1.0  0.95124  0.24786  0.85801  1.0000
  C   C418      1.0  0.02743  0.33532  0.94664  1.0000
  H   H673      1.0  0.87040  0.27661  0.72465  1.0000
  C   C419      1.0  0.83744  0.26731  0.99121  1.0000
  N   N43       1.0  0.94520  0.25522  0.82116  1.0000
  H   H674      1.0  0.95656  0.29737  0.78995  1.0000
  H   H675      1.0  0.93996  0.22128  0.86202  1.0000
  C   C420      1.0  0.95907  0.24322  0.79451  1.0000
  S   S169      1.0  0.89748  0.30584  0.79305  1.0000
  H   H676      1.0  0.95495  0.24854  0.76645  1.0000
  H   H677      1.0  0.94773  0.21643  0.79657  1.0000
  Fe  Fe86      1.0  0.90977  0.32237  0.85097  1.0000
  S   S170      1.0  0.89059  0.34795  0.88271  1.0000
  H   H678      1.0  0.04173  0.45369  0.61239  1.0000
  Fe  Fe87      1.0  0.95998  0.33387  0.90804  1.0000
  S   S171      1.0  0.94564  0.36084  0.94521  1.0000
  S   S172      1.0  0.99720  0.31938  0.91247  1.0000
  C   C421      1.0  0.84116  0.37694  0.99409  1.0000
  H   H679      1.0  0.90573  0.40737  0.93758  1.0000
  Fe  Fe88      1.0  0.94295  0.38530  0.89498  1.0000
  S   S173      1.0  0.96332  0.43937  0.89417  1.0000
  H   H680      1.0  0.83823  0.42159  0.95314  1.0000
  S   S174      1.0  0.96212  0.36206  0.85931  1.0000
  S   S175      1.0  0.86029  0.47611  0.85180  1.0000
  C   C422      1.0  0.93567  0.45036  0.88042  1.0000
  C   C423      1.0  0.90736  0.42844  0.86123  1.0000
  C   C424      1.0  0.88440  0.43665  0.85244  1.0000
  C   C425      1.0  0.89021  0.46730  0.86163  1.0000
  C   C426      1.0  0.91907  0.48981  0.87968  1.0000
  C   C427      1.0  0.94162  0.48116  0.88944  1.0000
  H   H681      1.0  0.90328  0.40530  0.85270  1.0000
  H   H682      1.0  0.86225  0.41935  0.83806  1.0000
  H   H683      1.0  0.92352  0.51344  0.88710  1.0000
  H   H684      1.0  0.96350  0.49818  0.90439  1.0000
  C   C428      1.0  0.81003  0.20604  0.02389  1.0000
  C   C429      1.0  0.86244  0.42416  0.95580  1.0000
  C   C430      1.0  0.89191  0.39697  0.96285  1.0000
  C   C431      1.0  0.94283  0.49303  0.78558  1.0000
  H   H685      1.0  0.03076  0.29275  0.94553  1.0000
  H   H686      1.0  0.92362  0.49873  0.79030  1.0000
  H   H687      1.0  0.81614  0.36685  0.92697  1.0000
  S   S176      1.0  0.82168  0.19248  0.57756  1.0000
  N   N44       1.0  0.85912  0.39226  0.96057  1.0000
  H   H688      1.0  0.85384  0.38166  0.90372  1.0000
  H   H689      1.0  0.03041  0.38101  0.95373  1.0000
  H   H690      1.0  0.93641  0.47854  0.76021  1.0000
  Fe  Fe89      1.0  0.89414  0.32176  0.93065  1.0000
  C   C432      1.0  0.80621  0.20873  0.76150  1.0000
  H   H691      1.0  0.82158  0.22371  0.70689  1.0000
  C   C433      1.0  0.84099  0.37094  0.92948  1.0000
  H   H692      1.0  0.87637  0.43643  0.93099  1.0000
  H   H693      1.0  0.89686  0.21227  0.81761  1.0000
  H   H694      1.0  0.90427  0.24434  0.78724  1.0000
  C   C434      1.0  0.03999  0.36626  0.96207  1.0000
  H   H695      1.0  0.94135  0.47708  0.80793  1.0000
  H   H696      1.0  0.02094  0.39633  0.59421  1.0000
  H   H697      1.0  0.83810  0.34666  0.93211  1.0000
  C   C435      1.0  0.90968  0.23914  0.81477  1.0000
  H   H698      1.0  0.99968  0.49887  0.80285  1.0000
  H   H699      1.0  0.84638  0.20225  0.99484  1.0000
  H   H700      1.0  0.89048  0.37359  0.96737  1.0000
  H   H701      1.0  0.90673  0.41373  0.98526  1.0000
  H   H702      1.0  0.87572  0.44083  0.97888  1.0000
  N   N45       1.0  0.97565  0.52290  0.78387  1.0000
  H   H703      1.0  0.99616  0.49962  0.75463  1.0000
  H   H704      1.0  0.89852  0.24796  0.83417  1.0000
  C   C436      1.0  0.04018  0.31657  0.95737  1.0000
  H   H705      1.0  0.97140  0.52883  0.72694  1.0000
  H   H706      1.0  0.80208  0.09002  0.58266  1.0000
  H   H707      1.0  0.81631  0.37304  0.99340  1.0000
  C   C437      1.0  0.00034  0.51395  0.77979  1.0000
  H   H708      1.0  0.98321  0.52860  0.84132  1.0000
  C   C438      1.0  0.00762  0.43185  0.54997  1.0000
  H   H709      1.0  0.02544  0.53595  0.77873  1.0000
  H   H710      1.0  0.02448  0.38703  0.54814  1.0000
  H   H711      1.0  0.80112  0.27107  0.02039  1.0000
  H   H712      1.0  0.00402  0.67058  0.15976  1.0000
  H   H713      1.0  0.89048  0.70259  0.46756  1.0000
  H   H714      1.0  0.91859  0.59919  0.16581  1.0000
  Fe  Fe90      1.0  0.91377  0.58748  0.32631  1.0000
  C   C439      1.0  0.89199  0.69610  0.53920  1.0000
  S   S177      1.0  0.90058  0.58701  0.38486  1.0000
  Fe  Fe91      1.0  0.96410  0.62294  0.26715  1.0000
  S   S178      1.0  0.94404  0.57807  0.23288  1.0000
  S   S179      1.0  0.00769  0.67129  0.24981  1.0000
  Fe  Fe92      1.0  0.89509  0.56947  0.24731  1.0000
  H   H715      1.0  0.82549  0.58843  0.47139  1.0000
  H   H716      1.0  0.85156  0.63169  0.52818  1.0000
  S   S180      1.0  0.91508  0.61647  0.27822  1.0000
  S   S181      1.0  0.96448  0.59809  0.31775  1.0000
  C   C440      1.0  0.98158  0.64662  0.15344  1.0000
  C   C441      1.0  0.03368  0.64002  0.21510  1.0000
  C   C442      1.0  0.03696  0.66978  0.22323  1.0000
  H   H717      1.0  0.01445  0.61791  0.22722  1.0000
  Fe  Fe93      1.0  0.94036  0.55244  0.28452  1.0000
  H   H718      1.0  0.97856  0.69683  0.12834  1.0000
  H   H719      1.0  0.90102  0.61797  0.14107  1.0000
  C   C443      1.0  0.83964  0.56890  0.18598  1.0000
  C   C444      1.0  0.85407  0.60215  0.19281  1.0000
  C   C445      1.0  0.84202  0.61949  0.17550  1.0000
  H   H720      1.0  0.98576  0.63778  0.12755  1.0000
  H   H721      1.0  0.87476  0.61455  0.21096  1.0000
  H   H722      1.0  0.85359  0.64537  0.18027  1.0000
  H   H723      1.0  0.82710  0.62740  0.36709  1.0000
  C   C446      1.0  0.83560  0.61605  0.38542  1.0000
  C   C447      1.0  0.85863  0.60871  0.37367  1.0000
  C   C448      1.0  0.87021  0.59471  0.39749  1.0000
  C   C449      1.0  0.85821  0.58751  0.43280  1.0000
  C   C450      1.0  0.82374  0.60902  0.42080  1.0000
  H   H724      1.0  0.92610  0.60627  0.11839  1.0000
  H   H725      1.0  0.86778  0.61438  0.34641  1.0000
  C   C451      1.0  0.87913  0.67723  0.47744  1.0000
  C   C452      1.0  0.83478  0.59431  0.44429  1.0000
  H   H726      1.0  0.94502  0.64432  0.20889  1.0000
  H   H727      1.0  0.97916  0.62947  0.17488  1.0000
  C   C453      1.0  0.87796  0.64175  0.52380  1.0000
  S   S182      1.0  0.85648  0.54727  0.20354  1.0000
  H   H728      1.0  0.93519  0.67482  0.12111  1.0000
  C   C454      1.0  0.81231  0.55281  0.16302  1.0000
  C   C455      1.0  0.94831  0.66116  0.18669  1.0000
  H   H729      1.0  0.86694  0.57652  0.45130  1.0000
  H   H730      1.0  0.88115  0.66261  0.45557  1.0000
  H   H731      1.0  0.97014  0.68530  0.19400  1.0000
  H   H732      1.0  0.92666  0.66357  0.18649  1.0000
  C   C456      1.0  0.95669  0.67218  0.12300  1.0000
  H   H733      1.0  0.85263  0.66741  0.48109  1.0000
  C   C457      1.0  0.92328  0.61676  0.14378  1.0000
  C   C458      1.0  0.81485  0.60344  0.15231  1.0000
  H   H734      1.0  0.94170  0.68696  0.52985  1.0000
  H   H735      1.0  0.95998  0.66397  0.09619  1.0000
  N   N46       1.0  0.95245  0.64916  0.15169  1.0000
  H   H736      1.0  0.88004  0.62576  0.50390  1.0000
  S   S183      1.0  0.88966  0.53989  0.29635  1.0000
  H   H737      1.0  0.94273  0.71356  0.49540  1.0000
  N   N47       1.0  0.89462  0.67577  0.51130  1.0000
  H   H738      1.0  0.93213  0.67306  0.48382  1.0000
  C   C459      1.0  0.92937  0.68791  0.50482  1.0000
  H   H739      1.0  0.94178  0.55949  0.39001  1.0000
  H   H740      1.0  0.87342  0.60385  0.05592  1.0000
  H   H741      1.0  0.90444  0.72202  0.53098  1.0000
  H   H742      1.0  0.80761  0.59555  0.06684  1.0000
  H   H743      1.0  0.84518  0.58112  0.09121  1.0000
  H   H744      1.0  0.90927  0.55472  0.44433  1.0000
  C   C460      1.0  0.85226  0.57946  0.06310  1.0000
  H   H745      1.0  0.86049  0.56193  0.06318  1.0000
  S   S184      1.0  0.80191  0.62625  0.12908  1.0000
  H   H746      1.0  0.96053  0.55598  0.45101  1.0000
  N   N48       1.0  0.82475  0.56913  0.03767  1.0000
  S   S185      1.0  0.84255  0.64086  0.60649  1.0000
  C   C461      1.0  0.98231  0.54197  0.81749  1.0000
  Fe  Fe94      1.0  0.88384  0.59136  0.85519  1.0000
  S   S186      1.0  0.87682  0.62022  0.89839  1.0000
  Fe  Fe95      1.0  0.93427  0.59124  0.80656  1.0000
  S   S187      1.0  0.98842  0.61477  0.79797  1.0000
  S   S188      1.0  0.84345  0.54403  0.83270  1.0000
  S   S189      1.0  0.90371  0.61344  0.80083  1.0000
  S   S190      1.0  0.91767  0.57322  0.86293  1.0000
  C   C462      1.0  0.83511  0.56762  0.00067  1.0000
  C   C463      1.0  0.03653  0.63461  0.74841  1.0000
  C   C464      1.0  0.00458  0.62677  0.75451  1.0000
  H   H747      1.0  0.98729  0.64242  0.67062  1.0000
  C   C465      1.0  0.83835  0.61585  0.64287  1.0000
  C   C466      1.0  0.83189  0.57573  0.70086  1.0000
  C   C467      1.0  0.86055  0.60623  0.69723  1.0000
  C   C468      1.0  0.86379  0.62627  0.66814  1.0000
  C   C469      1.0  0.80972  0.58543  0.64672  1.0000
  H   H748      1.0  0.88021  0.61427  0.71663  1.0000
  H   H749      1.0  0.88598  0.64982  0.66518  1.0000
  H   H750      1.0  0.84398  0.55067  0.99871  1.0000
  C   C470      1.0  0.80651  0.56545  0.67567  1.0000
  C   C471      1.0  0.83753  0.60501  0.91579  1.0000
  H   H751      1.0  0.83487  0.60582  0.83363  1.0000
  H   H752      1.0  0.95966  0.55078  0.75563  1.0000
  H   H753      1.0  0.85226  0.64833  0.94701  1.0000
  S   S191      1.0  0.82620  0.54999  0.73699  1.0000
  C   C472      1.0  0.98658  0.62899  0.72626  1.0000
  H   H754      1.0  0.85505  0.59195  0.99129  1.0000
  H   H755      1.0  0.81546  0.55864  0.88892  1.0000
  H   H756      1.0  0.81451  0.55891  0.98118  1.0000
  C   C473      1.0  0.82795  0.61037  0.80664  1.0000
  H   H757      1.0  0.00605  0.56564  0.81630  1.0000
  H   H758      1.0  0.96184  0.62284  0.73074  1.0000
  S   S192      1.0  0.89764  0.54388  0.77988  1.0000
  H   H759      1.0  0.84156  0.63718  0.80279  1.0000
  H   H760      1.0  0.90276  0.69496  0.56540  1.0000
  C   C474      1.0  0.00100  0.64003  0.69226  1.0000
  H   H761      1.0  0.96315  0.54766  0.82255  1.0000
  C   C475      1.0  0.03322  0.64847  0.68635  1.0000
  C   C476      1.0  0.97718  0.54264  0.75274  1.0000
  H   H762      1.0  0.83683  0.60020  0.78606  1.0000
  H   H763      1.0  0.00186  0.56499  0.75018  1.0000
  H   H764      1.0  0.88816  0.63980  0.55003  1.0000
  Fe  Fe96      1.0  0.86542  0.56426  0.77887  1.0000
  C   C477      1.0  0.83228  0.62416  0.93986  1.0000
  C   C478      1.0  0.81157  0.57393  0.90655  1.0000
  C   C479      1.0  0.81436  0.59282  0.03903  1.0000
  H   H765      1.0  0.83396  0.61738  0.02995  1.0000
  C   C480      1.0  0.80126  0.61216  0.95474  1.0000
  H   H766      1.0  0.04744  0.69887  0.74909  1.0000
  H   H767      1.0  0.04814  0.73615  0.74936  1.0000
  H   H768      1.0  0.86605  0.68759  0.54467  1.0000
