data_image0
_chemical_formula_structural       S2NHFeSCS2CFeH3C4H2C2H2C7H6CH2N2CHCHCSFeCHSCH2SFeHFeSCHCSHCSFeHFe2C2HCH5SFeHCH2C2NH8CHFeH2CHNCHC2HSCSH2FeS2H2SH2C6HCHCH2CH2CHCSH4CHS2H2C2HFe2SC4FeHSFeS3HCHCFeH5CH2C6H4C2HNH2SHCFeCHCH4SHCSCHSCFeHCHCSH2CH4CNFeHCH2SCSH4SNSH3SCSHFeHFeSCH5FeHC5SH2SCFeSFeHS2NCH4FeHSH2CHCHCHCH2CNHCHCH2CHCH4CH2CHCH3CSCFeH2C2H4CH4CSCHCSCHC5HFeH2SHSH5CH3CHSH3CHCH4CHFeCH3C2SH3FeCH2SCH3CHS2NHCH2NHCHCH3NC4HCHCSH2SH5CSH2CNHNH3SCFeHC2H2CSH4CSHCFeHSCH2CSCSFeS2HCH3C6H7CHNH9C2H4NHCH2SH2S5HCFeSHFeCSCHCHC2H2FeCHFeC4H3C2HCH3NCHCHSH3C2HFeCH3CH2CH3C2HNHCFeH2CHSCHCSH2SHSHFeH2SC2HCFeSHCH2SCH3C2H2C6H4CHC2H2SH5SH2C3HCHN2SH3NHCH2C2H5C4HCFeSCHSFeSFeSFeHSC2HSCHC2HCFeH4SH2CHS2HSH2CNCHCH3FeCFeHCH4C6H4C2HCHNSH7C2H2CH2CNC2HC3H2CH4CHFeH7C2HCH3SHC2FeSHSFeS2NCHCH2CSHCH5CHCHCH2FeS2CH3C2H2FeH3C6H2CHNC2H4CH2CHCH2SHCHFeHCHC2SCNHCH2SFe2H4SCHSHC6H3SHCSHCH2NHCH2SH2C2HNHFeSH5CHCFeS2CHCH2FeH2C7H4CH3SHCH5CHNH3SC3SHFeC3HCHSFeS2H2CHS3CHSHFeC5SH2CHFeCN2SH4SCHC2HFeH3FeSH3C3HSHS2HC2H3CH2NH4CSHCHCH5CH3CFeC8FeCH2C3SHSHS4CH2C2H2FeH3CSH2CH2C3HC3H2SH2CH3SHSFe2NH2SCH3CHSFeHCHSFeCH3CH2CNSCH3CSHFeSHSFeH3C2H3C2HC2H2CHSC6H2SH5NFeCHNH2CH2NH3S3HCH2SHSCFeS2CHFeSH2SCH6FeHC4HCH3CHCSC2SH3C2H2C3H2C2H4FeS2HNSC2HCH3CH2C3HCSHFeHNCHCH2FeH2CHCH2SH3CH3SH3C2HSCHCSHCFeCSFeSH2C2HCH2SHC6H4Fe2HCNCHSFeS2H2C2H3C2H2CHSH3NSCH2CH2CHCSH3CH2NCHC3HC2SCH6CH8FeC5H4C2S2HFeHSCH2CNH2CSCH2FeH2SH2CH2CH3CH3CHCHC2SFeS2FeHCH4CFeH2C6H4CHCSNCSHSH2SHC2HS2H2SHFeCH2CH2NHC2H3CH2SCS2CFeS2H4CH2C5H4CHSH2NFeSCNCH4S2H3SHCH5CFeH2NFeCHC2NH8SCSHSC3H3CFeHC2FeHCH3NH2CHC2H2C2FeS2Fe3CS2H4CHCHC5SH4FeHNFeH2S2HCH4CHFeHCHCHS2H3CH4C2FeH4CSHC2H3C2HSHFeSHCH2FeHSCFeC3HCH7CHCFe2HNHCSFeHC2NSHCHSHSH4CHCSFeHCSCH2FeSH3CH5C2H3NH2SCHSH2C2H2CHSH3FeHSH3S2HCHCHFe2H2C7H2CNC2HC2HSHFeHCHFeHCSCS2H2C2HC3H3C4HC3HCH2CHSNFeH2CH2CHNH4SCH3CSH5C6H4SCSCHCHCH4CH3CHNHCHS2HCHC8H2CH3SH2SC2H3NFeSCH2NHFeC2HSH3SH2CH3CHSFeC3H2SHSHC7H10C2H3SHFeS2CHCH2CHNHCH2CFeNCHFeHCFeHC2FeH6SH
_chemical_formula_sum              "S256 N64 H1024 Fe128 C640"
_cell_length_a       44.5261
_cell_length_b       43.5476
_cell_length_c       35.9756
_cell_angle_alpha    90.1226
_cell_angle_beta     90.2152
_cell_angle_gamma    89.5491

_space_group_name_H-M_alt    "P 1"
_space_group_IT_number       1

loop_
  _space_group_symop_operation_xyz
  'x, y, z'

loop_
  _atom_site_type_symbol
  _atom_site_label
  _atom_site_symmetry_multiplicity
  _atom_site_fract_x
  _atom_site_fract_y
  _atom_site_fract_z
  _atom_site_occupancy
  S   S1        1.0  0.14255  0.14251  0.42056  1.0000
  S   S2        1.0  0.34252  0.35795  0.24554  1.0000
  N   N1        1.0  0.25976  0.41886  0.22440  1.0000
  H   H1        1.0  0.14413  0.56653  0.29915  1.0000
  Fe  Fe1       1.0  0.18926  0.15790  0.40896  1.0000
  S   S3        1.0  0.19187  0.19315  0.36360  1.0000
  C   C1        1.0  0.32722  0.34727  0.14223  1.0000
  S   S4        1.0  0.27801  0.32994  0.18267  1.0000
  S   S5        1.0  0.29012  0.31772  0.28841  1.0000
  C   C2        1.0  0.10123  0.11443  0.54096  1.0000
  Fe  Fe2       1.0  0.15544  0.14544  0.48044  1.0000
  H   H2        1.0  0.26894  0.28379  0.47284  1.0000
  H   H3        1.0  0.25730  0.29658  0.40516  1.0000
  H   H4        1.0  0.31658  0.59030  0.16994  1.0000
  C   C3        1.0  0.15060  0.12111  0.31652  1.0000
  C   C4        1.0  0.29594  0.34837  0.14566  1.0000
  C   C5        1.0  0.29288  0.38084  0.09088  1.0000
  C   C6        1.0  0.27879  0.36497  0.11977  1.0000
  H   H5        1.0  0.22782  0.31921  0.45548  1.0000
  H   H6        1.0  0.25458  0.36578  0.12218  1.0000
  C   C7        1.0  0.28859  0.35939  0.45564  1.0000
  C   C8        1.0  0.29912  0.33836  0.42920  1.0000
  H   H7        1.0  0.16226  0.44818  0.17373  1.0000
  H   H8        1.0  0.30214  0.31449  0.43656  1.0000
  C   C9        1.0  0.10822  0.12147  0.27439  1.0000
  C   C10       1.0  0.22859  0.20409  0.35276  1.0000
  C   C11       1.0  0.23320  0.22725  0.32650  1.0000
  C   C12       1.0  0.26235  0.23743  0.31888  1.0000
  C   C13       1.0  0.28694  0.22435  0.33743  1.0000
  C   C14       1.0  0.28236  0.20080  0.36325  1.0000
  C   C15       1.0  0.25318  0.19075  0.37105  1.0000
  H   H9        1.0  0.21421  0.23754  0.31224  1.0000
  H   H10       1.0  0.26577  0.25531  0.29859  1.0000
  H   H11       1.0  0.30135  0.19060  0.37760  1.0000
  H   H12       1.0  0.24975  0.17280  0.39132  1.0000
  H   H13       1.0  0.31465  0.33176  0.37318  1.0000
  H   H14       1.0  0.26899  0.45585  0.26239  1.0000
  C   C16       1.0  0.29064  0.41822  0.20946  1.0000
  H   H15       1.0  0.15645  0.17946  0.29435  1.0000
  H   H16       1.0  0.15605  0.51156  0.10889  1.0000
  N   N2        1.0  0.12722  0.14055  0.29892  1.0000
  N   N3        1.0  0.11959  0.51483  0.06968  1.0000
  C   C17       1.0  0.25294  0.26439  0.47029  1.0000
  H   H17       1.0  0.12203  0.17017  0.34640  1.0000
  C   C18       1.0  0.30364  0.37921  0.38391  1.0000
  H   H18       1.0  0.26205  0.37218  0.24358  1.0000
  C   C19       1.0  0.23819  0.41176  0.19430  1.0000
  S   S6        1.0  0.32341  0.23784  0.32986  1.0000
  Fe  Fe3       1.0  0.30925  0.32148  0.23090  1.0000
  C   C20       1.0  0.10402  0.56849  0.37970  1.0000
  H   H19       1.0  0.26894  0.13899  0.12712  1.0000
  S   S7        1.0  0.12536  0.16987  0.52089  1.0000
  C   C21       1.0  0.27936  0.56512  0.09312  1.0000
  H   H20       1.0  0.25447  0.46769  0.21781  1.0000
  H   H21       1.0  0.22051  0.22334  0.43202  1.0000
  S   S8        1.0  0.20090  0.16507  0.46904  1.0000
  Fe  Fe4       1.0  0.31595  0.44425  0.55567  1.0000
  H   H22       1.0  0.29344  0.43515  0.18664  1.0000
  Fe  Fe5       1.0  0.32587  0.28179  0.29723  1.0000
  S   S9        1.0  0.32550  0.49017  0.53027  1.0000
  C   C22       1.0  0.29321  0.40034  0.41036  1.0000
  H   H23       1.0  0.27775  0.40683  0.46670  1.0000
  C   C23       1.0  0.25309  0.44970  0.23966  1.0000
  S   S10       1.0  0.31446  0.39187  0.33976  1.0000
  H   H24       1.0  0.24178  0.38810  0.18334  1.0000
  C   C24       1.0  0.10313  0.14592  0.54825  1.0000
  S   S11       1.0  0.13519  0.16042  0.11947  1.0000
  Fe  Fe6       1.0  0.16795  0.59825  0.15436  1.0000
  H   H25       1.0  0.19469  0.30481  0.43285  1.0000
  Fe  Fe7       1.0  0.21577  0.11575  0.46764  1.0000
  Fe  Fe8       1.0  0.32587  0.35137  0.30358  1.0000
  C   C25       1.0  0.20848  0.24477  0.44032  1.0000
  C   C26       1.0  0.25715  0.39573  0.25421  1.0000
  H   H26       1.0  0.15589  0.15481  0.25425  1.0000
  C   C27       1.0  0.28597  0.39049  0.44637  1.0000
  H   H27       1.0  0.31501  0.55178  0.15172  1.0000
  H   H28       1.0  0.23416  0.39554  0.26618  1.0000
  H   H29       1.0  0.23563  0.49639  0.08888  1.0000
  H   H30       1.0  0.21458  0.41335  0.20423  1.0000
  H   H31       1.0  0.25646  0.12395  0.08324  1.0000
  S   S12       1.0  0.27822  0.34637  0.49982  1.0000
  Fe  Fe9       1.0  0.29117  0.38088  0.54334  1.0000
  H   H32       1.0  0.22996  0.45097  0.25130  1.0000
  C   C28       1.0  0.18091  0.44830  0.11846  1.0000
  H   H33       1.0  0.29640  0.39521  0.19793  1.0000
  H   H34       1.0  0.25783  0.25596  0.39783  1.0000
  C   C29       1.0  0.30649  0.34820  0.39335  1.0000
  C   C30       1.0  0.21260  0.29904  0.45338  1.0000
  N   N4        1.0  0.22929  0.27100  0.44241  1.0000
  H   H35       1.0  0.24043  0.42793  0.17054  1.0000
  H   H36       1.0  0.25723  0.56130  0.10648  1.0000
  H   H37       1.0  0.11357  0.57483  0.55584  1.0000
  H   H38       1.0  0.29069  0.42429  0.40300  1.0000
  H   H39       1.0  0.26614  0.24347  0.46278  1.0000
  H   H40       1.0  0.19749  0.24038  0.46753  1.0000
  H   H41       1.0  0.09795  0.13729  0.34622  1.0000
  H   H42       1.0  0.16654  0.43013  0.10841  1.0000
  C   C31       1.0  0.32412  0.37931  0.08707  1.0000
  H   H43       1.0  0.27322  0.40027  0.27733  1.0000
  Fe  Fe10      1.0  0.15587  0.60562  0.23674  1.0000
  H   H44       1.0  0.30753  0.42335  0.23148  1.0000
  H   H45       1.0  0.28140  0.57095  0.16744  1.0000
  C   C32       1.0  0.24317  0.27570  0.40561  1.0000
  H   H46       1.0  0.33345  0.44124  0.44259  1.0000
  N   N5        1.0  0.29802  0.58670  0.11482  1.0000
  C   C33       1.0  0.27640  0.13253  0.09866  1.0000
  H   H47       1.0  0.22660  0.53963  0.55809  1.0000
  C   C34       1.0  0.34126  0.36240  0.11266  1.0000
  C   C35       1.0  0.17862  0.45835  0.15540  1.0000
  H   H48       1.0  0.29947  0.31673  0.07000  1.0000
  S   S13       1.0  0.19861  0.58163  0.25361  1.0000
  C   C36       1.0  0.12951  0.57542  0.32061  1.0000
  S   S14       1.0  0.14210  0.56984  0.19504  1.0000
  H   H49       1.0  0.13356  0.54560  0.11313  1.0000
  H   H50       1.0  0.22592  0.27832  0.38334  1.0000
  Fe  Fe11      1.0  0.18680  0.54836  0.20837  1.0000
  S   S15       1.0  0.19146  0.49715  0.21287  1.0000
  S   S16       1.0  0.21143  0.57376  0.16426  1.0000
  H   H51       1.0  0.13325  0.53480  0.35443  1.0000
  H   H52       1.0  0.24321  0.26066  0.49836  1.0000
  S   S17       1.0  0.33805  0.39926  0.54130  1.0000
  H   H53       1.0  0.32069  0.12745  0.14943  1.0000
  H   H54       1.0  0.16534  0.13483  0.33521  1.0000
  C   C37       1.0  0.10845  0.15490  0.32810  1.0000
  C   C38       1.0  0.11672  0.60468  0.31714  1.0000
  C   C39       1.0  0.19666  0.48233  0.16813  1.0000
  C   C40       1.0  0.21786  0.49534  0.14442  1.0000
  C   C41       1.0  0.22013  0.48535  0.10750  1.0000
  C   C42       1.0  0.12326  0.55744  0.35189  1.0000
  H   H55       1.0  0.23250  0.51317  0.15453  1.0000
  C   C43       1.0  0.20145  0.46203  0.09439  1.0000
  H   H56       1.0  0.34061  0.33446  0.16212  1.0000
  C   C44       1.0  0.14169  0.16480  0.27670  1.0000
  H   H57       1.0  0.20184  0.29630  0.48104  1.0000
  H   H58       1.0  0.11937  0.50956  0.12924  1.0000
  C   C45       1.0  0.10867  0.13800  0.14278  1.0000
  H   H59       1.0  0.19043  0.24866  0.41931  1.0000
  H   H60       1.0  0.28370  0.15380  0.08423  1.0000
  C   C46       1.0  0.32726  0.59063  0.09611  1.0000
  H   H61       1.0  0.33948  0.56833  0.09319  1.0000
  C   C47       1.0  0.13266  0.52058  0.10687  1.0000
  S   S18       1.0  0.26889  0.42652  0.55290  1.0000
  H   H62       1.0  0.12470  0.18010  0.26329  1.0000
  H   H63       1.0  0.27947  0.39386  0.07127  1.0000
  H   H64       1.0  0.29067  0.54235  0.09007  1.0000
  H   H65       1.0  0.10431  0.46977  0.08461  1.0000
  C   C48       1.0  0.30302  0.57429  0.15258  1.0000
  H   H66       1.0  0.33555  0.14262  0.10686  1.0000
  S   S19       1.0  0.34157  0.28203  0.23811  1.0000
  S   S20       1.0  0.15688  0.60635  0.09425  1.0000
  H   H67       1.0  0.34204  0.60664  0.11176  1.0000
  H   H68       1.0  0.10619  0.60789  0.14432  1.0000
  C   C49       1.0  0.32670  0.12155  0.12027  1.0000
  C   C50       1.0  0.09808  0.61022  0.11613  1.0000
  H   H69       1.0  0.32432  0.59994  0.06748  1.0000
  Fe  Fe12      1.0  0.21944  0.60917  0.20797  1.0000
  Fe  Fe13      1.0  0.15384  0.13768  0.06828  1.0000
  S   S21       1.0  0.16873  0.16894  0.02274  1.0000
  C   C51       1.0  0.11959  0.57808  0.58467  1.0000
  C   C52       1.0  0.19959  0.22141  0.86360  1.0000
  C   C53       1.0  0.17713  0.17396  0.84296  1.0000
  C   C54       1.0  0.27580  0.40339  0.76643  1.0000
  Fe  Fe14      1.0  0.20691  0.13573  0.01542  1.0000
  H   H70       1.0  0.29465  0.35260  0.01592  1.0000
  S   S22       1.0  0.32171  0.26472  0.73394  1.0000
  Fe  Fe15      1.0  0.31339  0.26675  0.87332  1.0000
  S   S23       1.0  0.27129  0.26650  0.90773  1.0000
  S   S24       1.0  0.31917  0.30428  0.83148  1.0000
  S   S25       1.0  0.25546  0.14771  0.00584  1.0000
  H   H71       1.0  0.25790  0.55215  0.89418  1.0000
  C   C55       1.0  0.09669  0.57795  0.80942  1.0000
  H   H72       1.0  0.25685  0.34930  0.73849  1.0000
  C   C56       1.0  0.32253  0.28306  0.98964  1.0000
  Fe  Fe16      1.0  0.14304  0.13763  0.98501  1.0000
  H   H73       1.0  0.25467  0.40579  0.74997  1.0000
  H   H74       1.0  0.25485  0.52509  0.67033  1.0000
  H   H75       1.0  0.31268  0.28124  0.65764  1.0000
  H   H76       1.0  0.13082  0.12030  0.64473  1.0000
  H   H77       1.0  0.31636  0.40380  0.70995  1.0000
  C   C57       1.0  0.20957  0.51509  0.62311  1.0000
  H   H78       1.0  0.23715  0.17360  0.85225  1.0000
  H   H79       1.0  0.19437  0.53381  0.63309  1.0000
  C   C58       1.0  0.26069  0.18161  0.98037  1.0000
  C   C59       1.0  0.28699  0.18548  0.95965  1.0000
  C   C60       1.0  0.29067  0.21174  0.93756  1.0000
  C   C61       1.0  0.26819  0.23432  0.93658  1.0000
  C   C62       1.0  0.24242  0.23097  0.95831  1.0000
  C   C63       1.0  0.23865  0.20463  0.98006  1.0000
  H   H80       1.0  0.30423  0.16781  0.95995  1.0000
  H   H81       1.0  0.31073  0.21425  0.92096  1.0000
  H   H82       1.0  0.22513  0.24859  0.95795  1.0000
  H   H83       1.0  0.21872  0.20224  0.99672  1.0000
  C   C64       1.0  0.17706  0.18724  0.90808  1.0000
  C   C65       1.0  0.30431  0.57559  0.85642  1.0000
  H   H84       1.0  0.10747  0.47629  0.03541  1.0000
  N   N6        1.0  0.29454  0.37763  0.75264  1.0000
  H   H85       1.0  0.25887  0.55949  0.57587  1.0000
  H   H86       1.0  0.22037  0.14835  0.88576  1.0000
  S   S26       1.0  0.20217  0.45125  0.04752  1.0000
  H   H87       1.0  0.12958  0.52533  0.01270  1.0000
  C   C66       1.0  0.32226  0.37552  0.77522  1.0000
  Fe  Fe17      1.0  0.27550  0.41664  0.61366  1.0000
  C   C67       1.0  0.33652  0.42818  0.85494  1.0000
  H   H88       1.0  0.31538  0.36330  0.70163  1.0000
  C   C68       1.0  0.31378  0.39344  0.89899  1.0000
  H   H89       1.0  0.34583  0.53083  0.85390  1.0000
  H   H90       1.0  0.26187  0.48373  0.62288  1.0000
  H   H91       1.0  0.21248  0.23338  0.88585  1.0000
  H   H92       1.0  0.29601  0.38824  0.91836  1.0000
  S   S27       1.0  0.26887  0.41782  0.99218  1.0000
  H   H93       1.0  0.28198  0.38582  0.69566  1.0000
  C   C69       1.0  0.30240  0.38293  0.71330  1.0000
  S   S28       1.0  0.29259  0.36890  0.60392  1.0000
  C   C70       1.0  0.32984  0.29601  0.66912  1.0000
  H   H94       1.0  0.33629  0.34979  0.90608  1.0000
  S   S29       1.0  0.23956  0.42625  0.65619  1.0000
  C   C71       1.0  0.25912  0.50151  0.60099  1.0000
  Fe  Fe18      1.0  0.33800  0.39059  0.60276  1.0000
  H   H95       1.0  0.15433  0.18441  0.83970  1.0000
  C   C72       1.0  0.25297  0.54161  0.64688  1.0000
  H   H96       1.0  0.23704  0.18360  0.90056  1.0000
  C   C73       1.0  0.31619  0.55080  0.91480  1.0000
  S   S30       1.0  0.32588  0.22919  0.83353  1.0000
  H   H97       1.0  0.22192  0.56950  0.59204  1.0000
  H   H98       1.0  0.26270  0.53109  0.85153  1.0000
  C   C74       1.0  0.33652  0.37177  0.89211  1.0000
  H   H99       1.0  0.21280  0.22356  0.83754  1.0000
  H   H100      1.0  0.17804  0.23415  0.85967  1.0000
  H   H101      1.0  0.19865  0.50408  0.59866  1.0000
  H   H102      1.0  0.15463  0.19853  0.90525  1.0000
  C   C75       1.0  0.32223  0.52311  0.85711  1.0000
  N   N7        1.0  0.19433  0.18888  0.87316  1.0000
  Fe  Fe19      1.0  0.31033  0.43152  0.02320  1.0000
  H   H103      1.0  0.31613  0.52904  0.93105  1.0000
  C   C76       1.0  0.31357  0.42145  0.88003  1.0000
  H   H104      1.0  0.18898  0.19865  0.93144  1.0000
  H   H105      1.0  0.24963  0.48998  0.57600  1.0000
  S   S31       1.0  0.32108  0.43773  0.61684  1.0000
  C   C77       1.0  0.13608  0.58499  0.65920  1.0000
  S   S32       1.0  0.10077  0.11283  0.78058  1.0000
  H   H106      1.0  0.10835  0.20116  0.04855  1.0000
  H   H107      1.0  0.14003  0.59699  0.92392  1.0000
  H   H108      1.0  0.21104  0.49747  0.64544  1.0000
  H   H109      1.0  0.27137  0.51317  0.89498  1.0000
  S   S33       1.0  0.28845  0.46866  0.05694  1.0000
  N   N8        1.0  0.30411  0.30419  0.01247  1.0000
  S   S34       1.0  0.25753  0.49216  0.97801  1.0000
  H   H110      1.0  0.31305  0.51846  0.82880  1.0000
  H   H111      1.0  0.33574  0.39685  0.77321  1.0000
  H   H112      1.0  0.27590  0.55033  0.64112  1.0000
  S   S35       1.0  0.20170  0.58073  0.80935  1.0000
  C   C78       1.0  0.27770  0.34862  0.75566  1.0000
  S   S36       1.0  0.19142  0.55369  0.72489  1.0000
  H   H113      1.0  0.25760  0.31110  0.02635  1.0000
  Fe  Fe20      1.0  0.16333  0.57518  0.76938  1.0000
  H   H114      1.0  0.26411  0.29725  0.97999  1.0000
  Fe  Fe21      1.0  0.23026  0.56395  0.76239  1.0000
  S   S37       1.0  0.26864  0.53114  0.77074  1.0000
  C   C79       1.0  0.15601  0.59381  0.63130  1.0000
  H   H115      1.0  0.17310  0.16303  0.91646  1.0000
  H   H116      1.0  0.16309  0.59701  0.57222  1.0000
  H   H117      1.0  0.30071  0.33845  0.96957  1.0000
  H   H118      1.0  0.28789  0.42561  0.76461  1.0000
  H   H119      1.0  0.26951  0.40018  0.79610  1.0000
  Fe  Fe22      1.0  0.30036  0.49950  0.00950  1.0000
  H   H120      1.0  0.31708  0.37179  0.80510  1.0000
  C   C80       1.0  0.27830  0.46178  0.69755  1.0000
  C   C81       1.0  0.28474  0.48475  0.72366  1.0000
  C   C82       1.0  0.26146  0.49858  0.74370  1.0000
  C   C83       1.0  0.23207  0.48803  0.73937  1.0000
  C   C84       1.0  0.22569  0.46497  0.71335  1.0000
  S   S38       1.0  0.28553  0.44868  0.88909  1.0000
  H   H121      1.0  0.30756  0.49266  0.72717  1.0000
  H   H122      1.0  0.21417  0.49783  0.75591  1.0000
  S   S39       1.0  0.11033  0.16094  0.94624  1.0000
  C   C85       1.0  0.27213  0.29567  0.00930  1.0000
  Fe  Fe23      1.0  0.24776  0.45762  0.02249  1.0000
  S   S40       1.0  0.34165  0.39733  0.04946  1.0000
  Fe  Fe24      1.0  0.33606  0.26720  0.79375  1.0000
  H   H123      1.0  0.31629  0.28472  0.95975  1.0000
  S   S41       1.0  0.31966  0.54684  0.01328  1.0000
  S   S42       1.0  0.32615  0.46334  0.97881  1.0000
  N   N9        1.0  0.23958  0.52703  0.61365  1.0000
  C   C86       1.0  0.33907  0.29241  0.70606  1.0000
  H   H124      1.0  0.29632  0.45155  0.68212  1.0000
  H   H125      1.0  0.33190  0.34319  0.00089  1.0000
  H   H126      1.0  0.27116  0.34392  0.78492  1.0000
  H   H127      1.0  0.18881  0.17580  0.81578  1.0000
  Fe  Fe25      1.0  0.28249  0.45343  0.95083  1.0000
  H   H128      1.0  0.29522  0.57279  0.82770  1.0000
  S   S43       1.0  0.12031  0.55242  0.78563  1.0000
  H   H129      1.0  0.12561  0.11754  0.69438  1.0000
  H   H130      1.0  0.20279  0.45744  0.70944  1.0000
  C   C87       1.0  0.24868  0.45248  0.69153  1.0000
  H   H131      1.0  0.33641  0.44985  0.84030  1.0000
  C   C88       1.0  0.10798  0.57301  0.64998  1.0000
  H   H132      1.0  0.33686  0.35615  0.76604  1.0000
  C   C89       1.0  0.30800  0.33597  0.99907  1.0000
  H   H133      1.0  0.14213  0.58746  0.68804  1.0000
  C   C90       1.0  0.31374  0.30207  0.05176  1.0000
  H   H134      1.0  0.23905  0.56135  0.65673  1.0000
  H   H135      1.0  0.29054  0.59358  0.87050  1.0000
  C   C91       1.0  0.12483  0.12170  0.88872  1.0000
  N   N10       1.0  0.30382  0.54623  0.87699  1.0000
  H   H136      1.0  0.26838  0.27167  0.01874  1.0000
  C   C92       1.0  0.13885  0.52893  0.04112  1.0000
  H   H137      1.0  0.28199  0.50962  0.59352  1.0000
  C   C93       1.0  0.22348  0.17288  0.87806  1.0000
  H   H138      1.0  0.33465  0.20022  0.71777  1.0000
  H   H139      1.0  0.17385  0.14912  0.84865  1.0000
  C   C94       1.0  0.27256  0.53527  0.87959  1.0000
  H   H140      1.0  0.29140  0.32865  0.74589  1.0000
  C   C95       1.0  0.14772  0.59040  0.59395  1.0000
  H   H141      1.0  0.30285  0.56797  0.93086  1.0000
  H   H142      1.0  0.31943  0.25869  0.99802  1.0000
  H   H143      1.0  0.10194  0.51585  0.72134  1.0000
  H   H144      1.0  0.33508  0.32178  0.61855  1.0000
  C   C96       1.0  0.34223  0.31919  0.64710  1.0000
  H   H145      1.0  0.16198  0.51888  0.04175  1.0000
  H   H146      1.0  0.32755  0.58460  0.85394  1.0000
  C   C97       1.0  0.09969  0.56946  0.61275  1.0000
  H   H147      1.0  0.33736  0.30980  0.05553  1.0000
  C   C98       1.0  0.11784  0.48140  0.06292  1.0000
  H   H148      1.0  0.31789  0.12214  0.04611  1.0000
  H   H149      1.0  0.32266  0.50085  0.87223  1.0000
  H   H150      1.0  0.33979  0.55903  0.91404  1.0000
  C   C99       1.0  0.23663  0.54994  0.58357  1.0000
  S   S44       1.0  0.19140  0.60834  0.64338  1.0000
  C   C100      1.0  0.10677  0.14610  0.90094  1.0000
  Fe  Fe26      1.0  0.19703  0.60174  0.70472  1.0000
  H   H151      1.0  0.13581  0.60090  0.87440  1.0000
  H   H152      1.0  0.14098  0.55412  0.04567  1.0000
  C   C101      1.0  0.09760  0.60941  0.80196  1.0000
  C   C102      1.0  0.10213  0.12516  0.82712  1.0000
  H   H153      1.0  0.14049  0.11079  0.90762  1.0000
  H   H154      1.0  0.34101  0.16714  0.68874  1.0000
  H   H155      1.0  0.31223  0.27814  0.06237  1.0000
  H   H156      1.0  0.14054  0.47056  0.06298  1.0000
  C   C103      1.0  0.12269  0.11144  0.85174  1.0000
  H   H157      1.0  0.27497  0.57392  0.06456  1.0000
  H   H158      1.0  0.31583  0.86238  0.25404  1.0000
  H   H159      1.0  0.31188  0.71788  0.26998  1.0000
  H   H160      1.0  0.21184  0.72418  0.29406  1.0000
  C   C104      1.0  0.29277  0.80791  0.45923  1.0000
  S   S45       1.0  0.17779  0.63612  0.19460  1.0000
  C   C105      1.0  0.29287  0.70930  0.25451  1.0000
  H   H161      1.0  0.27736  0.82265  0.40540  1.0000
  C   C106      1.0  0.31375  0.69345  0.47984  1.0000
  S   S46       1.0  0.26746  0.76627  0.26358  1.0000
  C   C107      1.0  0.23339  0.00530  0.08982  1.0000
  H   H162      1.0  0.14049  0.10264  0.33365  1.0000
  C   C108      1.0  0.10679  0.10640  0.13622  1.0000
  C   C109      1.0  0.26871  0.72875  0.24589  1.0000
  C   C110      1.0  0.26777  0.66695  0.22371  1.0000
  C   C111      1.0  0.24425  0.68674  0.21361  1.0000
  C   C112      1.0  0.24467  0.71762  0.22477  1.0000
  H   H163      1.0  0.31088  0.66333  0.25083  1.0000
  Fe  Fe27      1.0  0.30687  0.77372  0.30154  1.0000
  H   H164      1.0  0.22569  0.67831  0.19729  1.0000
  H   H165      1.0  0.22614  0.73272  0.21757  1.0000
  S   S47       1.0  0.13882  0.05726  0.39322  1.0000
  H   H166      1.0  0.33063  0.67948  0.41104  1.0000
  S   S48       1.0  0.12471  0.62767  0.27838  1.0000
  H   H167      1.0  0.30264  0.79812  0.51669  1.0000
  H   H168      1.0  0.16728  0.02585  0.46388  1.0000
  H   H169      1.0  0.21695  0.72321  0.34352  1.0000
  H   H170      1.0  0.24920  0.86762  0.42924  1.0000
  H   H171      1.0  0.19136  0.64250  0.35432  1.0000
  C   C113      1.0  0.29240  0.67844  0.24340  1.0000
  H   H172      1.0  0.21968  0.99305  0.53440  1.0000
  H   H173      1.0  0.25448  0.01486  0.09892  1.0000
  H   H174      1.0  0.18148  0.00370  0.42583  1.0000
  C   C114      1.0  0.20037  0.66387  0.28561  1.0000
  H   H175      1.0  0.33481  0.85928  0.51477  1.0000
  S   S49       1.0  0.26620  0.62756  0.21366  1.0000
  H   H176      1.0  0.16350  0.70745  0.34953  1.0000
  H   H177      1.0  0.28295  0.08598  0.14741  1.0000
  H   H178      1.0  0.29562  0.63339  0.13440  1.0000
  C   C115      1.0  0.20622  0.66293  0.35217  1.0000
  H   H179      1.0  0.30448  0.80314  0.21096  1.0000
  C   C116      1.0  0.09755  0.61585  0.34502  1.0000
  H   H180      1.0  0.22379  0.65553  0.28116  1.0000
  H   H181      1.0  0.12212  0.09536  0.11702  1.0000
  H   H182      1.0  0.32674  0.93222  0.46280  1.0000
  H   H183      1.0  0.19098  0.94123  0.09966  1.0000
  C   C117      1.0  0.27708  0.82717  0.43478  1.0000
  H   H184      1.0  0.27323  0.84241  0.54076  1.0000
  Fe  Fe28      1.0  0.25976  0.90780  0.55818  1.0000
  C   C118      1.0  0.16632  0.69295  0.32427  1.0000
  H   H185      1.0  0.29455  0.05306  0.53075  1.0000
  H   H186      1.0  0.23919  0.96181  0.48223  1.0000
  H   H187      1.0  0.24886  0.01799  0.48458  1.0000
  C   C119      1.0  0.26083  0.85248  0.44839  1.0000
  C   C120      1.0  0.29101  0.81325  0.49755  1.0000
  S   S50       1.0  0.32233  0.74035  0.34506  1.0000
  H   H188      1.0  0.28147  0.89757  0.19250  1.0000
  H   H189      1.0  0.18570  0.64337  0.28656  1.0000
  H   H190      1.0  0.18976  0.02015  0.52676  1.0000
  Fe  Fe29      1.0  0.29717  0.95913  0.11055  1.0000
  C   C121      1.0  0.25784  0.84109  0.19821  1.0000
  H   H191      1.0  0.25152  0.81999  0.21378  1.0000
  H   H192      1.0  0.27753  0.87523  0.25590  1.0000
  S   S51       1.0  0.24241  0.89218  0.50263  1.0000
  C   C122      1.0  0.28975  0.08119  0.11823  1.0000
  H   H193      1.0  0.32002  0.88543  0.19116  1.0000
  H   H194      1.0  0.24173  0.85964  0.20609  1.0000
  H   H195      1.0  0.26018  0.61459  0.13112  1.0000
  C   C123      1.0  0.29665  0.87799  0.18531  1.0000
  H   H196      1.0  0.22974  0.65431  0.34964  1.0000
  S   S52       1.0  0.24956  0.95340  0.12875  1.0000
  S   S53       1.0  0.17112  0.09645  0.48383  1.0000
  N   N11       1.0  0.30067  0.10919  0.09960  1.0000
  H   H197      1.0  0.19355  0.67747  0.26079  1.0000
  C   C124      1.0  0.29238  0.85604  0.24670  1.0000
  H   H198      1.0  0.31128  0.68948  0.51022  1.0000
  H   H199      1.0  0.28663  0.83539  0.26335  1.0000
  N   N12       1.0  0.19772  0.68223  0.32001  1.0000
  H   H200      1.0  0.29758  0.67831  0.46512  1.0000
  C   C125      1.0  0.27319  0.05456  0.54495  1.0000
  H   H201      1.0  0.18247  0.97960  0.52528  1.0000
  C   C126      1.0  0.26012  0.85857  0.48656  1.0000
  H   H202      1.0  0.30818  0.81961  0.16539  1.0000
  H   H203      1.0  0.24172  0.70171  0.31371  1.0000
  H   H204      1.0  0.25462  0.83625  0.16808  1.0000
  N   N13       1.0  0.20546  0.99727  0.47743  1.0000
  C   C127      1.0  0.21797  0.96694  0.46687  1.0000
  C   C128      1.0  0.19900  0.99754  0.51770  1.0000
  C   C129      1.0  0.17742  0.00321  0.45637  1.0000
  C   C130      1.0  0.22750  0.02144  0.46888  1.0000
  H   H205      1.0  0.20213  0.94804  0.47343  1.0000
  C   C131      1.0  0.21791  0.70897  0.31784  1.0000
  H   H206      1.0  0.22297  0.96571  0.43663  1.0000
  C   C132      1.0  0.30967  0.82468  0.19565  1.0000
  S   S54       1.0  0.27998  0.95459  0.55801  1.0000
  H   H207      1.0  0.16029  0.98533  0.46181  1.0000
  H   H208      1.0  0.33342  0.83044  0.20199  1.0000
  S   S55       1.0  0.31559  0.77786  0.44250  1.0000
  H   H209      1.0  0.20439  0.67595  0.37872  1.0000
  H   H210      1.0  0.21875  0.04463  0.47643  1.0000
  H   H211      1.0  0.23303  0.02200  0.43876  1.0000
  H   H212      1.0  0.15879  0.70667  0.29982  1.0000
  H   H213      1.0  0.15059  0.67326  0.32669  1.0000
  C   C133      1.0  0.22508  0.97597  0.10172  1.0000
  S   S56       1.0  0.30748  0.81424  0.33981  1.0000
  H   H214      1.0  0.27864  0.62703  0.08953  1.0000
  H   H215      1.0  0.10328  0.08913  0.44693  1.0000
  C   C134      1.0  0.27470  0.83855  0.51119  1.0000
  N   N14       1.0  0.28914  0.84998  0.20644  1.0000
  H   H216      1.0  0.29484  0.87420  0.15478  1.0000
  N   N15       1.0  0.34491  0.68758  0.46750  1.0000
  H   H217      1.0  0.33191  0.92942  0.51221  1.0000
  H   H218      1.0  0.32856  0.86373  0.44620  1.0000
  H   H219      1.0  0.33844  0.63898  0.46048  1.0000
  S   S57       1.0  0.31846  0.91878  0.08233  1.0000
  C   C135      1.0  0.10174  0.07074  0.39134  1.0000
  Fe  Fe30      1.0  0.32711  0.78168  0.38171  1.0000
  H   H220      1.0  0.30727  0.90336  0.48862  1.0000
  C   C136      1.0  0.32894  0.91575  0.48626  1.0000
  C   C137      1.0  0.25189  0.07657  0.53400  1.0000
  H   H221      1.0  0.30683  0.71767  0.47422  1.0000
  H   H222      1.0  0.26998  0.07144  0.10345  1.0000
  C   C138      1.0  0.19750  0.96387  0.09051  1.0000
  S   S58       1.0  0.25844  0.09880  0.49425  1.0000
  H   H223      1.0  0.30746  0.06298  0.11914  1.0000
  H   H224      1.0  0.11340  0.10449  0.51797  1.0000
  H   H225      1.0  0.20878  0.09684  0.54607  1.0000
  H   H226      1.0  0.09669  0.10313  0.29026  1.0000
  C   C139      1.0  0.22467  0.07895  0.55315  1.0000
  S   S59       1.0  0.33616  0.96770  0.14856  1.0000
  H   H227      1.0  0.34286  0.71797  0.42047  1.0000
  C   C140      1.0  0.28246  0.61675  0.11746  1.0000
  Fe  Fe31      1.0  0.16261  0.09527  0.42263  1.0000
  H   H228      1.0  0.34547  0.10458  0.12152  1.0000
  S   S60       1.0  0.20854  0.11026  0.40607  1.0000
  C   C141      1.0  0.11835  0.61152  0.08659  1.0000
  H   H229      1.0  0.12163  0.11013  0.25211  1.0000
  H   H230      1.0  0.16524  0.10985  0.29544  1.0000
  C   C142      1.0  0.17868  0.98060  0.06655  1.0000
  S   S61       1.0  0.31111  0.99283  0.06718  1.0000
  C   C143      1.0  0.21424  0.02235  0.06638  1.0000
  S   S62       1.0  0.16615  0.62294  0.74666  1.0000
  Fe  Fe32      1.0  0.20717  0.62669  0.78252  1.0000
  S   S63       1.0  0.21403  0.66789  0.81910  1.0000
  S   S64       1.0  0.22767  0.00550  0.62115  1.0000
  H   H231      1.0  0.15386  0.68055  0.94026  1.0000
  C   C144      1.0  0.13930  0.66182  0.87138  1.0000
  H   H232      1.0  0.11485  0.66738  0.87280  1.0000
  H   H233      1.0  0.13812  0.07369  0.60736  1.0000
  H   H234      1.0  0.28331  0.96867  0.94183  1.0000
  C   C145      1.0  0.31368  0.68373  0.83990  1.0000
  C   C146      1.0  0.29238  0.70486  0.85304  1.0000
  C   C147      1.0  0.26164  0.69940  0.84780  1.0000
  C   C148      1.0  0.25219  0.67277  0.82950  1.0000
  C   C149      1.0  0.27344  0.65098  0.81794  1.0000
  C   C150      1.0  0.30416  0.65652  0.82297  1.0000
  H   H235      1.0  0.29958  0.72546  0.86720  1.0000
  H   H236      1.0  0.24525  0.71612  0.85730  1.0000
  H   H237      1.0  0.26631  0.63003  0.80467  1.0000
  H   H238      1.0  0.25536  0.98824  0.01677  1.0000
  H   H239      1.0  0.27161  0.71028  0.71783  1.0000
  H   H240      1.0  0.10791  0.61653  0.90512  1.0000
  H   H241      1.0  0.24108  0.77036  0.78090  1.0000
  C   C151      1.0  0.14193  0.65823  0.93824  1.0000
  H   H242      1.0  0.17351  0.08766  0.70027  1.0000
  N   N16       1.0  0.14882  0.64229  0.90292  1.0000
  H   H243      1.0  0.19446  0.65807  0.90063  1.0000
  H   H244      1.0  0.27215  0.70744  0.76749  1.0000
  H   H245      1.0  0.14033  0.03658  0.62918  1.0000
  H   H246      1.0  0.24256  0.77382  0.71236  1.0000
  H   H247      1.0  0.32053  0.77446  0.75026  1.0000
  H   H248      1.0  0.32210  0.83628  0.79851  1.0000
  H   H249      1.0  0.13679  0.09268  0.84226  1.0000
  H   H250      1.0  0.32818  0.08398  0.06088  1.0000
  H   H251      1.0  0.11738  0.66316  0.94073  1.0000
  C   C152      1.0  0.16826  0.07699  0.67288  1.0000
  C   C153      1.0  0.30979  0.10151  0.06118  1.0000
  H   H252      1.0  0.33108  0.99077  0.61688  1.0000
  H   H253      1.0  0.27662  0.79533  0.71513  1.0000
  H   H254      1.0  0.28296  0.01665  0.58146  1.0000
  H   H255      1.0  0.32060  0.64005  0.81301  1.0000
  N   N17       1.0  0.27705  0.75332  0.74656  1.0000
  H   H256      1.0  0.09739  0.05391  0.69341  1.0000
  C   C154      1.0  0.31022  0.75131  0.74767  1.0000
  H   H257      1.0  0.29062  0.09222  0.04478  1.0000
  H   H258      1.0  0.12334  0.61654  0.02740  1.0000
  S   S65       1.0  0.29524  0.81694  0.92496  1.0000
  H   H259      1.0  0.27526  0.79186  0.78403  1.0000
  H   H260      1.0  0.34209  0.91706  0.90983  1.0000
  S   S66       1.0  0.12536  0.10863  0.03112  1.0000
  S   S67       1.0  0.23096  0.91699  0.60797  1.0000
  S   S68       1.0  0.26353  0.86867  0.69035  1.0000
  S   S69       1.0  0.29179  0.94514  0.64794  1.0000
  S   S70       1.0  0.33106  0.77832  0.83666  1.0000
  H   H261      1.0  0.32513  0.86625  0.88728  1.0000
  C   C155      1.0  0.23846  0.03475  0.59068  1.0000
  Fe  Fe33      1.0  0.16727  0.08053  0.02315  1.0000
  S   S71       1.0  0.16383  0.02914  0.02241  1.0000
  H   H262      1.0  0.33118  0.94745  0.72861  1.0000
  Fe  Fe34      1.0  0.27045  0.89906  0.64066  1.0000
  C   C156      1.0  0.12215  0.05614  0.69717  1.0000
  S   S72       1.0  0.29746  0.88597  0.59043  1.0000
  C   C157      1.0  0.26746  0.77161  0.71395  1.0000
  H   H263      1.0  0.14363  0.65025  0.84423  1.0000
  C   C158      1.0  0.21126  0.98490  0.96636  1.0000
  H   H264      1.0  0.15762  0.97086  0.05738  1.0000
  C   C159      1.0  0.23367  0.93555  0.95246  1.0000
  C   C160      1.0  0.21793  0.05802  0.58143  1.0000
  H   H265      1.0  0.27535  0.76108  0.68750  1.0000
  H   H266      1.0  0.27262  0.75505  0.80600  1.0000
  Fe  Fe35      1.0  0.31535  0.93372  0.59448  1.0000
  C   C161      1.0  0.13250  0.61287  0.90152  1.0000
  H   H267      1.0  0.12578  0.06702  0.72489  1.0000
  Fe  Fe36      1.0  0.33478  0.79790  0.89396  1.0000
  C   C162      1.0  0.32876  0.90259  0.92768  1.0000
  C   C163      1.0  0.30293  0.85465  0.93834  1.0000
  C   C164      1.0  0.30397  0.89374  0.98635  1.0000
  C   C165      1.0  0.29441  0.86500  0.97359  1.0000
  H   H268      1.0  0.29754  0.90138  0.01365  1.0000
  H   H269      1.0  0.28137  0.85032  0.99151  1.0000
  H   H270      1.0  0.27535  0.85218  0.76592  1.0000
  C   C166      1.0  0.29627  0.85063  0.75077  1.0000
  C   C167      1.0  0.29696  0.85832  0.71302  1.0000
  H   H271      1.0  0.25361  0.98430  0.91365  1.0000
  C   C168      1.0  0.18147  0.63629  0.90047  1.0000
  H   H272      1.0  0.26734  0.00536  0.95324  1.0000
  H   H273      1.0  0.21732  0.92327  0.97032  1.0000
  H   H274      1.0  0.20156  0.98682  0.93792  1.0000
  N   N18       1.0  0.23950  0.96684  0.96664  1.0000
  C   C169      1.0  0.25119  0.96499  0.00507  1.0000
  H   H275      1.0  0.31822  0.73728  0.77171  1.0000
  C   C170      1.0  0.31947  0.87375  0.91506  1.0000
  H   H276      1.0  0.19391  0.97433  0.98443  1.0000
  S   S73       1.0  0.18263  0.10693  0.97324  1.0000
  H   H277      1.0  0.17883  0.09130  0.65097  1.0000
  H   H278      1.0  0.19638  0.05913  0.59506  1.0000
  H   H279      1.0  0.25463  0.92148  0.95169  1.0000
  C   C171      1.0  0.32408  0.85675  0.69361  1.0000
  C   C172      1.0  0.32264  0.84136  0.76914  1.0000
  H   H280      1.0  0.23511  0.95336  0.02391  1.0000
  Fe  Fe37      1.0  0.25457  0.96223  0.61094  1.0000
  C   C173      1.0  0.26449  0.72205  0.74387  1.0000
  H   H281      1.0  0.27281  0.95209  0.00633  1.0000
  H   H282      1.0  0.32464  0.86243  0.66437  1.0000
  H   H283      1.0  0.22439  0.93611  0.92370  1.0000
  C   C174      1.0  0.26187  0.98199  0.94274  1.0000
  H   H284      1.0  0.31935  0.74045  0.72204  1.0000
  H   H285      1.0  0.21484  0.00867  0.97691  1.0000
  C   C175      1.0  0.26601  0.76831  0.78085  1.0000
  H   H286      1.0  0.17943  0.05398  0.67204  1.0000
  H   H287      1.0  0.10496  0.05661  0.62617  1.0000
  H   H288      1.0  0.09710  0.10437  0.66318  1.0000
  C   C176      1.0  0.12951  0.05968  0.63084  1.0000
  C   C177      1.0  0.12179  0.10562  0.66734  1.0000
  H   H289      1.0  0.15176  0.68388  0.87095  1.0000
  N   N19       1.0  0.13547  0.07459  0.66705  1.0000
  H   H290      1.0  0.14863  0.64412  0.96272  1.0000
  C   C178      1.0  0.18693  0.00987  0.05455  1.0000
  Fe  Fe38      1.0  0.33573  0.95315  0.04186  1.0000
  H   H291      1.0  0.18725  0.62413  0.87417  1.0000
  H   H292      1.0  0.11120  0.61792  0.77966  1.0000
  C   C179      1.0  0.26647  0.03367  0.57327  1.0000
  H   H293      1.0  0.18965  0.62194  0.92402  1.0000
  S   S74       1.0  0.23878  0.61039  0.73795  1.0000
  C   C180      1.0  0.10768  0.61521  0.05023  1.0000
  H   H294      1.0  0.23948  0.72244  0.74446  1.0000
  C   C181      1.0  0.32176  0.91224  0.96372  1.0000
  S   S75       1.0  0.33595  0.94719  0.97992  1.0000
  H   H295      1.0  0.13199  0.03258  0.69807  1.0000
  H   H296      1.0  0.22094  0.04474  0.05673  1.0000
  S   S76       1.0  0.19441  0.10699  0.06472  1.0000
  H   H297      1.0  0.34172  0.90898  0.74093  1.0000
  S   S77       1.0  0.52245  0.16678  0.33411  1.0000
  H   H298      1.0  0.38057  0.20733  0.27090  1.0000
  Fe  Fe39      1.0  0.48862  0.16395  0.19994  1.0000
  H   H299      1.0  0.55120  0.14223  0.12394  1.0000
  H   H300      1.0  0.52778  0.50107  0.54378  1.0000
  S   S78       1.0  0.45610  0.19201  0.16619  1.0000
  C   C182      1.0  0.59307  0.11791  0.13131  1.0000
  C   C183      1.0  0.44980  0.21004  0.31119  1.0000
  H   H301      1.0  0.43038  0.45974  0.54696  1.0000
  C   C184      1.0  0.56043  0.17341  0.34441  1.0000
  Fe  Fe40      1.0  0.37342  0.31829  0.25772  1.0000
  S   S79       1.0  0.42285  0.31664  0.24612  1.0000
  H   H302      1.0  0.41716  0.25603  0.34240  1.0000
  C   C185      1.0  0.57073  0.17070  0.38106  1.0000
  H   H303      1.0  0.56852  0.12363  0.44999  1.0000
  H   H304      1.0  0.55498  0.16632  0.40302  1.0000
  S   S80       1.0  0.47215  0.14020  0.25109  1.0000
  C   C186      1.0  0.38422  0.47413  0.54200  1.0000
  H   H305      1.0  0.35724  0.47380  0.44956  1.0000
  H   H306      1.0  0.36544  0.36121  0.10985  1.0000
  H   H307      1.0  0.41525  0.21827  0.25000  1.0000
  C   C187      1.0  0.37637  0.44028  0.39065  1.0000
  C   C188      1.0  0.40543  0.20454  0.27285  1.0000
  H   H308      1.0  0.51217  0.16520  0.45024  1.0000
  H   H309      1.0  0.41041  0.20368  0.36706  1.0000
  C   C189      1.0  0.44841  0.22811  0.18576  1.0000
  C   C190      1.0  0.46814  0.24119  0.21155  1.0000
  C   C191      1.0  0.46077  0.26918  0.22877  1.0000
  C   C192      1.0  0.43330  0.28370  0.22099  1.0000
  C   C193      1.0  0.41378  0.27088  0.19477  1.0000
  C   C194      1.0  0.42149  0.24328  0.17686  1.0000
  H   H310      1.0  0.48908  0.22981  0.21823  1.0000
  H   H311      1.0  0.47601  0.27919  0.24883  1.0000
  H   H312      1.0  0.39289  0.28239  0.18801  1.0000
  H   H313      1.0  0.40626  0.23330  0.15678  1.0000
  C   C195      1.0  0.59037  0.59238  0.29643  1.0000
  H   H314      1.0  0.49504  0.13542  0.52512  1.0000
  C   C196      1.0  0.56825  0.12823  0.11082  1.0000
  C   C197      1.0  0.56583  0.12120  0.07291  1.0000
  H   H315      1.0  0.41163  0.46933  0.44110  1.0000
  H   H316      1.0  0.36002  0.53823  0.49671  1.0000
  S   S81       1.0  0.57790  0.60076  0.51190  1.0000
  H   H317      1.0  0.54754  0.57244  0.28240  1.0000
  H   H318      1.0  0.42842  0.43342  0.42741  1.0000
  H   H319      1.0  0.41110  0.18002  0.26728  1.0000
  H   H320      1.0  0.37801  0.46542  0.38557  1.0000
  H   H321      1.0  0.35621  0.39040  0.42626  1.0000
  S   S82       1.0  0.53227  0.17937  0.22503  1.0000
  H   H322      1.0  0.42087  0.26199  0.29337  1.0000
  H   H323      1.0  0.41350  0.43814  0.47339  1.0000
  C   C198      1.0  0.57067  0.58969  0.37014  1.0000
  C   C199      1.0  0.57966  0.58671  0.55737  1.0000
  C   C200      1.0  0.40974  0.24759  0.31469  1.0000
  H   H324      1.0  0.51624  0.12984  0.42498  1.0000
  C   C201      1.0  0.59422  0.54866  0.09285  1.0000
  H   H325      1.0  0.45604  0.18535  0.30868  1.0000
  N   N20       1.0  0.52832  0.12712  0.48291  1.0000
  N   N21       1.0  0.41688  0.21468  0.30945  1.0000
  S   S83       1.0  0.50802  0.12130  0.17445  1.0000
  H   H326      1.0  0.56402  0.15946  0.47442  1.0000
  H   H327      1.0  0.39375  0.42859  0.37339  1.0000
  H   H328      1.0  0.40705  0.17164  0.33567  1.0000
  N   N22       1.0  0.38013  0.43298  0.43051  1.0000
  H   H329      1.0  0.35407  0.43269  0.38008  1.0000
  C   C202      1.0  0.56191  0.58053  0.30463  1.0000
  H   H330      1.0  0.57481  0.12559  0.49917  1.0000
  H   H331      1.0  0.37749  0.19987  0.33853  1.0000
  C   C203      1.0  0.37824  0.39939  0.43586  1.0000
  C   C204      1.0  0.40236  0.19664  0.33903  1.0000
  H   H332      1.0  0.57301  0.18271  0.28782  1.0000
  H   H333      1.0  0.45938  0.21846  0.33790  1.0000
  H   H334      1.0  0.57735  0.53758  0.10964  1.0000
  H   H335      1.0  0.39599  0.38698  0.41999  1.0000
  H   H336      1.0  0.46135  0.22245  0.28838  1.0000
  C   C205      1.0  0.51882  0.14090  0.51864  1.0000
  C   C206      1.0  0.56027  0.13426  0.47624  1.0000
  C   C207      1.0  0.58079  0.18010  0.31609  1.0000
  C   C208      1.0  0.40971  0.44391  0.44361  1.0000
  H   H337      1.0  0.38517  0.25198  0.31231  1.0000
  C   C209      1.0  0.35613  0.44835  0.45202  1.0000
  Fe  Fe41      1.0  0.51743  0.15198  0.27446  1.0000
  S   S84       1.0  0.36013  0.31537  0.31752  1.0000
  C   C210      1.0  0.41515  0.47714  0.53639  1.0000
  H   H338      1.0  0.52124  0.16630  0.51852  1.0000
  S   S85       1.0  0.45824  0.57308  0.43434  1.0000
  Fe  Fe42      1.0  0.53285  0.59198  0.48586  1.0000
  S   S86       1.0  0.52603  0.54733  0.45625  1.0000
  Fe  Fe43      1.0  0.50497  0.57588  0.41153  1.0000
  S   S87       1.0  0.51507  0.56815  0.35124  1.0000
  Fe  Fe44      1.0  0.48028  0.54823  0.48192  1.0000
  H   H339      1.0  0.59058  0.11735  0.30904  1.0000
  S   S88       1.0  0.48883  0.59064  0.51581  1.0000
  C   C211      1.0  0.42628  0.50219  0.51656  1.0000
  C   C212      1.0  0.40645  0.52454  0.50284  1.0000
  H   H340      1.0  0.37580  0.45461  0.55715  1.0000
  S   S89       1.0  0.46488  0.50418  0.50798  1.0000
  C   C213      1.0  0.50972  0.13983  0.45238  1.0000
  H   H341      1.0  0.41497  0.54399  0.48764  1.0000
  C   C214      1.0  0.37541  0.52135  0.50812  1.0000
  C   C215      1.0  0.55188  0.57958  0.34146  1.0000
  H   H342      1.0  0.48548  0.13492  0.45662  1.0000
  C   C216      1.0  0.36430  0.49597  0.52738  1.0000
  Fe  Fe45      1.0  0.55033  0.13427  0.20408  1.0000
  H   H343      1.0  0.53263  0.13196  0.54217  1.0000
  H   H344      1.0  0.56340  0.58844  0.39870  1.0000
  H   H345      1.0  0.35778  0.44264  0.48202  1.0000
  H   H346      1.0  0.38070  0.39307  0.46571  1.0000
  S   S90       1.0  0.59599  0.12623  0.17897  1.0000
  H   H347      1.0  0.49735  0.45963  0.56540  1.0000
  H   H348      1.0  0.50480  0.53045  0.56417  1.0000
  C   C217      1.0  0.53347  0.13321  0.79867  1.0000
  H   H349      1.0  0.56435  0.13327  0.86262  1.0000
  S   S91       1.0  0.38412  0.27169  0.81102  1.0000
  S   S92       1.0  0.38811  0.35179  0.85893  1.0000
  H   H350      1.0  0.41567  0.49235  0.02266  1.0000
  S   S93       1.0  0.48239  0.17134  0.72305  1.0000
  H   H351      1.0  0.42992  0.39935  0.90643  1.0000
  H   H352      1.0  0.58526  0.15409  0.82853  1.0000
  C   C218      1.0  0.55542  0.59072  0.58150  1.0000
  N   N23       1.0  0.53744  0.15956  0.82416  1.0000
  C   C219      1.0  0.40135  0.16886  0.69096  1.0000
  H   H353      1.0  0.34688  0.28838  0.99198  1.0000
  C   C220      1.0  0.37593  0.21362  0.66610  1.0000
  H   H354      1.0  0.47110  0.48636  0.58501  1.0000
  H   H355      1.0  0.37827  0.40963  0.98566  1.0000
  H   H356      1.0  0.36106  0.49854  0.03306  1.0000
  Fe  Fe46      1.0  0.37277  0.23697  0.85437  1.0000
  C   C221      1.0  0.36151  0.31136  0.72053  1.0000
  Fe  Fe47      1.0  0.48776  0.12192  0.70475  1.0000
  H   H357      1.0  0.41518  0.22229  0.72278  1.0000
  C   C222      1.0  0.42011  0.39679  0.93469  1.0000
  H   H358      1.0  0.50859  0.14070  0.86596  1.0000
  H   H359      1.0  0.39290  0.15410  0.66795  1.0000
  H   H360      1.0  0.39075  0.34966  0.71006  1.0000
  H   H361      1.0  0.45493  0.44679  0.93108  1.0000
  C   C223      1.0  0.46007  0.17797  0.76255  1.0000
  C   C224      1.0  0.45893  0.20743  0.77825  1.0000
  C   C225      1.0  0.44143  0.21310  0.80995  1.0000
  C   C226      1.0  0.42523  0.18926  0.82622  1.0000
  C   C227      1.0  0.42658  0.15982  0.81077  1.0000
  C   C228      1.0  0.44363  0.15433  0.77876  1.0000
  H   H362      1.0  0.47148  0.22593  0.76583  1.0000
  H   H363      1.0  0.44071  0.23586  0.82205  1.0000
  H   H364      1.0  0.41383  0.14139  0.82306  1.0000
  H   H365      1.0  0.44339  0.13191  0.76643  1.0000
  C   C229      1.0  0.37345  0.51665  0.01966  1.0000
  C   C230      1.0  0.44318  0.44310  0.95794  1.0000
  H   H366      1.0  0.54658  0.12924  0.05715  1.0000
  C   C231      1.0  0.36004  0.40710  0.84940  1.0000
  H   H367      1.0  0.56840  0.17412  0.86671  1.0000
  N   N24       1.0  0.41443  0.42690  0.95251  1.0000
  S   S94       1.0  0.40237  0.19612  0.86486  1.0000
  H   H368      1.0  0.56562  0.55230  0.04453  1.0000
  H   H369      1.0  0.43584  0.38240  0.95145  1.0000
  H   H370      1.0  0.52627  0.52729  0.64349  1.0000
  H   H371      1.0  0.54219  0.60233  0.78293  1.0000
  H   H372      1.0  0.39464  0.44422  0.00299  1.0000
  H   H373      1.0  0.45867  0.43005  0.97654  1.0000
  H   H374      1.0  0.54407  0.52800  0.57531  1.0000
  C   C232      1.0  0.49200  0.47303  0.59097  1.0000
  C   C233      1.0  0.36379  0.33895  0.66199  1.0000
  H   H375      1.0  0.50195  0.49729  0.65808  1.0000
  H   H376      1.0  0.58097  0.56376  0.86875  1.0000
  C   C234      1.0  0.58752  0.55714  0.05611  1.0000
  H   H377      1.0  0.55157  0.46139  0.58650  1.0000
  H   H378      1.0  0.37789  0.23335  0.73609  1.0000
  C   C235      1.0  0.39261  0.21326  0.72990  1.0000
  N   N25       1.0  0.38024  0.19431  0.69946  1.0000
  C   C236      1.0  0.40433  0.51309  0.01368  1.0000
  C   C237      1.0  0.39442  0.44556  0.92853  1.0000
  H   H379      1.0  0.36886  0.30874  0.74895  1.0000
  C   C238      1.0  0.37398  0.33451  0.69846  1.0000
  C   C239      1.0  0.37530  0.56762  0.99313  1.0000
  C   C240      1.0  0.54392  0.47529  0.61073  1.0000
  H   H380      1.0  0.53801  0.58180  0.63620  1.0000
  H   H381      1.0  0.56291  0.49037  0.61928  1.0000
  C   C241      1.0  0.58241  0.56253  0.62943  1.0000
  H   H382      1.0  0.51261  0.13564  0.78176  1.0000
  H   H383      1.0  0.48684  0.45648  0.61354  1.0000
  H   H384      1.0  0.49007  0.16536  0.83319  1.0000
  H   H385      1.0  0.40440  0.44917  0.90058  1.0000
  C   C242      1.0  0.39986  0.42209  0.98886  1.0000
  H   H386      1.0  0.42380  0.17759  0.68267  1.0000
  Fe  Fe48      1.0  0.36655  0.30580  0.85240  1.0000
  H   H387      1.0  0.41431  0.40835  0.00802  1.0000
  H   H388      1.0  0.39483  0.19983  0.75601  1.0000
  H   H389      1.0  0.43969  0.46615  0.97074  1.0000
  H   H390      1.0  0.55252  0.13110  0.77888  1.0000
  H   H391      1.0  0.39003  0.46862  0.94100  1.0000
  H   H392      1.0  0.53964  0.45937  0.63424  1.0000
  H   H393      1.0  0.39749  0.22394  0.65702  1.0000
  C   C243      1.0  0.56501  0.15506  0.84653  1.0000
  C   C244      1.0  0.35879  0.54369  0.00882  1.0000
  H   H394      1.0  0.56031  0.12558  0.62293  1.0000
  C   C245      1.0  0.35975  0.37874  0.86755  1.0000
  H   H395      1.0  0.54278  0.20853  0.82051  1.0000
  H   H396      1.0  0.37235  0.43418  0.92436  1.0000
  H   H397      1.0  0.39897  0.38356  0.93133  1.0000
  S   S95       1.0  0.58275  0.54465  0.67292  1.0000
  H   H398      1.0  0.41879  0.58209  0.97390  1.0000
  C   C246      1.0  0.55681  0.57867  0.61757  1.0000
  C   C247      1.0  0.40628  0.56392  0.98689  1.0000
  Fe  Fe49      1.0  0.55235  0.59075  0.97745  1.0000
  S   S96       1.0  0.52622  0.56472  0.93473  1.0000
  H   H399      1.0  0.53567  0.60326  0.57245  1.0000
  S   S97       1.0  0.35954  0.27151  0.89789  1.0000
  Fe  Fe50      1.0  0.48718  0.57085  0.97359  1.0000
  S   S98       1.0  0.45875  0.52959  0.98634  1.0000
  S   S99       1.0  0.51484  0.59284  0.01865  1.0000
  N   N26       1.0  0.51687  0.49365  0.60140  1.0000
  C   C248      1.0  0.42074  0.53642  0.99666  1.0000
  H   H400      1.0  0.37798  0.41238  0.83028  1.0000
  C   C249      1.0  0.51124  0.16193  0.84915  1.0000
  H   H401      1.0  0.36677  0.20010  0.64242  1.0000
  H   H402      1.0  0.35993  0.23290  0.67165  1.0000
  C   C250      1.0  0.50783  0.51212  0.63408  1.0000
  S   S100      1.0  0.37598  0.37086  0.63659  1.0000
  H   H403      1.0  0.48806  0.52704  0.62773  1.0000
  C   C251      1.0  0.54017  0.18807  0.80225  1.0000
  H   H404      1.0  0.51332  0.18164  0.86871  1.0000
  H   H405      1.0  0.52006  0.19199  0.78448  1.0000
  H   H406      1.0  0.55987  0.18698  0.78329  1.0000
  H   H407      1.0  0.40496  0.15375  0.71552  1.0000
  H   H408      1.0  0.36409  0.58868  0.98492  1.0000
  C   C252      1.0  0.52367  0.51420  0.56990  1.0000
  H   H409      1.0  0.53191  0.11115  0.81407  1.0000
  C   C253      1.0  0.35106  0.18158  0.71104  1.0000
  H   H410      1.0  0.35355  0.16704  0.73632  1.0000
  C   C254      1.0  0.57526  0.11667  0.60181  1.0000
  H   H411      1.0  0.59491  0.60677  0.76169  1.0000
  H   H412      1.0  0.53605  0.06784  0.12556  1.0000
  Fe  Fe51      1.0  0.36861  0.75202  0.32546  1.0000
  S   S101      1.0  0.40166  0.71341  0.31678  1.0000
  S   S102      1.0  0.44243  0.65840  0.47082  1.0000
  C   C255      1.0  0.47481  0.03023  0.09250  1.0000
  H   H413      1.0  0.54385  0.64913  0.37016  1.0000
  H   H414      1.0  0.35240  0.65020  0.50556  1.0000
  H   H415      1.0  0.44497  0.09884  0.18470  1.0000
  C   C256      1.0  0.38263  0.91169  0.47868  1.0000
  C   C257      1.0  0.49461  0.64285  0.32799  1.0000
  H   H416      1.0  0.36066  0.73288  0.48101  1.0000
  H   H417      1.0  0.49772  0.67990  0.38693  1.0000
  Fe  Fe52      1.0  0.35483  0.81994  0.32046  1.0000
  H   H418      1.0  0.52874  0.70726  0.29668  1.0000
  H   H419      1.0  0.49228  0.63090  0.35516  1.0000
  H   H420      1.0  0.50458  0.62591  0.30822  1.0000
  C   C258      1.0  0.41487  0.69852  0.35896  1.0000
  C   C259      1.0  0.41963  0.71785  0.38945  1.0000
  C   C260      1.0  0.42944  0.70557  0.42341  1.0000
  C   C261      1.0  0.43420  0.67390  0.42704  1.0000
  C   C262      1.0  0.43051  0.65470  0.39618  1.0000
  C   C263      1.0  0.42080  0.66702  0.36216  1.0000
  H   H421      1.0  0.41593  0.74229  0.38685  1.0000
  H   H422      1.0  0.43305  0.72060  0.44696  1.0000
  C   C264      1.0  0.48540  0.08441  0.08976  1.0000
  H   H423      1.0  0.41711  0.65202  0.33858  1.0000
  N   N27       1.0  0.51336  0.67057  0.33148  1.0000
  C   C265      1.0  0.51465  0.68629  0.29516  1.0000
  C   C266      1.0  0.50011  0.69147  0.35950  1.0000
  H   H424      1.0  0.55887  0.68187  0.34654  1.0000
  H   H425      1.0  0.55483  0.64609  0.32246  1.0000
  H   H426      1.0  0.38659  0.92497  0.50479  1.0000
  H   H427      1.0  0.54528  0.64357  0.10174  1.0000
  C   C267      1.0  0.54405  0.66160  0.34320  1.0000
  H   H428      1.0  0.48409  0.00645  0.09375  1.0000
  H   H429      1.0  0.58137  0.05833  0.53924  1.0000
  C   C268      1.0  0.38419  0.88448  0.18524  1.0000
  H   H430      1.0  0.49181  0.69343  0.28555  1.0000
  C   C269      1.0  0.51771  0.05056  0.12525  1.0000
  H   H431      1.0  0.51414  0.71220  0.36378  1.0000
  H   H432      1.0  0.54313  0.68160  0.08300  1.0000
  S   S103      1.0  0.38486  0.88892  0.13673  1.0000
  H   H433      1.0  0.52834  0.02743  0.12741  1.0000
  C   C270      1.0  0.36544  0.70833  0.48772  1.0000
  H   H434      1.0  0.50413  0.05409  0.15089  1.0000
  Fe  Fe53      1.0  0.35913  0.93012  0.11611  1.0000
  H   H435      1.0  0.40232  0.89618  0.47453  1.0000
  C   C271      1.0  0.35340  0.65532  0.47530  1.0000
  H   H436      1.0  0.46041  0.03346  0.11741  1.0000
  C   C272      1.0  0.52444  0.09346  0.48444  1.0000
  C   C273      1.0  0.37587  0.90888  0.20846  1.0000
  S   S104      1.0  0.51566  0.62076  0.43877  1.0000
  C   C274      1.0  0.39040  0.85564  0.20068  1.0000
  N   N28       1.0  0.49894  0.05334  0.09140  1.0000
  H   H437      1.0  0.39736  0.83681  0.18294  1.0000
  C   C275      1.0  0.58698  0.07903  0.55433  1.0000
  H   H438      1.0  0.56013  0.67533  0.12786  1.0000
  H   H439      1.0  0.38926  0.70350  0.48051  1.0000
  S   S105      1.0  0.47602  0.05152  0.22599  1.0000
  Fe  Fe54      1.0  0.47083  0.61572  0.46583  1.0000
  Fe  Fe55      1.0  0.35230  0.99808  0.10243  1.0000
  H   H440      1.0  0.47162  0.64857  0.31790  1.0000
  H   H441      1.0  0.43417  0.63023  0.39878  1.0000
  H   H442      1.0  0.37201  0.93143  0.19700  1.0000
  H   H443      1.0  0.36351  0.70552  0.51833  1.0000
  S   S106      1.0  0.37482  0.79087  0.36575  1.0000
  C   C276      1.0  0.37713  0.87486  0.26192  1.0000
  H   H444      1.0  0.47736  0.69949  0.35083  1.0000
  S   S107      1.0  0.36892  0.86837  0.30895  1.0000
  H   H445      1.0  0.53802  0.08311  0.50724  1.0000
  C   C277      1.0  0.39821  0.04734  0.14354  1.0000
  C   C278      1.0  0.40823  0.02058  0.16130  1.0000
  C   C279      1.0  0.43174  0.02202  0.18734  1.0000
  C   C280      1.0  0.44522  0.05018  0.19558  1.0000
  C   C281      1.0  0.43490  0.07697  0.17816  1.0000
  C   C282      1.0  0.41149  0.07552  0.15206  1.0000
  H   H446      1.0  0.39813  0.99872  0.15477  1.0000
  H   H447      1.0  0.43967  0.00127  0.20082  1.0000
  H   H448      1.0  0.52442  0.67097  0.27342  1.0000
  S   S108      1.0  0.35263  0.78189  0.27843  1.0000
  H   H449      1.0  0.36541  0.92290  0.26451  1.0000
  C   C283      1.0  0.37240  0.90409  0.24676  1.0000
  S   S109      1.0  0.36977  0.04582  0.10984  1.0000
  H   H450      1.0  0.40381  0.09628  0.13843  1.0000
  C   C284      1.0  0.38670  0.85078  0.23894  1.0000
  H   H451      1.0  0.37684  0.65026  0.46617  1.0000
  H   H452      1.0  0.35947  0.88483  0.53900  1.0000
  N   N29       1.0  0.35435  0.89421  0.48064  1.0000
  H   H453      1.0  0.39142  0.82845  0.25065  1.0000
  C   C285      1.0  0.55765  0.66561  0.09939  1.0000
  H   H454      1.0  0.36968  0.68731  0.41640  1.0000
  H   H455      1.0  0.38219  0.92838  0.45528  1.0000
  S   S110      1.0  0.37854  0.96131  0.07302  1.0000
  H   H456      1.0  0.50066  0.08721  0.48987  1.0000
  H   H457      1.0  0.47081  0.08896  0.11426  1.0000
  C   C286      1.0  0.34985  0.87693  0.44563  1.0000
  C   C287      1.0  0.35593  0.87253  0.51216  1.0000
  H   H458      1.0  0.36841  0.86015  0.44063  1.0000
  N   N30       1.0  0.58719  0.66099  0.08151  1.0000
  H   H459      1.0  0.37467  0.85573  0.50877  1.0000
  Fe  Fe56      1.0  0.49534  0.09878  0.22766  1.0000
  S   S111      1.0  0.53922  0.10812  0.25570  1.0000
  H   H460      1.0  0.50291  0.10251  0.08943  1.0000
  H   H461      1.0  0.59466  0.61730  0.10806  1.0000
  H   H462      1.0  0.34874  0.89249  0.42112  1.0000
  H   H463      1.0  0.53150  0.08218  0.45806  1.0000
  H   H464      1.0  0.59203  0.08153  0.33348  1.0000
  C   C288      1.0  0.34706  0.69334  0.42712  1.0000
  H   H465      1.0  0.45985  0.03187  0.06771  1.0000
  C   C289      1.0  0.50684  0.70365  0.82342  1.0000
  Fe  Fe57      1.0  0.50202  0.63685  0.99036  1.0000
  S   S112      1.0  0.49580  0.67951  0.02446  1.0000
  S   S113      1.0  0.44053  0.79246  0.93746  1.0000
  C   C290      1.0  0.58854  0.10442  0.05513  1.0000
  H   H466      1.0  0.49870  0.70717  0.91728  1.0000
  C   C291      1.0  0.50971  0.70143  0.89043  1.0000
  H   H467      1.0  0.51429  0.67631  0.89050  1.0000
  H   H468      1.0  0.51223  0.67876  0.82080  1.0000
  Fe  Fe58      1.0  0.36035  0.74058  0.85888  1.0000
  H   H469      1.0  0.44996  0.69664  0.88556  1.0000
  H   H470      1.0  0.36463  0.81181  0.02113  1.0000
  C   C292      1.0  0.48383  0.74357  0.86047  1.0000
  C   C293      1.0  0.45420  0.76057  0.96215  1.0000
  C   C294      1.0  0.44361  0.73089  0.95517  1.0000
  C   C295      1.0  0.45642  0.70563  0.97395  1.0000
  C   C296      1.0  0.47916  0.71028  0.00039  1.0000
  C   C297      1.0  0.48900  0.74005  0.00798  1.0000
  C   C298      1.0  0.47686  0.76506  0.98855  1.0000
  H   H471      1.0  0.42574  0.72741  0.93519  1.0000
  H   H472      1.0  0.50645  0.74373  0.02848  1.0000
  H   H473      1.0  0.48514  0.78793  0.99399  1.0000
  H   H474      1.0  0.53174  0.71328  0.89000  1.0000
  C   C299      1.0  0.37549  0.92839  0.68383  1.0000
  H   H475      1.0  0.58137  0.07332  0.73570  1.0000
  H   H476      1.0  0.39270  0.88897  0.04765  1.0000
  H   H477      1.0  0.49312  0.71011  0.79868  1.0000
  S   S114      1.0  0.40358  0.76318  0.84326  1.0000
  H   H478      1.0  0.50468  0.75749  0.86127  1.0000
  C   C300      1.0  0.46242  0.69274  0.85922  1.0000
  H   H479      1.0  0.40409  0.92383  0.77139  1.0000
  H   H480      1.0  0.43227  0.82044  0.00989  1.0000
  H   H481      1.0  0.44716  0.69926  0.83590  1.0000
  H   H482      1.0  0.46682  0.66756  0.85702  1.0000
  H   H483      1.0  0.52845  0.71624  0.82198  1.0000
  C   C301      1.0  0.37768  0.87062  0.03690  1.0000
  H   H484      1.0  0.44842  0.68266  0.96847  1.0000
  N   N31       1.0  0.49069  0.71035  0.85839  1.0000
  H   H485      1.0  0.47080  0.74933  0.88590  1.0000
  H   H486      1.0  0.47026  0.75135  0.83618  1.0000
  H   H487      1.0  0.35805  0.88214  0.02363  1.0000
  S   S115      1.0  0.36036  0.75789  0.91760  1.0000
  C   C302      1.0  0.57141  0.64011  0.85737  1.0000
  C   C303      1.0  0.35472  0.99430  0.62192  1.0000
  C   C304      1.0  0.59365  0.07645  0.84244  1.0000
  S   S116      1.0  0.37561  0.82574  0.88152  1.0000
  H   H488      1.0  0.56843  0.66272  0.02638  1.0000
  Fe  Fe59      1.0  0.51268  0.61099  0.91324  1.0000
  C   C305      1.0  0.40669  0.97994  0.61187  1.0000
  C   C306      1.0  0.57148  0.05737  0.82730  1.0000
  C   C307      1.0  0.55855  0.61381  0.80030  1.0000
  H   H489      1.0  0.41894  0.88700  0.98665  1.0000
  C   C308      1.0  0.58839  0.61631  0.78828  1.0000
  H   H490      1.0  0.36941  0.85774  0.06149  1.0000
  S   S117      1.0  0.53777  0.03430  0.77030  1.0000
  Fe  Fe60      1.0  0.45344  0.06449  0.68483  1.0000
  S   S118      1.0  0.40483  0.05107  0.68451  1.0000
  S   S119      1.0  0.49495  0.03673  0.67298  1.0000
  H   H491      1.0  0.39682  0.93196  0.66844  1.0000
  H   H492      1.0  0.40898  0.97404  0.71105  1.0000
  C   C309      1.0  0.34913  0.93332  0.74203  1.0000
  H   H493      1.0  0.43581  0.85380  0.03901  1.0000
  S   S120      1.0  0.38274  0.82719  0.77194  1.0000
  S   S121      1.0  0.35215  0.69157  0.84294  1.0000
  S   S122      1.0  0.58442  0.09509  0.00799  1.0000
  C   C310      1.0  0.55024  0.62490  0.83537  1.0000
  H   H494      1.0  0.35779  0.94215  0.66957  1.0000
  S   S123      1.0  0.47114  0.08270  0.73867  1.0000
  H   H495      1.0  0.41298  0.82229  0.05359  1.0000
  Fe  Fe61      1.0  0.51072  0.07933  0.64378  1.0000
  C   C311      1.0  0.36390  0.01845  0.64491  1.0000
  C   C312      1.0  0.39446  0.02324  0.65178  1.0000
  C   C313      1.0  0.41592  0.00437  0.63466  1.0000
  C   C314      1.0  0.40351  0.86828  0.97807  1.0000
  C   C315      1.0  0.37605  0.97455  0.60615  1.0000
  S   S124      1.0  0.54188  0.63667  0.95296  1.0000
  H   H496      1.0  0.43955  0.00801  0.63986  1.0000
  H   H497      1.0  0.36934  0.90386  0.68068  1.0000
  C   C316      1.0  0.56664  0.05666  0.78883  1.0000
  H   H498      1.0  0.55764  0.04365  0.84542  1.0000
  Fe  Fe62      1.0  0.51420  0.05926  0.72379  1.0000
  C   C317      1.0  0.56764  0.09018  0.58198  1.0000
  N   N32       1.0  0.37835  0.93733  0.72332  1.0000
  N   N33       1.0  0.39348  0.85019  0.01040  1.0000
  S   S125      1.0  0.53283  0.10012  0.69399  1.0000
  H   H499      1.0  0.38435  0.80988  0.97774  1.0000
  H   H500      1.0  0.35303  0.83560  0.98289  1.0000
  H   H501      1.0  0.37125  0.84522  0.69666  1.0000
  H   H502      1.0  0.53627  0.06512  0.05655  1.0000
  S   S126      1.0  0.51354  0.61927  0.85162  1.0000
  C   C318      1.0  0.37295  0.82581  0.99755  1.0000
  H   H503      1.0  0.38412  0.87913  0.96332  1.0000
  C   C319      1.0  0.41980  0.83607  0.02903  1.0000
  C   C320      1.0  0.40132  0.91774  0.74152  1.0000
  H   H504      1.0  0.42361  0.92014  0.72795  1.0000
  Fe  Fe63      1.0  0.37419  0.80273  0.82587  1.0000
  H   H505      1.0  0.37030  0.98535  0.71281  1.0000
  H   H506      1.0  0.39038  0.97746  0.75508  1.0000
  H   H507      1.0  0.42327  0.96471  0.59967  1.0000
  Fe  Fe64      1.0  0.40105  0.78397  0.90017  1.0000
  S   S127      1.0  0.53237  0.07301  0.58765  1.0000
  H   H508      1.0  0.39514  0.89299  0.74029  1.0000
  H   H509      1.0  0.56509  0.64967  0.88382  1.0000
  H   H510      1.0  0.41560  0.85356  0.95754  1.0000
  C   C321      1.0  0.38739  0.96989  0.72575  1.0000
  C   C322      1.0  0.58273  0.64761  0.04416  1.0000
  C   C323      1.0  0.58445  0.07444  0.76548  1.0000
  H   H511      1.0  0.50443  0.05029  0.03207  1.0000
  S   S128      1.0  0.36428  0.94120  0.58310  1.0000
  H   H512      1.0  0.57145  0.62497  0.04580  1.0000
  S   S129      1.0  0.47122  0.61533  0.94832  1.0000
  S   S130      1.0  0.46738  0.10530  0.65141  1.0000
  H   H513      1.0  0.34725  0.03318  0.65785  1.0000
  C   C324      1.0  0.35038  0.84701  0.71187  1.0000
  C   C325      1.0  0.51777  0.04814  0.05817  1.0000
  H   H514      1.0  0.52837  0.02492  0.05844  1.0000
  H   H515      1.0  0.47123  0.08743  0.06447  1.0000
  H   H516      1.0  0.58955  0.70707  0.06036  1.0000
  C   C326      1.0  0.34967  0.83926  0.74961  1.0000
  H   H517      1.0  0.35036  0.94007  0.77183  1.0000
  H   H518      1.0  0.79737  0.11669  0.37493  1.0000
  N   N34       1.0  0.65636  0.18745  0.08556  1.0000
  H   H519      1.0  0.77541  0.26440  0.52023  1.0000
  H   H520      1.0  0.66021  0.19156  0.14503  1.0000
  H   H521      1.0  0.69828  0.51477  0.31585  1.0000
  H   H522      1.0  0.79984  0.37303  0.42022  1.0000
  C   C327      1.0  0.62192  0.17898  0.36066  1.0000
  S   S131      1.0  0.70100  0.16112  0.46651  1.0000
  H   H523      1.0  0.81181  0.41123  0.10165  1.0000
  C   C328      1.0  0.60148  0.17308  0.38915  1.0000
  H   H524      1.0  0.73035  0.24832  0.55602  1.0000
  C   C329      1.0  0.84119  0.37368  0.45170  1.0000
  H   H525      1.0  0.74120  0.46005  0.33331  1.0000
  H   H526      1.0  0.65431  0.23668  0.08139  1.0000
  H   H527      1.0  0.65779  0.13081  0.31373  1.0000
  H   H528      1.0  0.80199  0.18445  0.53660  1.0000
  H   H529      1.0  0.83742  0.52171  0.22783  1.0000
  C   C330      1.0  0.82808  0.41046  0.40361  1.0000
  H   H530      1.0  0.68921  0.22162  0.09946  1.0000
  H   H531      1.0  0.59794  0.59318  0.26797  1.0000
  H   H532      1.0  0.83558  0.35366  0.46754  1.0000
  C   C331      1.0  0.74835  0.47583  0.26193  1.0000
  Fe  Fe65      1.0  0.71445  0.60834  0.21117  1.0000
  C   C332      1.0  0.82076  0.38488  0.42511  1.0000
  C   C333      1.0  0.77824  0.56862  0.20698  1.0000
  C   C334      1.0  0.79556  0.15142  0.45162  1.0000
  C   C335      1.0  0.82335  0.15837  0.46779  1.0000
  C   C336      1.0  0.82938  0.41141  0.12372  1.0000
  C   C337      1.0  0.82101  0.20935  0.44095  1.0000
  C   C338      1.0  0.79377  0.20196  0.42372  1.0000
  C   C339      1.0  0.78078  0.17318  0.42955  1.0000
  Fe  Fe66      1.0  0.83926  0.45797  0.24064  1.0000
  C   C340      1.0  0.64304  0.18722  0.12314  1.0000
  H   H533      1.0  0.76983  0.23274  0.48890  1.0000
  H   H534      1.0  0.75935  0.16785  0.41688  1.0000
  C   C341      1.0  0.61142  0.18339  0.32433  1.0000
  C   C342      1.0  0.76108  0.54817  0.18585  1.0000
  C   C343      1.0  0.83585  0.18756  0.46300  1.0000
  S   S132      1.0  0.81005  0.46988  0.19183  1.0000
  H   H535      1.0  0.81783  0.40929  0.15102  1.0000
  S   S133      1.0  0.66071  0.17896  0.36938  1.0000
  H   H536      1.0  0.82192  0.31235  0.21590  1.0000
  S   S134      1.0  0.83334  0.41096  0.26421  1.0000
  S   S135      1.0  0.80542  0.42082  0.36566  1.0000
  S   S136      1.0  0.65156  0.14373  0.55114  1.0000
  S   S137      1.0  0.83718  0.48183  0.29592  1.0000
  C   C344      1.0  0.64432  0.56905  0.08626  1.0000
  H   H537      1.0  0.63278  0.16469  0.12941  1.0000
  H   H538      1.0  0.83632  0.20328  0.19781  1.0000
  C   C345      1.0  0.81616  0.52901  0.21603  1.0000
  C   C346      1.0  0.80600  0.55921  0.22148  1.0000
  H   H539      1.0  0.75824  0.50227  0.16352  1.0000
  H   H540      1.0  0.69707  0.50818  0.26666  1.0000
  Fe  Fe67      1.0  0.67433  0.14763  0.41607  1.0000
  H   H541      1.0  0.66639  0.57332  0.09761  1.0000
  H   H542      1.0  0.78224  0.21882  0.40667  1.0000
  H   H543      1.0  0.74369  0.53773  0.26086  1.0000
  C   C347      1.0  0.67903  0.16257  0.08260  1.0000
  S   S138      1.0  0.63014  0.54558  0.15457  1.0000
  H   H544      1.0  0.63460  0.13476  0.27302  1.0000
  H   H545      1.0  0.77507  0.48145  0.32886  1.0000
  C   C348      1.0  0.64869  0.11824  0.28920  1.0000
  H   H546      1.0  0.72511  0.21665  0.52457  1.0000
  H   H547      1.0  0.76649  0.17964  0.51354  1.0000
  C   C349      1.0  0.70603  0.49895  0.29341  1.0000
  C   C350      1.0  0.79888  0.50842  0.19534  1.0000
  C   C351      1.0  0.77164  0.51817  0.17958  1.0000
  H   H548      1.0  0.73913  0.45233  0.26530  1.0000
  C   C352      1.0  0.73690  0.22404  0.55044  1.0000
  C   C353      1.0  0.75216  0.52710  0.28703  1.0000
  C   C354      1.0  0.75012  0.48351  0.32835  1.0000
  H   H549      1.0  0.74627  0.54311  0.31008  1.0000
  H   H550      1.0  0.77323  0.47354  0.26036  1.0000
  S   S139      1.0  0.64169  0.11815  0.44667  1.0000
  H   H551      1.0  0.74341  0.49820  0.35230  1.0000
  H   H552      1.0  0.83477  0.14151  0.48493  1.0000
  C   C355      1.0  0.62251  0.55492  0.10809  1.0000
  H   H553      1.0  0.69539  0.47624  0.29806  1.0000
  H   H554      1.0  0.80523  0.23739  0.51206  1.0000
  H   H555      1.0  0.81929  0.57499  0.23784  1.0000
  S   S140      1.0  0.68189  0.57527  0.23602  1.0000
  H   H556      1.0  0.74046  0.48476  0.23457  1.0000
  S   S141      1.0  0.76445  0.60529  0.21767  1.0000
  Fe  Fe68      1.0  0.67059  0.12853  0.49636  1.0000
  Fe  Fe69      1.0  0.65554  0.58293  0.18344  1.0000
  N   N35       1.0  0.73917  0.49634  0.29271  1.0000
  H   H557      1.0  0.73961  0.55541  0.17454  1.0000
  H   H558      1.0  0.77711  0.52600  0.28511  1.0000
  S   S142      1.0  0.83993  0.27505  0.15411  1.0000
  C   C356      1.0  0.60866  0.60361  0.32505  1.0000
  H   H559      1.0  0.62709  0.18856  0.30234  1.0000
  H   H560      1.0  0.60936  0.17076  0.41745  1.0000
  H   H561      1.0  0.67330  0.59336  0.55829  1.0000
  C   C357      1.0  0.77733  0.18798  0.53960  1.0000
  H   H562      1.0  0.69723  0.16522  0.10358  1.0000
  S   S143      1.0  0.84273  0.30418  0.51339  1.0000
  Fe  Fe70      1.0  0.72869  0.11900  0.45469  1.0000
  H   H563      1.0  0.66874  0.13959  0.08663  1.0000
  C   C358      1.0  0.62040  0.12197  0.56449  1.0000
  H   H564      1.0  0.62416  0.56786  0.55073  1.0000
  S   S144      1.0  0.83540  0.24635  0.43574  1.0000
  Fe  Fe71      1.0  0.83605  0.43443  0.31943  1.0000
  C   C359      1.0  0.59887  0.60195  0.36191  1.0000
  H   H565      1.0  0.62503  0.20493  0.12602  1.0000
  H   H566      1.0  0.82527  0.35287  0.14678  1.0000
  H   H567      1.0  0.61383  0.11346  0.34961  1.0000
  C   C360      1.0  0.78049  0.23961  0.51567  1.0000
  H   H568      1.0  0.84006  0.43447  0.12344  1.0000
  H   H569      1.0  0.81925  0.35439  0.09734  1.0000
  C   C361      1.0  0.67078  0.21743  0.07914  1.0000
  N   N36       1.0  0.76984  0.22057  0.54686  1.0000
  S   S145      1.0  0.77896  0.11593  0.46027  1.0000
  C   C362      1.0  0.83655  0.35648  0.11959  1.0000
  H   H570      1.0  0.84123  0.33512  0.32369  1.0000
  H   H571      1.0  0.66806  0.11148  0.27145  1.0000
  H   H572      1.0  0.76959  0.17287  0.56252  1.0000
  C   C363      1.0  0.84572  0.31557  0.21149  1.0000
  S   S146      1.0  0.83533  0.27556  0.04662  1.0000
  H   H573      1.0  0.64188  0.18227  0.02875  1.0000
  Fe  Fe72      1.0  0.67756  0.14573  0.96302  1.0000
  S   S147      1.0  0.69486  0.19086  0.98401  1.0000
  H   H574      1.0  0.73337  0.46077  0.67641  1.0000
  S   S148      1.0  0.63043  0.14364  0.94140  1.0000
  Fe  Fe73      1.0  0.65647  0.59225  0.75734  1.0000
  H   H575      1.0  0.80351  0.22218  0.87637  1.0000
  H   H576      1.0  0.68081  0.21862  0.05093  1.0000
  H   H577      1.0  0.73489  0.23586  0.01400  1.0000
  C   C364      1.0  0.60188  0.55411  0.85623  1.0000
  C   C365      1.0  0.75480  0.51540  0.69845  1.0000
  H   H578      1.0  0.80954  0.22833  0.57986  1.0000
  H   H579      1.0  0.59655  0.53110  0.84458  1.0000
  H   H580      1.0  0.67306  0.53844  0.88548  1.0000
  C   C366      1.0  0.82082  0.27108  0.94690  1.0000
  C   C367      1.0  0.60940  0.57119  0.03432  1.0000
  H   H581      1.0  0.82480  0.27107  0.85260  1.0000
  C   C368      1.0  0.60703  0.55935  0.60570  1.0000
  C   C369      1.0  0.74528  0.45748  0.80306  1.0000
  H   H582      1.0  0.60713  0.15346  0.60780  1.0000
  H   H583      1.0  0.80462  0.21399  0.92510  1.0000
  C   C370      1.0  0.63787  0.57689  0.04929  1.0000
  H   H584      1.0  0.77864  0.24214  0.90769  1.0000
  S   S149      1.0  0.69715  0.11874  0.91587  1.0000
  C   C371      1.0  0.73398  0.19068  0.98952  1.0000
  C   C372      1.0  0.74814  0.21627  0.00510  1.0000
  C   C373      1.0  0.77950  0.21669  0.00894  1.0000
  C   C374      1.0  0.79679  0.19173  0.99663  1.0000
  C   C375      1.0  0.78255  0.16604  0.98143  1.0000
  C   C376      1.0  0.75118  0.16537  0.97825  1.0000
  H   H585      1.0  0.63541  0.53137  0.93667  1.0000
  H   H586      1.0  0.79016  0.23649  0.02091  1.0000
  S   S150      1.0  0.64838  0.59827  0.69633  1.0000
  H   H587      1.0  0.74042  0.14536  0.96667  1.0000
  H   H588      1.0  0.62110  0.16025  0.06164  1.0000
  H   H589      1.0  0.62680  0.54680  0.61479  1.0000
  H   H590      1.0  0.82373  0.25378  0.96927  1.0000
  H   H591      1.0  0.79579  0.14663  0.97191  1.0000
  N   N37       1.0  0.62664  0.55247  0.88363  1.0000
  Fe  Fe74      1.0  0.64942  0.11270  0.89757  1.0000
  C   C377      1.0  0.63262  0.58357  0.89833  1.0000
  H   H592      1.0  0.61507  0.20093  0.05857  1.0000
  N   N38       1.0  0.82470  0.25689  0.90988  1.0000
  H   H593      1.0  0.83759  0.29959  0.88485  1.0000
  H   H594      1.0  0.79835  0.29129  0.88160  1.0000
  C   C378      1.0  0.63254  0.18257  0.05744  1.0000
  H   H595      1.0  0.79808  0.28151  0.95012  1.0000
  H   H596      1.0  0.68981  0.16232  0.05471  1.0000
  N   N39       1.0  0.77225  0.48687  0.69212  1.0000
  H   H597      1.0  0.65489  0.58766  0.03246  1.0000
  H   H598      1.0  0.64970  0.58305  0.92099  1.0000
  H   H599      1.0  0.65030  0.51711  0.85325  1.0000
  S   S151      1.0  0.83620  0.19291  0.99714  1.0000
  S   S152      1.0  0.83870  0.41053  0.77791  1.0000
  S   S153      1.0  0.60141  0.58261  0.98864  1.0000
  H   H600      1.0  0.61192  0.59430  0.91004  1.0000
  C   C379      1.0  0.80184  0.23281  0.90444  1.0000
  H   H601      1.0  0.72804  0.20976  0.57355  1.0000
  H   H602      1.0  0.64104  0.59909  0.87620  1.0000
  S   S154      1.0  0.63879  0.11886  0.83699  1.0000
  H   H603      1.0  0.76658  0.48841  0.63280  1.0000
  S   S155      1.0  0.83746  0.28644  0.61926  1.0000
  C   C380      1.0  0.65403  0.54032  0.86545  1.0000
  Fe  Fe75      1.0  0.69157  0.57198  0.68993  1.0000
  S   S156      1.0  0.66987  0.52575  0.68794  1.0000
  S   S157      1.0  0.72825  0.58227  0.64944  1.0000
  C   C381      1.0  0.79708  0.48496  0.71940  1.0000
  H   H604      1.0  0.78848  0.48575  0.74827  1.0000
  Fe  Fe76      1.0  0.67695  0.52615  0.74973  1.0000
  S   S158      1.0  0.69276  0.48314  0.77841  1.0000
  H   H605      1.0  0.66135  0.55557  0.84238  1.0000
  H   H606      1.0  0.76492  0.43809  0.69231  1.0000
  S   S159      1.0  0.70194  0.57053  0.75076  1.0000
  C   C382      1.0  0.83827  0.32515  0.63310  1.0000
  H   H607      1.0  0.73629  0.51791  0.67780  1.0000
  H   H608      1.0  0.79811  0.46574  0.64858  1.0000
  H   H609      1.0  0.81011  0.46320  0.71631  1.0000
  H   H610      1.0  0.74242  0.45940  0.72484  1.0000
  H   H611      1.0  0.74447  0.51571  0.72659  1.0000
  H   H612      1.0  0.81300  0.50434  0.71631  1.0000
  Fe  Fe77      1.0  0.62746  0.55178  0.70005  1.0000
  H   H613      1.0  0.77971  0.25523  0.58790  1.0000
  C   C383      1.0  0.78820  0.48657  0.82472  1.0000
  C   C384      1.0  0.77117  0.51365  0.82203  1.0000
  C   C385      1.0  0.74151  0.51274  0.80872  1.0000
  C   C386      1.0  0.72871  0.48470  0.79858  1.0000
  H   H614      1.0  0.76907  0.53618  0.69604  1.0000
  C   C387      1.0  0.78473  0.48699  0.65411  1.0000
  H   H615      1.0  0.78115  0.53543  0.82930  1.0000
  H   H616      1.0  0.72859  0.53370  0.80656  1.0000
  H   H617      1.0  0.78789  0.43738  0.81858  1.0000
  C   C388      1.0  0.77509  0.45843  0.81572  1.0000
  H   H618      1.0  0.79977  0.50697  0.64987  1.0000
  C   C389      1.0  0.82117  0.28070  0.88092  1.0000
  S   S160      1.0  0.63219  0.54759  0.76177  1.0000
  C   C390      1.0  0.75240  0.46007  0.69654  1.0000
  C   C391      1.0  0.78464  0.23063  0.58164  1.0000
  S   S161      1.0  0.82636  0.48851  0.83662  1.0000
  H   H619      1.0  0.60784  0.56918  0.83262  1.0000
  H   H620      1.0  0.73531  0.43568  0.79581  1.0000
  H   H621      1.0  0.83466  0.36996  0.71076  1.0000
  C   C392      1.0  0.61794  0.53201  0.91443  1.0000
  C   C393      1.0  0.60164  0.13254  0.59306  1.0000
  H   H622      1.0  0.83757  0.28949  0.95199  1.0000
  H   H623      1.0  0.61432  0.50809  0.90457  1.0000
  C   C394      1.0  0.83733  0.36393  0.68180  1.0000
  C   C395      1.0  0.83399  0.33325  0.67042  1.0000
  C   C396      1.0  0.84472  0.34798  0.60707  1.0000
  H   H624      1.0  0.77718  0.21687  0.60590  1.0000
  H   H625      1.0  0.82877  0.31576  0.69066  1.0000
  C   C397      1.0  0.60558  0.57131  0.56958  1.0000
  C   C398      1.0  0.84383  0.38666  0.65561  1.0000
  H   H626      1.0  0.59673  0.54003  0.92775  1.0000
  H   H627      1.0  0.70529  0.61017  0.58044  1.0000
  H   H628      1.0  0.68159  0.65372  0.09847  1.0000
  H   H629      1.0  0.75520  0.67495  0.23125  1.0000
  Fe  Fe78      1.0  0.66585  0.65110  0.18255  1.0000
  S   S162      1.0  0.65827  0.69606  0.15334  1.0000
  S   S163      1.0  0.69251  0.65012  0.23534  1.0000
  H   H630      1.0  0.67006  0.06176  0.30538  1.0000
  N   N40       1.0  0.82849  0.07898  0.36853  1.0000
  S   S164      1.0  0.64311  0.62110  0.31545  1.0000
  C   C399      1.0  0.75943  0.67315  0.15718  1.0000
  C   C400      1.0  0.69234  0.67562  0.09496  1.0000
  H   H631      1.0  0.74672  0.73425  0.15687  1.0000
  C   C401      1.0  0.65058  0.07000  0.32206  1.0000
  H   H632      1.0  0.76658  0.85343  0.15007  1.0000
  H   H633      1.0  0.73711  0.66500  0.16671  1.0000
  H   H634      1.0  0.82193  0.85125  0.14646  1.0000
  C   C402      1.0  0.80026  0.70836  0.16721  1.0000
  H   H635      1.0  0.63549  0.09380  0.12906  1.0000
  H   H636      1.0  0.75660  0.68177  0.12829  1.0000
  C   C403      1.0  0.68391  0.70069  0.11697  1.0000
  C   C404      1.0  0.77636  0.68428  0.21957  1.0000
  C   C405      1.0  0.60577  0.10131  0.32424  1.0000
  H   H637      1.0  0.79731  0.71889  0.13921  1.0000
  C   C406      1.0  0.84466  0.81325  0.21459  1.0000
  S   S165      1.0  0.80393  0.71170  0.54929  1.0000
  H   H638      1.0  0.81677  0.87893  0.50065  1.0000
  Fe  Fe79      1.0  0.81814  0.75830  0.53073  1.0000
  H   H639      1.0  0.79264  0.90913  0.07923  1.0000
  N   N41       1.0  0.77143  0.69720  0.18207  1.0000
  C   C407      1.0  0.74972  0.72298  0.18434  1.0000
  H   H640      1.0  0.79750  0.88417  0.19386  1.0000
  C   C408      1.0  0.82670  0.83199  0.23744  1.0000
  H   H641      1.0  0.79292  0.66499  0.21896  1.0000
  H   H642      1.0  0.75735  0.74091  0.20428  1.0000
  Fe  Fe80      1.0  0.80811  0.91753  0.36953  1.0000
  H   H643      1.0  0.81032  0.72607  0.18573  1.0000
  H   H644      1.0  0.77456  0.65267  0.15610  1.0000
  C   C409      1.0  0.69688  0.72940  0.11076  1.0000
  H   H645      1.0  0.68997  0.74900  0.12726  1.0000
  C   C410      1.0  0.71976  0.73249  0.08429  1.0000
  H   H646      1.0  0.62795  0.08636  0.52389  1.0000
  H   H647      1.0  0.72717  0.71504  0.19350  1.0000
  S   S166      1.0  0.69075  0.61177  0.15641  1.0000
  H   H648      1.0  0.73009  0.75453  0.08001  1.0000
  H   H649      1.0  0.65765  0.65026  0.51008  1.0000
  H   H650      1.0  0.63204  0.62667  0.53510  1.0000
  C   C411      1.0  0.81213  0.86197  0.47944  1.0000
  H   H651      1.0  0.78493  0.70190  0.23929  1.0000
  H   H652      1.0  0.81693  0.68935  0.16442  1.0000
  H   H653      1.0  0.77700  0.91781  0.18041  1.0000
  S   S167      1.0  0.78734  0.78540  0.08540  1.0000
  H   H654      1.0  0.81777  0.04302  0.32946  1.0000
  H   H655      1.0  0.78714  0.08918  0.33967  1.0000
  H   H656      1.0  0.78965  0.77904  0.16391  1.0000
  C   C412      1.0  0.79430  0.91722  0.10853  1.0000
  C   C413      1.0  0.82798  0.04622  0.35754  1.0000
  H   H657      1.0  0.81635  0.82352  0.51691  1.0000
  S   S168      1.0  0.66079  0.03404  0.41430  1.0000
  C   C414      1.0  0.80008  0.79374  0.18427  1.0000
  H   H658      1.0  0.73154  0.96369  0.38700  1.0000
  C   C415      1.0  0.81192  0.83065  0.48865  1.0000
  S   S169      1.0  0.77227  0.85548  0.26030  1.0000
  H   H659      1.0  0.60568  0.70187  0.10581  1.0000
  C   C416      1.0  0.68968  0.95233  0.43871  1.0000
  Fe  Fe81      1.0  0.78527  0.95998  0.30845  1.0000
  C   C417      1.0  0.78215  0.81174  0.20775  1.0000
  S   S170      1.0  0.82388  0.96278  0.34799  1.0000
  Fe  Fe82      1.0  0.65775  0.61749  0.25597  1.0000
  S   S171      1.0  0.81074  0.93539  0.26390  1.0000
  H   H660      1.0  0.79568  0.80114  0.40333  1.0000
  H   H661      1.0  0.67466  0.93714  0.45494  1.0000
  C   C418      1.0  0.60574  0.63992  0.10432  1.0000
  C   C419      1.0  0.64704  0.64684  0.53771  1.0000
  H   H662      1.0  0.74002  0.98456  0.42893  1.0000
  C   C420      1.0  0.80600  0.80869  0.46119  1.0000
  H   H663      1.0  0.65968  0.08124  0.34750  1.0000
  H   H664      1.0  0.82681  0.69632  0.45625  1.0000
  S   S172      1.0  0.80565  0.76943  0.47187  1.0000
  H   H665      1.0  0.79650  0.85635  0.38700  1.0000
  C   C421      1.0  0.68837  0.02213  0.38289  1.0000
  C   C422      1.0  0.68100  0.00277  0.35316  1.0000
  C   C423      1.0  0.70247  0.99608  0.32582  1.0000
  C   C424      1.0  0.73135  0.00836  0.32868  1.0000
  C   C425      1.0  0.73900  0.02648  0.35924  1.0000
  C   C426      1.0  0.71755  0.03335  0.38637  1.0000
  H   H666      1.0  0.65847  0.99385  0.35058  1.0000
  H   H667      1.0  0.69667  0.98177  0.30226  1.0000
  H   H668      1.0  0.76143  0.03531  0.36174  1.0000
  H   H669      1.0  0.72370  0.04716  0.41016  1.0000
  Fe  Fe83      1.0  0.83519  0.77382  0.09953  1.0000
  Fe  Fe84      1.0  0.67478  0.08013  0.43619  1.0000
  H   H670      1.0  0.76335  0.95311  0.41463  1.0000
  C   C427      1.0  0.80087  0.84931  0.41533  1.0000
  N   N42       1.0  0.63113  0.09123  0.30066  1.0000
  C   C428      1.0  0.61947  0.07542  0.26725  1.0000
  H   H671      1.0  0.75793  0.81110  0.20511  1.0000
  S   S173      1.0  0.76657  0.91756  0.33416  1.0000
  Fe  Fe85      1.0  0.79537  0.89267  0.29262  1.0000
  S   S174      1.0  0.75792  0.00157  0.29409  1.0000
  S   S175      1.0  0.70060  0.08737  0.48897  1.0000
  H   H672      1.0  0.83702  0.84702  0.25769  1.0000
  H   H673      1.0  0.81507  0.93114  0.11079  1.0000
  C   C429      1.0  0.79541  0.83116  0.23402  1.0000
  C   C430      1.0  0.80685  0.87126  0.44272  1.0000
  H   H674      1.0  0.71902  0.92114  0.49254  1.0000
  H   H675      1.0  0.73310  0.95972  0.49011  1.0000
  H   H676      1.0  0.62798  0.63545  0.09128  1.0000
  C   C431      1.0  0.73971  0.96132  0.41609  1.0000
  C   C432      1.0  0.61333  0.09487  0.54560  1.0000
  H   H677      1.0  0.70684  0.89286  0.43455  1.0000
  H   H678      1.0  0.61011  0.64970  0.13239  1.0000
  C   C433      1.0  0.61389  0.09493  0.07527  1.0000
  H   H679      1.0  0.67994  0.95469  0.41031  1.0000
  S   S176      1.0  0.62857  0.62268  0.20546  1.0000
  H   H680      1.0  0.63794  0.04949  0.33144  1.0000
  H   H681      1.0  0.60528  0.09111  0.25004  1.0000
  H   H682      1.0  0.74401  0.89975  0.41768  1.0000
  N   N43       1.0  0.72073  0.94006  0.43742  1.0000
  S   S177      1.0  0.80743  0.91040  0.43142  1.0000
  C   C434      1.0  0.72086  0.90959  0.41918  1.0000
  H   H683      1.0  0.71213  0.91098  0.39018  1.0000
  H   H684      1.0  0.68885  0.97560  0.45170  1.0000
  C   C435      1.0  0.73273  0.93711  0.47563  1.0000
  H   H685      1.0  0.76483  0.86374  0.10180  1.0000
  H   H686      1.0  0.75618  0.92795  0.47551  1.0000
  C   C436      1.0  0.80037  0.81806  0.42460  1.0000
  H   H687      1.0  0.70168  0.67252  0.54224  1.0000
  C   C437      1.0  0.68763  0.61418  0.55898  1.0000
  S   S178      1.0  0.70517  0.10880  0.40114  1.0000
  H   H688      1.0  0.81477  0.03230  0.37746  1.0000
  H   H689      1.0  0.63805  0.06704  0.24915  1.0000
  H   H690      1.0  0.78292  0.08027  0.38818  1.0000
  C   C438      1.0  0.76697  0.87318  0.13051  1.0000
  H   H691      1.0  0.74663  0.88745  0.13603  1.0000
  H   H692      1.0  0.77474  0.93273  0.11356  1.0000
  N   N44       1.0  0.79477  0.89120  0.13486  1.0000
  C   C439      1.0  0.83134  0.79443  0.18764  1.0000
  H   H693      1.0  0.82031  0.86195  0.09837  1.0000
  C   C440      1.0  0.82105  0.87123  0.12721  1.0000
  C   C441      1.0  0.79675  0.90314  0.17328  1.0000
  C   C442      1.0  0.84081  0.08187  0.40659  1.0000
  H   H694      1.0  0.63247  0.66715  0.54353  1.0000
  C   C443      1.0  0.61612  0.10163  0.11339  1.0000
  C   C444      1.0  0.79764  0.09181  0.36761  1.0000
  S   S179      1.0  0.83572  0.88903  0.33019  1.0000
  C   C445      1.0  0.60256  0.69082  0.07814  1.0000
  H   H695      1.0  0.81734  0.91703  0.17757  1.0000
  H   H696      1.0  0.60547  0.05532  0.27478  1.0000
  H   H697      1.0  0.82657  0.06969  0.42719  1.0000
  H   H698      1.0  0.83945  0.09382  0.31324  1.0000
  H   H699      1.0  0.69906  0.61594  0.53162  1.0000
  H   H700      1.0  0.84165  0.10634  0.41559  1.0000
  C   C446      1.0  0.71471  0.67884  0.06801  1.0000
  H   H701      1.0  0.84250  0.88390  0.13043  1.0000
  H   H702      1.0  0.84247  0.73889  0.41575  1.0000
  H   H703      1.0  0.62533  0.68798  0.06578  1.0000
  H   H704      1.0  0.84493  0.68543  0.39195  1.0000
  H   H705      1.0  0.61307  0.61033  0.38415  1.0000
  H   H706      1.0  0.78481  0.67106  0.60735  1.0000
  H   H707      1.0  0.75550  0.70594  0.77940  1.0000
  H   H708      1.0  0.77408  0.68744  0.71891  1.0000
  Fe  Fe86      1.0  0.79198  0.74727  0.04371  1.0000
  C   C447      1.0  0.76071  0.63174  0.62707  1.0000
  C   C448      1.0  0.76682  0.66320  0.62489  1.0000
  C   C449      1.0  0.74925  0.68431  0.64470  1.0000
  C   C450      1.0  0.72649  0.67381  0.66809  1.0000
  C   C451      1.0  0.72093  0.64227  0.67105  1.0000
  H   H709      1.0  0.63139  0.08174  0.06168  1.0000
  H   H710      1.0  0.64130  0.65918  0.61111  1.0000
  H   H711      1.0  0.71298  0.69005  0.68369  1.0000
  H   H712      1.0  0.70333  0.63431  0.68916  1.0000
  C   C452      1.0  0.68978  0.66895  0.56902  1.0000
  C   C453      1.0  0.76885  0.74882  0.72901  1.0000
  S   S180      1.0  0.80726  0.77783  0.99763  1.0000
  S   S181      1.0  0.75496  0.72381  0.63987  1.0000
  H   H713      1.0  0.72153  0.65921  0.05147  1.0000
  Fe  Fe87      1.0  0.62712  0.10088  0.97562  1.0000
  H   H714      1.0  0.76374  0.76917  0.74674  1.0000
  S   S182      1.0  0.67289  0.10537  0.00104  1.0000
  C   C454      1.0  0.77747  0.71763  0.78340  1.0000
  H   H715      1.0  0.82161  0.83958  0.87168  1.0000
  H   H716      1.0  0.77379  0.61555  0.61085  1.0000
  C   C455      1.0  0.81899  0.74331  0.75395  1.0000
  N   N45       1.0  0.79015  0.72753  0.74748  1.0000
  H   H717      1.0  0.60451  0.64382  0.02964  1.0000
  H   H718      1.0  0.77809  0.75743  0.70229  1.0000
  C   C456      1.0  0.60106  0.64312  0.84511  1.0000
  S   S183      1.0  0.75940  0.70932  0.03266  1.0000
  C   C457      1.0  0.60663  0.09343  0.78057  1.0000
  H   H719      1.0  0.81195  0.68424  0.73585  1.0000
  H   H720      1.0  0.81584  0.76455  0.77090  1.0000
  Fe  Fe88      1.0  0.79490  0.73393  0.60415  1.0000
  H   H721      1.0  0.84433  0.94980  0.64278  1.0000
  H   H722      1.0  0.83624  0.78879  0.92739  1.0000
  S   S184      1.0  0.82463  0.92738  0.75963  1.0000
  H   H723      1.0  0.80358  0.70716  0.69555  1.0000
  H   H724      1.0  0.63866  0.61869  0.60287  1.0000
  C   C458      1.0  0.82408  0.91556  0.94571  1.0000
  H   H725      1.0  0.77356  0.73757  0.80227  1.0000
  H   H726      1.0  0.74723  0.73734  0.72225  1.0000
  C   C459      1.0  0.79523  0.70038  0.72349  1.0000
  H   H727      1.0  0.83539  0.72824  0.76872  1.0000
  H   H728      1.0  0.79275  0.70124  0.79798  1.0000
  H   H729      1.0  0.62030  0.10725  0.76236  1.0000
  C   C460      1.0  0.81521  0.88174  0.99809  1.0000
  H   H730      1.0  0.81827  0.79555  0.66065  1.0000
  H   H731      1.0  0.66296  0.05794  0.79970  1.0000
  H   H732      1.0  0.61875  0.01298  0.83399  1.0000
  C   C461      1.0  0.83256  0.82940  0.74409  1.0000
  H   H733      1.0  0.65643  0.05396  0.84871  1.0000
  C   C462      1.0  0.63383  0.00547  0.81103  1.0000
  H   H734      1.0  0.69355  0.05074  0.83067  1.0000
  C   C463      1.0  0.60982  0.63036  0.81111  1.0000
  C   C464      1.0  0.83781  0.84406  0.89470  1.0000
  S   S185      1.0  0.77416  0.99066  0.80598  1.0000
  Fe  Fe89      1.0  0.82891  0.88814  0.79957  1.0000
  S   S186      1.0  0.81424  0.84044  0.78497  1.0000
  S   S187      1.0  0.80985  0.91396  0.84799  1.0000
  Fe  Fe90      1.0  0.68852  0.07771  0.95175  1.0000
  H   H735      1.0  0.62652  0.01807  0.78557  1.0000
  C   C465      1.0  0.81643  0.81513  0.71558  1.0000
  H   H736      1.0  0.59680  0.07749  0.87219  1.0000
  H   H737      1.0  0.67940  0.01202  0.76291  1.0000
  H   H738      1.0  0.79253  0.81180  0.71847  1.0000
  H   H739      1.0  0.69796  0.99861  0.86194  1.0000
  C   C466      1.0  0.80419  0.90132  0.97032  1.0000
  Fe  Fe91      1.0  0.81023  0.95455  0.80975  1.0000
  H   H740      1.0  0.78022  0.90490  0.96723  1.0000
  H   H741      1.0  0.82258  0.89788  0.63644  1.0000
  C   C467      1.0  0.73874  0.02639  0.91691  1.0000
  C   C468      1.0  0.75299  0.99760  0.91516  1.0000
  C   C469      1.0  0.76517  0.98694  0.88151  1.0000
  C   C470      1.0  0.76317  0.00508  0.84953  1.0000
  C   C471      1.0  0.75019  0.03437  0.85170  1.0000
  C   C472      1.0  0.73792  0.04498  0.88528  1.0000
  H   H742      1.0  0.75386  0.98318  0.93961  1.0000
  H   H743      1.0  0.77515  0.96431  0.88014  1.0000
  H   H744      1.0  0.74917  0.04871  0.82719  1.0000
  H   H745      1.0  0.72750  0.06736  0.88648  1.0000
  C   C473      1.0  0.67384  0.99550  0.85498  1.0000
  H   H746      1.0  0.70920  0.00496  0.79557  1.0000
  C   C474      1.0  0.61115  0.09457  0.81903  1.0000
  S   S188      1.0  0.64209  0.06938  0.92967  1.0000
  N   N46       1.0  0.66564  0.01155  0.82015  1.0000
  C   C475      1.0  0.66980  0.04494  0.82500  1.0000
  S   S189      1.0  0.79007  0.86183  0.02661  1.0000
  H   H747      1.0  0.66069  0.00438  0.87905  1.0000
  S   S190      1.0  0.72068  0.03791  0.95808  1.0000
  H   H748      1.0  0.66999  0.97036  0.85279  1.0000
  H   H749      1.0  0.82497  0.84465  0.92123  1.0000
  S   S191      1.0  0.83854  0.73330  0.06138  1.0000
  H   H750      1.0  0.81539  0.93051  0.92423  1.0000
  C   C476      1.0  0.83097  0.80615  0.68277  1.0000
  C   C477      1.0  0.68504  0.00043  0.78961  1.0000
  H   H751      1.0  0.68283  0.97523  0.78539  1.0000
  S   S192      1.0  0.64801  0.62912  0.79954  1.0000
  S   S193      1.0  0.80446  0.78154  0.58384  1.0000
  H   H752      1.0  0.62985  0.98060  0.80613  1.0000
  H   H753      1.0  0.82950  0.75026  0.72722  1.0000
  S   S194      1.0  0.84104  0.72473  0.62655  1.0000
  H   H754      1.0  0.61750  0.65431  0.86264  1.0000
  Fe  Fe92      1.0  0.80738  0.81481  0.04091  1.0000
  C   C478      1.0  0.73753  0.62128  0.64981  1.0000
  H   H755      1.0  0.67092  0.63380  0.62612  1.0000
  H   H756      1.0  0.70725  0.66597  0.59088  1.0000
  C   C479      1.0  0.65449  0.63833  0.60341  1.0000
  H   H757      1.0  0.83714  0.88556  0.68071  1.0000
  H   H758      1.0  0.83336  0.78411  0.87791  1.0000
  N   N47       1.0  0.66973  0.64209  0.56728  1.0000
  H   H759      1.0  0.67714  0.69042  0.57562  1.0000
  C   C480      1.0  0.84266  0.88803  0.65067  1.0000
  C   C481      1.0  0.72906  0.70704  0.06338  1.0000
  H   H760      1.0  0.02744  0.55654  0.32216  1.0000
  H   H761      1.0  0.87229  0.41787  0.53933  1.0000
  H   H762      1.0  0.92167  0.32765  0.38846  1.0000
  C   C482      1.0  0.90700  0.17960  0.17572  1.0000
  H   H763      1.0  0.92926  0.17975  0.18972  1.0000
  H   H764      1.0  0.06001  0.47829  0.33160  1.0000
  S   S195      1.0  0.96767  0.13037  0.22130  1.0000
  C   C483      1.0  0.02275  0.49897  0.38551  1.0000
  S   S196      1.0  0.90688  0.28541  0.47359  1.0000
  S   S197      1.0  0.02485  0.14844  0.27655  1.0000
  C   C484      1.0  0.86043  0.29942  0.18322  1.0000
  Fe  Fe93      1.0  0.98081  0.16912  0.25886  1.0000
  S   S198      1.0  0.97470  0.21818  0.24179  1.0000
  S   S199      1.0  0.95516  0.15154  0.30771  1.0000
  H   H765      1.0  0.91709  0.46560  0.37147  1.0000
  H   H766      1.0  0.05132  0.14586  0.20447  1.0000
  H   H767      1.0  0.85280  0.33720  0.11573  1.0000
  H   H768      1.0  0.90164  0.15532  0.16893  1.0000
  C   C485      1.0  0.89222  0.34126  0.22725  1.0000
  H   H769      1.0  0.06172  0.51403  0.30659  1.0000
  H   H770      1.0  0.01947  0.12268  0.54451  1.0000
  C   C486      1.0  0.95977  0.25267  0.13945  1.0000
  C   C487      1.0  0.96271  0.24982  0.17808  1.0000
  C   C488      1.0  0.97535  0.22320  0.19345  1.0000
  C   C489      1.0  0.98616  0.19993  0.17005  1.0000
  C   C490      1.0  0.98319  0.20280  0.13137  1.0000
  H   H771      1.0  0.94996  0.27325  0.12771  1.0000
  H   H772      1.0  0.95458  0.26799  0.19608  1.0000
  H   H773      1.0  0.99643  0.17955  0.18173  1.0000
  H   H774      1.0  0.92285  0.50046  0.55010  1.0000
  C   C491      1.0  0.06023  0.20375  0.09343  1.0000
  H   H775      1.0  0.93512  0.46456  0.43625  1.0000
  S   S200      1.0  0.96599  0.24510  0.53786  1.0000
  H   H776      1.0  0.84996  0.34941  0.25460  1.0000
  H   H777      1.0  0.99034  0.18423  0.11341  1.0000
  N   N48       1.0  0.00653  0.15859  0.50670  1.0000
  Fe  Fe94      1.0  0.92005  0.26542  0.52881  1.0000
  S   S201      1.0  0.89580  0.37338  0.48810  1.0000
  C   C492      1.0  0.88229  0.17680  0.23515  1.0000
  N   N49       1.0  0.88379  0.19376  0.19965  1.0000
  C   C493      1.0  0.02402  0.54578  0.34984  1.0000
  H   H778      1.0  0.03969  0.50796  0.40558  1.0000
  H   H779      1.0  0.87127  0.36179  0.31681  1.0000
  H   H780      1.0  0.85475  0.20563  0.15397  1.0000
  H   H781      1.0  0.90952  0.19231  0.14909  1.0000
  S   S202      1.0  0.88594  0.42903  0.32432  1.0000
  S   S203      1.0  0.90138  0.29648  0.07867  1.0000
  H   H782      1.0  0.85703  0.19313  0.47609  1.0000
  H   H783      1.0  0.00018  0.50486  0.39673  1.0000
  H   H784      1.0  0.08224  0.20004  0.10759  1.0000
  S   S204      1.0  0.01408  0.12453  0.38076  1.0000
  H   H785      1.0  0.99414  0.18637  0.45963  1.0000
  C   C494      1.0  0.86517  0.30687  0.38315  1.0000
  H   H786      1.0  0.91279  0.22792  0.22346  1.0000
  H   H787      1.0  0.04928  0.18109  0.51148  1.0000
  H   H788      1.0  0.89503  0.23884  0.18070  1.0000
  H   H789      1.0  0.98991  0.14577  0.45263  1.0000
  H   H790      1.0  0.07619  0.60636  0.39760  1.0000
  C   C495      1.0  0.08882  0.15208  0.16779  1.0000
  Fe  Fe95      1.0  0.88353  0.41004  0.26685  1.0000
  H   H791      1.0  0.01716  0.20583  0.51744  1.0000
  H   H792      1.0  0.04317  0.19125  0.10985  1.0000
  N   N50       1.0  0.02701  0.51198  0.34798  1.0000
  Fe  Fe96      1.0  0.86220  0.26914  0.09869  1.0000
  C   C496      1.0  0.02611  0.18233  0.52303  1.0000
  H   H793      1.0  0.05142  0.61010  0.13198  1.0000
  C   C497      1.0  0.96984  0.22911  0.11607  1.0000
  C   C498      1.0  0.06698  0.13467  0.18597  1.0000
  N   N51       1.0  0.90137  0.45638  0.54824  1.0000
  H   H794      1.0  0.89674  0.42585  0.44065  1.0000
  H   H795      1.0  0.93102  0.32712  0.19580  1.0000
  H   H796      1.0  0.04088  0.55579  0.36918  1.0000
  H   H797      1.0  0.89589  0.35880  0.39612  1.0000
  H   H798      1.0  0.86438  0.38549  0.17598  1.0000
  H   H799      1.0  0.88259  0.50181  0.55446  1.0000
  H   H800      1.0  0.87369  0.23830  0.22282  1.0000
  H   H801      1.0  0.89978  0.49432  0.51010  1.0000
  S   S205      1.0  0.88949  0.45553  0.23885  1.0000
  C   C499      1.0  0.90720  0.32397  0.20020  1.0000
  S   S206      1.0  0.91192  0.36910  0.25230  1.0000
  H   H802      1.0  0.90284  0.29046  0.15669  1.0000
  S   S207      1.0  0.87693  0.23976  0.53696  1.0000
  C   C500      1.0  0.87547  0.41451  0.43667  1.0000
  C   C501      1.0  0.89121  0.30342  0.17783  1.0000
  C   C502      1.0  0.90524  0.34321  0.37444  1.0000
  H   H803      1.0  0.92481  0.44404  0.49819  1.0000
  H   H804      1.0  0.90427  0.17729  0.25009  1.0000
  H   H805      1.0  0.05469  0.22868  0.09518  1.0000
  C   C503      1.0  0.89165  0.22609  0.20708  1.0000
  Fe  Fe97      1.0  0.88823  0.32474  0.50653  1.0000
  H   H806      1.0  0.02797  0.17964  0.55370  1.0000
  C   C504      1.0  0.90155  0.48971  0.54052  1.0000
  C   C505      1.0  0.86879  0.38817  0.45711  1.0000
  Fe  Fe98      1.0  0.99798  0.12681  0.32188  1.0000
  H   H807      1.0  0.84773  0.16863  0.17409  1.0000
  C   C506      1.0  0.97633  0.16074  0.52350  1.0000
  H   H808      1.0  0.96531  0.18311  0.51700  1.0000
  H   H809      1.0  0.87661  0.15221  0.23057  1.0000
  H   H810      1.0  0.09009  0.17654  0.17280  1.0000
  N   N52       1.0  0.85173  0.38653  0.11822  1.0000
  H   H811      1.0  0.91060  0.28866  0.33933  1.0000
  H   H812      1.0  0.94871  0.45189  0.53708  1.0000
  C   C507      1.0  0.86632  0.39010  0.08163  1.0000
  H   H813      1.0  0.02659  0.16247  0.45261  1.0000
  C   C508      1.0  0.89464  0.30558  0.32689  1.0000
  C   C509      1.0  0.92687  0.44152  0.52886  1.0000
  H   H814      1.0  0.91778  0.35771  0.35437  1.0000
  H   H815      1.0  0.98100  0.50578  0.33172  1.0000
  C   C510      1.0  0.92482  0.48646  0.38411  1.0000
  C   C511      1.0  0.05724  0.50361  0.33424  1.0000
  Fe  Fe99      1.0  0.00051  0.54326  0.48854  1.0000
  S   S208      1.0  0.01517  0.57686  0.44507  1.0000
  S   S209      1.0  0.96215  0.51042  0.48214  1.0000
  Fe  Fe100     1.0  0.05019  0.56137  0.54267  1.0000
  Fe  Fe101     1.0  0.88723  0.47506  0.29672  1.0000
  Fe  Fe102     1.0  0.06170  0.56061  0.45951  1.0000
  C   C512      1.0  0.86155  0.33674  0.23324  1.0000
  S   S210      1.0  0.00254  0.57672  0.53554  1.0000
  S   S211      1.0  0.04658  0.52443  0.49960  1.0000
  H   H816      1.0  0.90736  0.31912  0.30603  1.0000
  H   H817      1.0  0.86053  0.44599  0.39427  1.0000
  H   H818      1.0  0.02482  0.47350  0.38533  1.0000
  H   H819      1.0  0.07397  0.51834  0.08894  1.0000
  C   C513      1.0  0.00416  0.16349  0.46615  1.0000
  H   H820      1.0  0.92808  0.41646  0.53483  1.0000
  C   C514      1.0  0.00403  0.49962  0.32238  1.0000
  H   H821      1.0  0.96138  0.14228  0.51303  1.0000
  C   C515      1.0  0.92599  0.51357  0.36345  1.0000
  C   C516      1.0  0.93705  0.54031  0.38012  1.0000
  C   C517      1.0  0.94708  0.53981  0.41714  1.0000
  C   C518      1.0  0.94655  0.51243  0.43739  1.0000
  C   C519      1.0  0.93505  0.48589  0.42098  1.0000
  S   S212      1.0  0.91654  0.51398  0.31595  1.0000
  H   H822      1.0  0.93792  0.56141  0.36434  1.0000
  H   H823      1.0  0.95501  0.56064  0.43003  1.0000
  H   H824      1.0  0.00521  0.47413  0.32064  1.0000
  H   H825      1.0  0.84647  0.29379  0.37017  1.0000
  Fe  Fe103     1.0  0.02102  0.60911  0.49336  1.0000
  H   H826      1.0  0.04319  0.12622  0.50463  1.0000
  N   N53       1.0  0.88122  0.32574  0.35561  1.0000
  Fe  Fe104     1.0  0.86248  0.26339  0.48421  1.0000
  H   H827      1.0  0.07507  0.51176  0.35354  1.0000
  H   H828      1.0  0.00657  0.50894  0.29379  1.0000
  S   S213      1.0  0.06927  0.59626  0.50361  1.0000
  S   S214      1.0  0.88107  0.22361  0.08169  1.0000
  H   H829      1.0  0.08953  0.55360  0.07279  1.0000
  C   C520      1.0  0.01951  0.12787  0.51422  1.0000
  H   H830      1.0  0.00139  0.55286  0.35995  1.0000
  H   H831      1.0  0.84962  0.36320  0.35862  1.0000
  H   H832      1.0  0.87711  0.29257  0.31153  1.0000
  H   H833      1.0  0.05479  0.11642  0.44139  1.0000
  C   C521      1.0  0.85435  0.19264  0.18058  1.0000
  H   H834      1.0  0.88042  0.28978  0.39655  1.0000
  Fe  Fe105     1.0  0.86182  0.28332  0.56503  1.0000
  H   H835      1.0  0.86511  0.18692  0.25401  1.0000
  C   C522      1.0  0.85987  0.34738  0.33789  1.0000
  H   H836      1.0  0.86978  0.44701  0.50441  1.0000
  C   C523      1.0  0.87286  0.44314  0.53476  1.0000
  H   H837      1.0  0.88323  0.37157  0.07650  1.0000
  S   S215      1.0  0.96465  0.23197  0.06791  1.0000
  S   S216      1.0  0.90603  0.30716  0.56088  1.0000
  H   H838      1.0  0.89187  0.36957  0.14489  1.0000
  H   H839      1.0  0.97747  0.15890  0.55438  1.0000
  H   H840      1.0  0.08578  0.15216  0.06883  1.0000
  C   C524      1.0  0.09112  0.59773  0.37626  1.0000
  H   H841      1.0  0.85315  0.45337  0.54924  1.0000
  H   H842      1.0  0.09052  0.13549  0.26046  1.0000
  H   H843      1.0  0.85531  0.32125  0.40569  1.0000
  H   H844      1.0  0.08996  0.16903  0.31592  1.0000
  C   C525      1.0  0.87466  0.38806  0.14800  1.0000
  C   C526      1.0  0.85513  0.42569  0.41006  1.0000
  Fe  Fe106     1.0  0.94583  0.11076  0.27179  1.0000
  H   H845      1.0  0.84818  0.12103  0.34935  1.0000
  H   H846      1.0  0.88656  0.41045  0.14789  1.0000
  H   H847      1.0  0.87804  0.41249  0.07945  1.0000
  H   H848      1.0  0.04596  0.14738  0.06740  1.0000
  C   C527      1.0  0.08909  0.52843  0.06772  1.0000
  S   S217      1.0  0.09564  0.54451  0.41742  1.0000
  H   H849      1.0  0.01310  0.19015  0.04891  1.0000
  C   C528      1.0  0.97287  0.23519  0.58447  1.0000
  C   C529      1.0  0.04573  0.53673  0.73010  1.0000
  H   H850      1.0  0.90332  0.51423  0.94405  1.0000
  H   H851      1.0  0.05444  0.15064  0.62063  1.0000
  H   H852      1.0  0.90960  0.30312  0.87880  1.0000
  C   C530      1.0  0.86848  0.36884  0.88729  1.0000
  C   C531      1.0  0.89221  0.32102  0.93050  1.0000
  H   H853      1.0  0.90342  0.55899  0.83849  1.0000
  S   S218      1.0  0.05645  0.14831  0.69758  1.0000
  H   H854      1.0  0.85105  0.38672  0.93889  1.0000
  Fe  Fe107     1.0  0.01083  0.16518  0.71479  1.0000
  S   S219      1.0  0.99207  0.21277  0.70611  1.0000
  H   H855      1.0  0.07856  0.52483  0.03993  1.0000
  C   C532      1.0  0.87555  0.34446  0.94755  1.0000
  H   H856      1.0  0.96207  0.28491  0.67380  1.0000
  H   H857      1.0  0.07661  0.54260  0.84281  1.0000
  Fe  Fe108     1.0  0.00694  0.60472  0.00408  1.0000
  H   H858      1.0  0.01873  0.60140  0.62568  1.0000
  S   S220      1.0  0.89688  0.25559  0.00127  1.0000
  C   C533      1.0  0.86391  0.36849  0.92589  1.0000
  Fe  Fe109     1.0  0.88319  0.39165  0.79729  1.0000
  C   C534      1.0  0.00829  0.22186  0.63362  1.0000
  C   C535      1.0  0.98463  0.21931  0.65883  1.0000
  C   C536      1.0  0.95505  0.22419  0.64669  1.0000
  H   H859      1.0  0.96936  0.30829  0.71397  1.0000
  C   C537      1.0  0.00242  0.23002  0.59658  1.0000
  H   H860      1.0  0.03120  0.21843  0.64298  1.0000
  H   H861      1.0  0.93675  0.22162  0.66605  1.0000
  H   H862      1.0  0.93817  0.52430  0.92259  1.0000
  H   H863      1.0  0.85188  0.39617  0.59787  1.0000
  H   H864      1.0  0.07602  0.50443  0.78149  1.0000
  H   H865      1.0  0.08192  0.51126  0.67823  1.0000
  H   H866      1.0  0.93633  0.34914  0.68640  1.0000
  C   C538      1.0  0.08627  0.15981  0.87631  1.0000
  H   H867      1.0  0.90836  0.27336  0.65602  1.0000
  C   C539      1.0  0.94915  0.23222  0.60956  1.0000
  Fe  Fe110     1.0  0.85772  0.23210  0.02755  1.0000
  Fe  Fe111     1.0  0.85424  0.45431  0.80462  1.0000
  H   H868      1.0  0.08780  0.19993  0.00557  1.0000
  N   N54       1.0  0.92253  0.30337  0.70022  1.0000
  H   H869      1.0  0.90202  0.30293  0.94709  1.0000
  C   C540      1.0  0.06805  0.14027  0.59920  1.0000
  S   S221      1.0  0.06411  0.55476  0.60234  1.0000
  Fe  Fe112     1.0  0.87629  0.29874  0.02456  1.0000
  H   H870      1.0  0.06269  0.55067  0.74532  1.0000
  C   C541      1.0  0.05914  0.49135  0.76506  1.0000
  C   C542      1.0  0.88473  0.34513  0.87019  1.0000
  N   N55       1.0  0.06110  0.19292  0.05446  1.0000
  S   S222      1.0  0.86820  0.34380  0.99561  1.0000
  H   H871      1.0  0.91508  0.57953  0.87936  1.0000
  C   C543      1.0  0.95361  0.29121  0.70191  1.0000
  H   H872      1.0  0.90352  0.25813  0.70203  1.0000
  S   S223      1.0  0.98587  0.12673  0.68758  1.0000
  H   H873      1.0  0.85517  0.54613  0.86829  1.0000
  S   S224      1.0  0.98145  0.58991  0.90262  1.0000
  H   H874      1.0  0.08445  0.23289  0.03546  1.0000
  H   H875      1.0  0.92628  0.23591  0.60032  1.0000
  H   H876      1.0  0.06682  0.15037  0.02474  1.0000
  H   H877      1.0  0.89832  0.34034  0.67390  1.0000
  C   C544      1.0  0.89666  0.32126  0.89186  1.0000
  H   H878      1.0  0.90407  0.42613  0.59536  1.0000
  C   C545      1.0  0.90241  0.27951  0.68515  1.0000
  S   S225      1.0  0.01347  0.14314  0.77113  1.0000
  Fe  Fe113     1.0  0.95506  0.60970  0.94965  1.0000
  H   H879      1.0  0.06800  0.16004  0.82064  1.0000
  C   C546      1.0  0.03270  0.20118  0.03543  1.0000
  S   S226      1.0  0.87643  0.47201  0.75334  1.0000
  C   C547      1.0  0.92147  0.33063  0.67581  1.0000
  H   H880      1.0  0.88926  0.32157  0.73783  1.0000
  H   H881      1.0  0.85898  0.38722  0.87072  1.0000
  Fe  Fe114     1.0  0.91844  0.25107  0.05750  1.0000
  S   S227      1.0  0.90812  0.40389  0.74525  1.0000
  H   H882      1.0  0.03286  0.19381  0.00577  1.0000
  H   H883      1.0  0.02894  0.49559  0.67823  1.0000
  H   H884      1.0  0.09242  0.47815  0.70515  1.0000
  C   C548      1.0  0.08377  0.14922  0.83954  1.0000
  H   H885      1.0  0.92866  0.32479  0.64701  1.0000
  H   H886      1.0  0.06677  0.46698  0.76412  1.0000
  H   H887      1.0  0.88526  0.46184  0.60429  1.0000
  H   H888      1.0  0.88896  0.50507  0.84273  1.0000
  H   H889      1.0  0.91406  0.55381  0.94099  1.0000
  C   C549      1.0  0.91426  0.53148  0.92591  1.0000
  C   C550      1.0  0.07762  0.56697  0.83709  1.0000
  H   H890      1.0  0.92244  0.49479  0.86770  1.0000
  H   H891      1.0  0.85877  0.23186  0.87992  1.0000
  H   H892      1.0  0.95516  0.27012  0.71936  1.0000
  N   N56       1.0  0.89886  0.53400  0.88957  1.0000
  H   H893      1.0  0.92726  0.33002  0.75045  1.0000
  H   H894      1.0  0.02412  0.53902  0.74538  1.0000
  S   S228      1.0  0.88943  0.34454  0.82170  1.0000
  C   C551      1.0  0.91258  0.31211  0.73799  1.0000
  H   H895      1.0  0.96251  0.43773  0.83724  1.0000
  S   S229      1.0  0.89664  0.43414  0.82827  1.0000
  H   H896      1.0  0.86648  0.56712  0.90920  1.0000
  H   H897      1.0  0.03768  0.49202  0.78084  1.0000
  C   C552      1.0  0.08415  0.50227  0.70711  1.0000
  C   C553      1.0  0.03223  0.48664  0.70696  1.0000
  H   H898      1.0  0.88626  0.48647  0.88700  1.0000
  H   H899      1.0  0.93824  0.54911  0.86086  1.0000
  C   C554      1.0  0.08654  0.20742  0.03515  1.0000
  H   H900      1.0  0.07224  0.17870  0.88561  1.0000
  S   S230      1.0  0.96106  0.47418  0.77038  1.0000
  H   H901      1.0  0.02845  0.22642  0.03607  1.0000
  H   H902      1.0  0.09265  0.56672  0.67184  1.0000
  H   H903      1.0  0.91297  0.29211  0.75723  1.0000
  Fe  Fe115     1.0  0.99865  0.55614  0.94460  1.0000
  H   H904      1.0  0.04264  0.54712  0.70209  1.0000
  S   S231      1.0  0.00150  0.50550  0.93401  1.0000
  H   H905      1.0  0.92549  0.46077  0.59987  1.0000
  H   H906      1.0  0.87862  0.28740  0.68481  1.0000
  H   H907      1.0  0.85485  0.52769  0.91263  1.0000
  S   S232      1.0  0.96889  0.57340  0.99022  1.0000
  S   S233      1.0  0.03829  0.58401  0.96209  1.0000
  H   H908      1.0  0.97844  0.45032  0.90158  1.0000
  C   C555      1.0  0.06100  0.58767  0.85885  1.0000
  H   H909      1.0  0.03850  0.46192  0.70479  1.0000
  C   C556      1.0  0.86748  0.54426  0.89522  1.0000
  H   H910      1.0  0.01012  0.48791  0.72130  1.0000
  Fe  Fe116     1.0  0.91772  0.44822  0.77452  1.0000
  Fe  Fe117     1.0  0.86482  0.42654  0.72851  1.0000
  H   H911      1.0  0.04733  0.57914  0.88123  1.0000
  H   H912      1.0  0.02092  0.23311  0.57762  1.0000
  C   C557      1.0  0.89916  0.50376  0.87098  1.0000
  C   C558      1.0  0.97469  0.48184  0.81513  1.0000
  C   C559      1.0  0.98766  0.51030  0.82297  1.0000
  C   C560      1.0  0.99689  0.51731  0.85929  1.0000
  C   C561      1.0  0.99305  0.49593  0.88781  1.0000
  C   C562      1.0  0.98114  0.46705  0.87965  1.0000
  C   C563      1.0  0.97187  0.46003  0.84334  1.0000
  H   H913      1.0  0.98998  0.52719  0.80121  1.0000
  H   H914      1.0  0.00712  0.53917  0.86514  1.0000
  C   C564      1.0  0.91461  0.55644  0.86602  1.0000
  N   N57       1.0  0.05533  0.50424  0.72732  1.0000
  C   C565      1.0  0.85500  0.24289  0.90744  1.0000
  C   C566      1.0  0.06503  0.15920  0.05376  1.0000
  H   H915      1.0  0.85837  0.22490  0.92912  1.0000
  C   C567      1.0  0.08644  0.15880  0.57729  1.0000
  C   C568      1.0  0.90421  0.45111  0.58871  1.0000
  H   H916      1.0  0.87284  0.26030  0.91157  1.0000
  S   S234      1.0  0.84899  0.42492  0.66928  1.0000
  H   H917      1.0  0.84971  0.38886  0.05844  1.0000
  Fe  Fe118     1.0  0.05672  0.12201  0.75108  1.0000
  H   H918      1.0  0.08748  0.18325  0.58264  1.0000
  C   C569      1.0  0.84702  0.37870  0.61820  1.0000
  H   H919      1.0  0.84788  0.34209  0.57822  1.0000
  Fe  Fe119     1.0  0.84821  0.93453  0.30557  1.0000
  H   H920      1.0  0.85423  0.66893  0.47338  1.0000
  C   C570      1.0  0.06559  0.10294  0.18022  1.0000
  S   S235      1.0  0.86643  0.75195  0.54705  1.0000
  C   C571      1.0  0.05638  0.61439  0.07267  1.0000
  S   S236      1.0  0.00570  0.65828  0.49744  1.0000
  S   S237      1.0  0.87251  0.66102  0.55691  1.0000
  H   H921      1.0  0.85321  0.70714  0.49126  1.0000
  H   H922      1.0  0.08445  0.06432  0.15059  1.0000
  C   C572      1.0  0.06293  0.10295  0.41833  1.0000
  C   C573      1.0  0.85057  0.69340  0.46548  1.0000
  H   H923      1.0  0.97018  0.70731  0.52920  1.0000
  C   C574      1.0  0.95635  0.68704  0.52735  1.0000
  C   C575      1.0  0.96806  0.66001  0.51166  1.0000
  C   C576      1.0  0.95009  0.63391  0.50926  1.0000
  H   H924      1.0  0.09382  0.05580  0.33506  1.0000
  H   H925      1.0  0.08754  0.63846  0.34236  1.0000
  H   H926      1.0  0.01458  0.02346  0.17646  1.0000
  C   C577      1.0  0.90929  0.66125  0.53977  1.0000
  C   C578      1.0  0.91112  0.67405  0.09951  1.0000
  C   C579      1.0  0.92702  0.68761  0.54165  1.0000
  C   C580      1.0  0.92085  0.63449  0.52345  1.0000
  H   H927      1.0  0.90641  0.71512  0.47574  1.0000
  C   C581      1.0  0.84761  0.09612  0.34241  1.0000
  C   C582      1.0  0.08500  0.06863  0.35844  1.0000
  C   C583      1.0  0.86823  0.68380  0.40321  1.0000
  H   H928      1.0  0.91829  0.70828  0.55449  1.0000
  C   C584      1.0  0.86572  0.73574  0.42676  1.0000
  H   H929      1.0  0.96271  0.96380  0.21308  1.0000
  H   H930      1.0  0.88386  0.69071  0.38070  1.0000
  C   C585      1.0  0.90292  0.70035  0.45082  1.0000
  H   H931      1.0  0.04523  0.08396  0.32925  1.0000
  S   S238      1.0  0.85375  0.77250  0.15750  1.0000
  N   N58       1.0  0.87187  0.70332  0.43654  1.0000
  Fe  Fe120     1.0  0.00986  0.10813  0.24249  1.0000
  H   H932      1.0  0.98507  0.00597  0.14995  1.0000
  H   H933      1.0  0.91724  0.69284  0.11911  1.0000
  C   C586      1.0  0.09042  0.08745  0.42144  1.0000
  H   H934      1.0  0.86395  0.07215  0.40855  1.0000
  H   H935      1.0  0.94519  0.04673  0.22636  1.0000
  C   C587      1.0  0.95258  0.98696  0.20856  1.0000
  H   H936      1.0  0.91305  0.65192  0.11482  1.0000
  N   N59       1.0  0.97567  0.01118  0.20825  1.0000
  H   H937      1.0  0.93603  0.99078  0.23122  1.0000
  H   H938      1.0  0.93974  0.98633  0.18199  1.0000
  H   H939      1.0  0.00832  0.98292  0.18016  1.0000
  H   H940      1.0  0.88153  0.74423  0.40531  1.0000
  S   S239      1.0  0.89487  0.95001  0.29307  1.0000
  C   C588      1.0  0.08546  0.08885  0.15522  1.0000
  H   H941      1.0  0.94795  0.04258  0.17690  1.0000
  H   H942      1.0  0.01018  0.02863  0.24440  1.0000
  H   H943      1.0  0.91972  0.70723  0.42965  1.0000
  C   C589      1.0  0.05761  0.08467  0.35510  1.0000
  S   S240      1.0  0.98689  0.08445  0.28956  1.0000
  H   H944      1.0  0.97001  0.68810  0.09637  1.0000
  H   H945      1.0  0.00357  0.98818  0.24867  1.0000
  H   H946      1.0  0.90820  0.67628  0.45914  1.0000
  H   H947      1.0  0.85106  0.03615  0.35645  1.0000
  H   H948      1.0  0.97723  0.01521  0.26782  1.0000
  C   C590      1.0  0.89413  0.99009  0.28973  1.0000
  C   C591      1.0  0.87001  0.00515  0.27236  1.0000
  C   C592      1.0  0.87105  0.03696  0.26638  1.0000
  C   C593      1.0  0.89600  0.05374  0.27826  1.0000
  C   C594      1.0  0.91903  0.03895  0.29792  1.0000
  C   C595      1.0  0.91836  0.00710  0.30313  1.0000
  H   H949      1.0  0.88705  0.67743  0.09183  1.0000
  H   H950      1.0  0.85293  0.04831  0.25157  1.0000
  H   H951      1.0  0.93738  0.05196  0.30919  1.0000
  H   H952      1.0  0.93660  0.99559  0.31757  1.0000
  S   S241      1.0  0.03956  0.08053  0.20454  1.0000
  C   C596      1.0  0.96100  0.04149  0.20329  1.0000
  S   S242      1.0  0.89873  0.09280  0.26693  1.0000
  C   C597      1.0  0.08300  0.09582  0.56312  1.0000
  H   H953      1.0  0.86773  0.75105  0.45151  1.0000
  C   C598      1.0  0.99680  0.00557  0.17731  1.0000
  H   H954      1.0  0.97782  0.06025  0.20259  1.0000
  C   C599      1.0  0.99238  0.01077  0.24384  1.0000
  H   H955      1.0  0.90712  0.61413  0.52170  1.0000
  H   H956      1.0  0.96547  0.64728  0.09232  1.0000
  H   H957      1.0  0.87122  0.08746  0.34299  1.0000
  H   H958      1.0  0.85108  0.99212  0.26223  1.0000
  C   C600      1.0  0.04678  0.10215  0.38500  1.0000
  H   H959      1.0  0.86887  0.81384  0.21725  1.0000
  H   H960      1.0  0.87285  0.65920  0.40969  1.0000
  H   H961      1.0  0.95864  0.61322  0.49630  1.0000
  C   C601      1.0  0.96217  0.66951  0.07752  1.0000
  H   H962      1.0  0.08151  0.07147  0.55741  1.0000
  N   N60       1.0  0.93050  0.67410  0.06624  1.0000
  H   H963      1.0  0.00665  0.10945  0.49995  1.0000
  C   C602      1.0  0.06709  0.61164  0.10915  1.0000
  H   H964      1.0  0.05571  0.65837  0.56527  1.0000
  S   S243      1.0  0.87940  0.80340  0.63608  1.0000
  S   S244      1.0  0.99066  0.64289  0.96744  1.0000
  H   H965      1.0  0.96733  0.05019  0.86636  1.0000
  C   C603      1.0  0.87715  0.90813  0.60535  1.0000
  H   H966      1.0  0.91533  0.90892  0.66425  1.0000
  C   C604      1.0  0.08075  0.63006  0.82340  1.0000
  C   C605      1.0  0.02821  0.62146  0.64091  1.0000
  C   C606      1.0  0.89307  0.72246  0.96328  1.0000
  C   C607      1.0  0.86947  0.70232  0.97036  1.0000
  C   C608      1.0  0.87273  0.67099  0.96211  1.0000
  C   C609      1.0  0.89972  0.65985  0.94729  1.0000
  C   C610      1.0  0.92266  0.68027  0.93849  1.0000
  C   C611      1.0  0.91928  0.71162  0.94629  1.0000
  H   H967      1.0  0.85484  0.65524  0.96874  1.0000
  H   H968      1.0  0.94318  0.67189  0.92597  1.0000
  C   C612      1.0  0.92144  0.64898  0.04096  1.0000
  H   H969      1.0  0.02858  0.68144  0.65969  1.0000
  H   H970      1.0  0.93749  0.72722  0.94057  1.0000
  H   H971      1.0  0.07603  0.63382  0.59721  1.0000
  S   S245      1.0  0.85673  0.96953  0.82500  1.0000
  H   H972      1.0  0.99333  0.63736  0.58248  1.0000
  H   H973      1.0  0.91879  0.05791  0.83618  1.0000
  S   S246      1.0  0.89140  0.76044  0.97895  1.0000
  C   C613      1.0  0.00281  0.65655  0.59924  1.0000
  C   C614      1.0  0.06669  0.10870  0.59257  1.0000
  H   H974      1.0  0.87575  0.00365  0.76052  1.0000
  H   H975      1.0  0.88313  0.95385  0.65616  1.0000
  H   H976      1.0  0.01276  0.62705  0.66422  1.0000
  N   N61       1.0  0.03211  0.64799  0.61586  1.0000
  Fe  Fe121     1.0  0.85128  0.70675  0.56954  1.0000
  S   S247      1.0  0.04688  0.64547  0.88358  1.0000
  C   C615      1.0  0.94093  0.99969  0.83943  1.0000
  H   H977      1.0  0.06622  0.66846  0.65007  1.0000
  H   H978      1.0  0.87090  0.82650  0.95419  1.0000
  N   N62       1.0  0.93021  0.01913  0.87049  1.0000
  H   H979      1.0  0.05010  0.61377  0.65295  1.0000
  Fe  Fe122     1.0  0.85768  0.92687  0.85946  1.0000
  C   C616      1.0  0.04415  0.67428  0.63708  1.0000
  C   C617      1.0  0.87897  0.82138  0.86049  1.0000
  H   H980      1.0  0.89649  0.80302  0.85967  1.0000
  S   S248      1.0  0.90588  0.62023  0.94367  1.0000
  H   H981      1.0  0.04537  0.61904  0.57071  1.0000
  H   H982      1.0  0.90104  0.87088  0.65632  1.0000
  H   H983      1.0  0.88221  0.88462  0.59457  1.0000
  S   S249      1.0  0.85491  0.80661  0.05877  1.0000
  H   H984      1.0  0.85669  0.93894  0.68847  1.0000
  H   H985      1.0  0.84896  0.71068  0.98300  1.0000
  C   C618      1.0  0.90824  0.04197  0.85642  1.0000
  H   H986      1.0  0.90171  0.81093  0.92820  1.0000
  H   H987      1.0  0.92207  0.98757  0.82548  1.0000
  H   H988      1.0  0.89058  0.84368  0.85690  1.0000
  C   C619      1.0  0.89500  0.89430  0.66647  1.0000
  H   H989      1.0  0.97311  0.01887  0.89815  1.0000
  S   S250      1.0  0.90809  0.94945  0.73743  1.0000
  Fe  Fe123     1.0  0.99124  0.10336  0.74267  1.0000
  C   C620      1.0  0.06318  0.61929  0.85260  1.0000
  C   C621      1.0  0.95601  0.03533  0.88723  1.0000
  C   C622      1.0  0.84624  0.87786  0.00245  1.0000
  H   H990      1.0  0.04759  0.69452  0.61874  1.0000
  H   H991      1.0  0.06860  0.62001  0.01529  1.0000
  S   S251      1.0  0.87678  0.89759  0.81402  1.0000
  H   H992      1.0  0.95236  0.01364  0.81788  1.0000
  S   S252      1.0  0.95094  0.08348  0.77121  1.0000
  H   H993      1.0  0.86677  0.77187  0.90243  1.0000
  C   C623      1.0  0.05333  0.63957  0.58601  1.0000
  C   C624      1.0  0.91879  0.98801  0.74062  1.0000
  C   C625      1.0  0.89869  0.00988  0.75463  1.0000
  C   C626      1.0  0.90833  0.03986  0.76155  1.0000
  C   C627      1.0  0.93808  0.04812  0.75449  1.0000
  C   C628      1.0  0.95777  0.02678  0.73835  1.0000
  C   C629      1.0  0.94807  0.99666  0.73138  1.0000
  H   H994      1.0  0.89592  0.98751  0.88718  1.0000
  H   H995      1.0  0.89754  0.65139  0.03218  1.0000
  H   H996      1.0  0.98078  0.03307  0.73285  1.0000
  H   H997      1.0  0.96364  0.97981  0.72031  1.0000
  H   H998      1.0  0.95718  0.98187  0.84907  1.0000
  H   H999      1.0  0.98597  0.66282  0.62078  1.0000
  H   H1000     1.0  0.88908  0.03072  0.84199  1.0000
  H   H1001     1.0  0.90162  0.82982  0.70386  1.0000
  H   H1002     1.0  0.89285  0.05655  0.77321  1.0000
  H   H1003     1.0  0.93520  0.64874  0.01521  1.0000
  C   C630      1.0  0.86306  0.93887  0.65860  1.0000
  C   C631      1.0  0.85505  0.91062  0.94917  1.0000
  H   H1004     1.0  0.89729  0.92252  0.60033  1.0000
  H   H1005     1.0  0.89236  0.85105  0.92440  1.0000
  H   H1006     1.0  0.93139  0.98162  0.90953  1.0000
  S   S253      1.0  0.04479  0.08508  0.62085  1.0000
  H   H1007     1.0  0.88968  0.89258  0.69663  1.0000
  Fe  Fe124     1.0  0.87126  0.93904  0.77801  1.0000
  S   S254      1.0  0.87993  0.92451  0.91551  1.0000
  S   S255      1.0  0.03459  0.08018  0.72730  1.0000
  C   C632      1.0  0.07671  0.61679  0.04330  1.0000
  H   H1008     1.0  0.90772  0.01341  0.92292  1.0000
  C   C633      1.0  0.86164  0.81176  0.67831  1.0000
  H   H1009     1.0  0.89010  0.88909  0.98151  1.0000
  H   H1010     1.0  0.89882  0.05629  0.87929  1.0000
  C   C634      1.0  0.91576  0.99964  0.89880  1.0000
  H   H1011     1.0  0.85833  0.91767  0.58839  1.0000
  N   N63       1.0  0.86945  0.90736  0.64527  1.0000
  H   H1012     1.0  0.94120  0.70460  0.02130  1.0000
  C   C635      1.0  0.87782  0.82581  0.70701  1.0000
  H   H1013     1.0  0.87590  0.84565  0.76180  1.0000
  H   H1014     1.0  0.94878  0.05043  0.91060  1.0000
  C   C636      1.0  0.86614  0.89256  0.97831  1.0000
  Fe  Fe125     1.0  0.01861  0.61956  0.92386  1.0000
  N   N64       1.0  0.86211  0.82076  0.89578  1.0000
  C   C637      1.0  0.86326  0.83482  0.73978  1.0000
  H   H1015     1.0  0.00499  0.67649  0.58012  1.0000
  Fe  Fe126     1.0  0.85340  0.76731  0.01876  1.0000
  H   H1016     1.0  0.86382  0.81816  0.83609  1.0000
  C   C638      1.0  0.92727  0.70387  0.04692  1.0000
  Fe  Fe127     1.0  0.03159  0.10775  0.67482  1.0000
  H   H1017     1.0  0.08193  0.65445  0.81795  1.0000
  C   C639      1.0  0.84901  0.79000  0.90096  1.0000
  C   C640      1.0  0.88269  0.82764  0.92697  1.0000
  Fe  Fe128     1.0  0.85161  0.77075  0.60228  1.0000
  H   H1018     1.0  0.85502  0.86373  0.02454  1.0000
  H   H1019     1.0  0.84700  0.86743  0.89035  1.0000
  H   H1020     1.0  0.90356  0.70824  0.03846  1.0000
  H   H1021     1.0  0.92426  0.62608  0.05426  1.0000
  H   H1022     1.0  0.84630  0.86451  0.63928  1.0000
  H   H1023     1.0  0.97738  0.66904  0.05298  1.0000
  S   S256      1.0  0.01763  0.61351  0.06409  1.0000
  H   H1024     1.0  0.93418  0.72339  0.06495  1.0000
