data_image0
_chemical_formula_structural       CNSCHNHCH3C2HFeSHCH2FeCFeSHFeS2H3CSHCSH2CH2CHC2HC3H3S2H2CNH3C2HCH6C2FeCH2CSCFeCFeHSC2HCFeH4SH4C2H3CHNSH3FeCFeS2FeHFeHS2C2H5C4H2NH5C2H2CHCH4NH2C2HC2H5SH2C2HC2SCNS2HCSCH2FeHNFeS2FeHSC2HCSH2SC3H2NC2HCH6C2HC2H4CHSCFeCHSH5CSCH5CHCH7SH2NH4FeS2FeSFeHFeSHC2H2C3HCHCH3CH2C2HSCH2C4H2FeSH2CFeSH3FeSFeS2C2H2CHCH8NC4SHCHCH4CHSCH3C2SHC2NH2C2H4C2H4C3SH2CH2CSHCHCH3C3HNCH3CHS2H2CH2C3H2CH2NHCSCH7C3H3CH3SNC2NCH4C2H4CH2CHFeS2FeSHSC4H5NCH3FeH3SCHNCHCHSH3SHCFeHSC3HC2H4C3HCH2C2FeHFeS2FeCFeS3HC2HCSCH2CH6SH3CHCHCHCHC2H2C4FeCHCH4FeSCH2FeSFeS2HNSH2CHC2H3CHSCS2H2CHC2H3C2H2CHC5H2CHC2NHC2HFeHFeS2FeHFeHS2CH2CH9CHCHCSCSH3CS2FeSCFe2H4C2H2S2HCH7C2HC2HFeH4S2CNC3H2SC2SHCFeSFe2SCSCH2CSCH7NCHCHSFeHCSCH4CHNSCSC2HC3H2NHC2H4CH6
_chemical_formula_sum              "C240 N24 S96 H384 Fe48"
_cell_length_a       34.1282
_cell_length_b       34.5021
_cell_length_c       30.7295
_cell_angle_alpha    89.2083
_cell_angle_beta     90.5482
_cell_angle_gamma    120.425

_space_group_name_H-M_alt    "P 1"
_space_group_IT_number       1

loop_
  _space_group_symop_operation_xyz
  'x, y, z'

loop_
  _atom_site_type_symbol
  _atom_site_label
  _atom_site_symmetry_multiplicity
  _atom_site_fract_x
  _atom_site_fract_y
  _atom_site_fract_z
  _atom_site_occupancy
  C   C1        1.0  0.21968  0.31352  0.04661  1.0000
  N   N1        1.0  0.05235  0.48763  0.22714  1.0000
  S   S1        1.0  0.07685  0.39456  0.04439  1.0000
  C   C2        1.0  0.08362  0.24485  0.04408  1.0000
  H   H1        1.0  0.29351  0.40330  0.08266  1.0000
  N   N2        1.0  0.35494  0.46722  0.07653  1.0000
  H   H2        1.0  0.07731  0.20992  0.04579  1.0000
  C   C3        1.0  0.20488  0.34429  0.05338  1.0000
  H   H3        1.0  0.11770  0.26729  0.05839  1.0000
  H   H4        1.0  0.03329  0.41797  0.23148  1.0000
  H   H5        1.0  0.38762  0.43170  0.05459  1.0000
  C   C4        1.0  0.32332  0.08859  0.03307  1.0000
  C   C5        1.0  0.01698  0.47949  0.19442  1.0000
  H   H6        1.0  0.30694  0.43880  0.12912  1.0000
  Fe  Fe1       1.0  0.04168  0.33865  0.09379  1.0000
  S   S2        1.0  0.20160  0.42072  0.03304  1.0000
  H   H7        1.0  0.05832  0.24632  0.06555  1.0000
  C   C6        1.0  0.03828  0.44603  0.25273  1.0000
  H   H8        1.0  0.00584  0.43483  0.27024  1.0000
  H   H9        1.0  0.20872  0.28497  0.06840  1.0000
  Fe  Fe2       1.0  0.14106  0.40416  0.07564  1.0000
  C   C7        1.0  0.32197  0.42836  0.10301  1.0000
  Fe  Fe3       1.0  0.07698  0.43935  0.09696  1.0000
  S   S3        1.0  0.03669  0.38258  0.14409  1.0000
  H   H10       1.0  0.01163  0.45253  0.17144  1.0000
  Fe  Fe4       1.0  0.10460  0.39499  0.16824  1.0000
  S   S4        1.0  0.11684  0.40423  0.24132  1.0000
  S   S5        1.0  0.14459  0.45402  0.12384  1.0000
  H   H11       1.0  0.46285  0.42571  0.03537  1.0000
  H   H12       1.0  0.47970  0.47551  0.09891  1.0000
  H   H13       1.0  0.18330  0.33993  0.08074  1.0000
  C   C8        1.0  0.18736  0.38628  0.24267  1.0000
  S   S6        1.0  0.10630  0.34577  0.12208  1.0000
  H   H14       1.0  0.18287  0.38222  0.20781  1.0000
  C   C9        1.0  0.99769  0.47002  0.03585  1.0000
  S   S7        1.0  0.27976  0.03199  0.03808  1.0000
  H   H15       1.0  0.41150  0.48283  0.11901  1.0000
  H   H16       1.0  0.24231  0.37238  0.24496  1.0000
  C   C10       1.0  0.15954  0.39691  0.26671  1.0000
  H   H17       1.0  0.09183  0.47441  0.18240  1.0000
  H   H18       1.0  0.37880  0.07574  0.03603  1.0000
  C   C11       1.0  0.22103  0.38073  0.26380  1.0000
  H   H19       1.0  0.33818  0.41070  0.11877  1.0000
  C   C12       1.0  0.48750  0.48988  0.06642  1.0000
  C   C13       1.0  0.36915  0.10095  0.03138  1.0000
  H   H20       1.0  0.30339  0.46766  0.03607  1.0000
  C   C14       1.0  0.37238  0.45128  0.04133  1.0000
  C   C15       1.0  0.47774  0.46156  0.03048  1.0000
  C   C16       1.0  0.33234  0.49041  0.05736  1.0000
  H   H21       1.0  0.99803  0.43885  0.03547  1.0000
  H   H22       1.0  0.06461  0.45068  0.27714  1.0000
  H   H23       1.0  0.27580  0.11217  0.02871  1.0000
  S   S8        1.0  0.26978  0.37800  0.33418  1.0000
  S   S9        1.0  0.30356  0.45214  0.44170  1.0000
  H   H24       1.0  0.37161  0.31352  0.48912  1.0000
  H   H25       1.0  0.44791  0.14499  0.48244  1.0000
  C   C17       1.0  0.24159  0.19949  0.35856  1.0000
  N   N3        1.0  0.25161  0.23734  0.38744  1.0000
  H   H26       1.0  0.27598  0.28656  0.33534  1.0000
  H   H27       1.0  0.47341  0.15397  0.42970  1.0000
  H   H28       1.0  0.14405  0.40976  0.33086  1.0000
  C   C18       1.0  0.14007  0.43993  0.43772  1.0000
  C   C19       1.0  0.25042  0.27339  0.36199  1.0000
  H   H29       1.0  0.49114  0.09330  0.44556  1.0000
  C   C20       1.0  0.48066  0.16355  0.46453  1.0000
  H   H30       1.0  0.22285  0.24984  0.44372  1.0000
  H   H31       1.0  0.46635  0.08482  0.49864  1.0000
  H   H32       1.0  0.25809  0.30245  0.38292  1.0000
  H   H33       1.0  0.07886  0.27080  0.52173  1.0000
  H   H34       1.0  0.43255  0.42543  0.51593  1.0000
  H   H35       1.0  0.12154  0.42968  0.46918  1.0000
  C   C21       1.0  0.36024  0.28105  0.50428  1.0000
  C   C22       1.0  0.46457  0.45556  0.52273  1.0000
  Fe  Fe5       1.0  0.25648  0.40683  0.49413  1.0000
  C   C23       1.0  0.02191  0.48410  0.49079  1.0000
  H   H36       1.0  0.21057  0.48710  0.38454  1.0000
  H   H37       1.0  0.26704  0.21028  0.33193  1.0000
  C   C24       1.0  0.21727  0.22163  0.42242  1.0000
  S   S10       1.0  0.34203  0.38189  0.43585  1.0000
  C   C25       1.0  0.29724  0.25504  0.40689  1.0000
  Fe  Fe6       1.0  0.28464  0.38849  0.40664  1.0000
  C   C26       1.0  0.37501  0.22122  0.52618  1.0000
  Fe  Fe7       1.0  0.35710  0.44242  0.47522  1.0000
  H   H38       1.0  0.29944  0.22895  0.42675  1.0000
  S   S11       1.0  0.27821  0.27670  0.52011  1.0000
  C   C27       1.0  0.19956  0.39661  0.33318  1.0000
  C   C28       1.0  0.16576  0.40203  0.31203  1.0000
  H   H39       1.0  0.32416  0.26757  0.38157  1.0000
  C   C29       1.0  0.22732  0.38588  0.30907  1.0000
  Fe  Fe8       1.0  0.29286  0.34273  0.48937  1.0000
  H   H40       1.0  0.30569  0.28358  0.42887  1.0000
  H   H41       1.0  0.20391  0.40032  0.36808  1.0000
  H   H42       1.0  0.21647  0.26177  0.34703  1.0000
  H   H43       1.0  0.18223  0.20664  0.40901  1.0000
  S   S12       1.0  0.23398  0.34367  0.45667  1.0000
  H   H44       1.0  0.24204  0.17165  0.37691  1.0000
  H   H45       1.0  0.03754  0.47352  0.46697  1.0000
  H   H46       1.0  0.42314  0.28213  0.49263  1.0000
  H   H47       1.0  0.15987  0.32879  0.51224  1.0000
  C   C30       1.0  0.31657  0.25671  0.52200  1.0000
  C   C31       1.0  0.38935  0.26323  0.50629  1.0000
  H   H48       1.0  0.16229  0.42490  0.43696  1.0000
  H   H49       1.0  0.21876  0.19611  0.44387  1.0000
  H   H50       1.0  0.11431  0.42429  0.41137  1.0000
  C   C32       1.0  0.13618  0.33832  0.52375  1.0000
  H   H51       1.0  0.20750  0.18556  0.34309  1.0000
  N   N4        1.0  0.16681  0.48943  0.43304  1.0000
  S   S13       1.0  0.20840  0.42540  0.52545  1.0000
  H   H52       1.0  0.49185  0.19991  0.46696  1.0000
  H   H53       1.0  0.10829  0.49406  0.41413  1.0000
  H   H54       1.0  0.16199  0.48813  0.36317  1.0000
  Fe  Fe9       1.0  0.32459  0.03788  0.58820  1.0000
  C   C33       1.0  0.07399  0.36212  0.55396  1.0000
  Fe  Fe10      1.0  0.37722  0.10029  0.66344  1.0000
  S   S14       1.0  0.43813  0.14081  0.62151  1.0000
  S   S15       1.0  0.38685  0.11777  0.73525  1.0000
  Fe  Fe11      1.0  0.38952  0.13680  0.57004  1.0000
  H   H55       1.0  0.03563  0.23815  0.73693  1.0000
  Fe  Fe12      1.0  0.42611  0.07473  0.59667  1.0000
  H   H56       1.0  0.08905  0.28964  0.73034  1.0000
  S   S16       1.0  0.32880  0.10104  0.61384  1.0000
  S   S17       1.0  0.36777  0.03379  0.64197  1.0000
  C   C34       1.0  0.05811  0.26419  0.71280  1.0000
  C   C35       1.0  0.43613  0.04851  0.76138  1.0000
  H   H57       1.0  0.47596  0.36304  0.61589  1.0000
  H   H58       1.0  0.33154  0.22485  0.72830  1.0000
  H   H59       1.0  0.36242  0.25963  0.62237  1.0000
  H   H60       1.0  0.40885  0.34773  0.57099  1.0000
  H   H61       1.0  0.35351  0.32242  0.59525  1.0000
  C   C36       1.0  0.38151  0.16329  0.75364  1.0000
  C   C37       1.0  0.39903  0.28399  0.62865  1.0000
  C   C38       1.0  0.35777  0.17952  0.72948  1.0000
  C   C39       1.0  0.06534  0.31925  0.65923  1.0000
  H   H62       1.0  0.34353  0.16516  0.69812  1.0000
  H   H63       1.0  0.34440  0.30327  0.67435  1.0000
  N   N5        1.0  0.40673  0.32919  0.63844  1.0000
  H   H64       1.0  0.39571  0.37944  0.60772  1.0000
  H   H65       1.0  0.40662  0.03860  0.73914  1.0000
  H   H66       1.0  0.04846  0.33560  0.64225  1.0000
  H   H67       1.0  0.45799  0.09819  0.68900  1.0000
  H   H68       1.0  0.41814  0.28463  0.59921  1.0000
  C   C40       1.0  0.12019  0.39486  0.54929  1.0000
  C   C41       1.0  0.39046  0.34538  0.60155  1.0000
  H   H69       1.0  0.31976  0.16466  0.55883  1.0000
  H   H70       1.0  0.49563  0.42005  0.55141  1.0000
  C   C42       1.0  0.33140  0.19715  0.54384  1.0000
  H   H71       1.0  0.00250  0.32274  0.70857  1.0000
  C   C43       1.0  0.02058  0.30672  0.72392  1.0000
  H   H72       1.0  0.07601  0.30398  0.63360  1.0000
  H   H73       1.0  0.05010  0.37152  0.56545  1.0000
  H   H74       1.0  0.38666  0.36023  0.68685  1.0000
  H   H75       1.0  0.09661  0.34622  0.67503  1.0000
  N   N6        1.0  0.03448  0.28511  0.69108  1.0000
  H   H76       1.0  0.39290  0.31453  0.70692  1.0000
  H   H77       1.0  0.46301  0.39530  0.65202  1.0000
  C   C44       1.0  0.35101  0.21335  0.74664  1.0000
  C   C45       1.0  0.15130  0.38314  0.53360  1.0000
  H   H78       1.0  0.26856  0.19576  0.55540  1.0000
  C   C46       1.0  0.38159  0.32672  0.67833  1.0000
  C   C47       1.0  0.45585  0.36066  0.64521  1.0000
  H   H79       1.0  0.06902  0.24765  0.68878  1.0000
  H   H80       1.0  0.41002  0.27028  0.65615  1.0000
  H   H81       1.0  0.05029  0.33328  0.74193  1.0000
  H   H82       1.0  0.44775  0.02244  0.68271  1.0000
  H   H83       1.0  0.46924  0.34986  0.67312  1.0000
  S   S18       1.0  0.38254  0.07407  0.54116  1.0000
  H   H84       1.0  0.13172  0.42948  0.55724  1.0000
  H   H85       1.0  0.47048  0.00182  0.72401  1.0000
  C   C48       1.0  0.05900  0.31727  0.54406  1.0000
  C   C49       1.0  0.47614  0.03263  0.70644  1.0000
  H   H86       1.0  0.00277  0.23310  0.64306  1.0000
  C   C50       1.0  0.30234  0.21481  0.54172  1.0000
  C   C51       1.0  0.48663  0.10696  0.71178  1.0000
  S   S19       1.0  0.49035  0.07050  0.59429  1.0000
  C   C52       1.0  0.45657  0.99529  0.54209  1.0000
  N   N7        1.0  0.47908  0.06692  0.73680  1.0000
  S   S20       1.0  0.31157  0.40275  0.53096  1.0000
  S   S21       1.0  0.00216  0.27456  0.55200  1.0000
  H   H87       1.0  0.48890  0.13368  0.73342  1.0000
  C   C53       1.0  0.49383  0.02848  0.56499  1.0000
  S   S22       1.0  0.41222  0.19977  0.52917  1.0000
  C   C54       1.0  0.09024  0.30549  0.52918  1.0000
  H   H88       1.0  0.99661  0.28180  0.74810  1.0000
  H   H89       1.0  0.49178  0.14861  0.54819  1.0000
  Fe  Fe13      1.0  0.32952  0.29828  0.96632  1.0000
  H   H90       1.0  0.03068  0.23691  0.94758  1.0000
  N   N8        1.0  0.08051  0.25835  0.99888  1.0000
  Fe  Fe14      1.0  0.37199  0.29258  0.88057  1.0000
  S   S23       1.0  0.44111  0.32138  0.91087  1.0000
  S   S24       1.0  0.35683  0.27208  0.80935  1.0000
  Fe  Fe15      1.0  0.40430  0.27526  0.96737  1.0000
  H   H91       1.0  0.26043  0.07917  0.83269  1.0000
  S   S25       1.0  0.33609  0.24328  0.93491  1.0000
  C   C55       1.0  0.48758  0.47974  0.98840  1.0000
  C   C56       1.0  0.03465  0.22737  0.98136  1.0000
  H   H92       1.0  0.35537  0.13911  0.93688  1.0000
  C   C57       1.0  0.29589  0.10400  0.84238  1.0000
  S   S26       1.0  0.26504  0.27938  0.00342  1.0000
  H   H93       1.0  0.35758  0.17421  0.89269  1.0000
  H   H94       1.0  0.31882  0.09420  0.82659  1.0000
  S   S27       1.0  0.39555  0.32682  0.00313  1.0000
  C   C58       1.0  0.46116  0.00727  0.02057  1.0000
  C   C59       1.0  0.39331  0.21634  0.81129  1.0000
  C   C60       1.0  0.40244  0.14585  0.02208  1.0000
  H   H95       1.0  0.28556  0.36156  0.95722  1.0000
  H   H96       1.0  0.40788  0.23109  0.84245  1.0000
  N   N9        1.0  0.30144  0.10621  0.89024  1.0000
  C   C61       1.0  0.29006  0.06161  0.90783  1.0000
  C   C62       1.0  0.27082  0.11996  0.90943  1.0000
  H   H97       1.0  0.30411  0.13721  0.82828  1.0000
  C   C63       1.0  0.34902  0.13942  0.90144  1.0000
  H   H98       1.0  0.31314  0.05061  0.89480  1.0000
  H   H99       1.0  0.25453  0.03547  0.89977  1.0000
  H   H100      1.0  0.29321  0.06211  0.94401  1.0000
  H   H101      1.0  0.23451  0.09478  0.90319  1.0000
  H   H102      1.0  0.27552  0.12387  0.94531  1.0000
  H   H103      1.0  0.27744  0.15279  0.89577  1.0000
  C   C64       1.0  0.24809  0.38725  0.99066  1.0000
  C   C65       1.0  0.39962  0.18215  0.79440  1.0000
  H   H104      1.0  0.34485  0.42885  0.01856  1.0000
  C   C66       1.0  0.24896  0.31972  0.01204  1.0000
  C   C67       1.0  0.36817  0.23143  0.78787  1.0000
  H   H105      1.0  0.41864  0.17031  0.81300  1.0000
  H   H106      1.0  0.37347  0.13244  0.88464  1.0000
  H   H107      1.0  0.08770  0.31655  0.96470  1.0000
  H   H108      1.0  0.39900  0.47979  0.02182  1.0000
  C   C68       1.0  0.39001  0.17845  0.01447  1.0000
  H   H109      1.0  0.11109  0.22249  0.97240  1.0000
  S   S28       1.0  0.35917  0.34520  0.90901  1.0000
  C   C69       1.0  0.26333  0.35680  0.98419  1.0000
  Fe  Fe16      1.0  0.42610  0.37044  0.94378  1.0000
  C   C70       1.0  0.11515  0.25660  0.97181  1.0000
  H   H110      1.0  0.25893  0.41564  0.96868  1.0000
  S   S29       1.0  0.43124  0.23296  0.99713  1.0000
  H   H111      1.0  0.15015  0.28053  0.98357  1.0000
  H   H112      1.0  0.02737  0.19209  0.98109  1.0000
  H   H113      1.0  0.11323  0.26576  0.93733  1.0000
  H   H114      1.0  0.43094  0.00995  0.02181  1.0000
  H   H115      1.0  0.12197  0.32887  0.01281  1.0000
  C   C71       1.0  0.08849  0.30465  0.99834  1.0000
  S   S30       1.0  0.47774  0.44553  0.94266  1.0000
  C   C72       1.0  0.21876  0.38103  0.02518  1.0000
  H   H116      1.0  0.42926  0.01838  0.78098  1.0000
  H   H117      1.0  0.00779  0.22779  0.00143  1.0000
  H   H118      1.0  0.33452  0.19129  0.01290  1.0000
  H   H119      1.0  0.06212  0.30681  0.01729  1.0000
  H   H120      1.0  0.43690  0.07391  0.78393  1.0000
  C   C73       1.0  0.34435  0.16628  0.01779  1.0000
  H   H121      1.0  0.43774  0.15511  0.01961  1.0000
  C   C74       1.0  0.31116  0.12148  0.02688  1.0000
  H   H122      1.0  0.49514  0.06137  0.97386  1.0000
  H   H123      1.0  0.10777  0.76273  0.21177  1.0000
  H   H124      1.0  0.16356  0.81079  0.10600  1.0000
  H   H125      1.0  0.07163  0.82993  0.14412  1.0000
  H   H126      1.0  0.47739  0.77671  0.15665  1.0000
  H   H127      1.0  0.12310  0.50688  0.22831  1.0000
  H   H128      1.0  0.13138  0.86745  0.15377  1.0000
  S   S31       1.0  0.06966  0.50121  0.09408  1.0000
  H   H129      1.0  0.02674  0.51009  0.17416  1.0000
  H   H130      1.0  0.29241  0.80789  0.05255  1.0000
  N   N10       1.0  0.11093  0.79736  0.15188  1.0000
  H   H131      1.0  0.35630  0.51991  0.03716  1.0000
  H   H132      1.0  0.38122  0.51121  0.13163  1.0000
  H   H133      1.0  0.18351  0.83819  0.15716  1.0000
  H   H134      1.0  0.07934  0.72646  0.13967  1.0000
  Fe  Fe17      1.0  0.27786  0.92277  0.14879  1.0000
  S   S32       1.0  0.29648  0.87714  0.11568  1.0000
  S   S33       1.0  0.25368  0.91572  0.21856  1.0000
  Fe  Fe18      1.0  0.35358  0.93954  0.08481  1.0000
  S   S34       1.0  0.41896  0.93747  0.08029  1.0000
  Fe  Fe19      1.0  0.25458  0.87807  0.05956  1.0000
  H   H135      1.0  0.05231  0.57361  0.08143  1.0000
  Fe  Fe20      1.0  0.29304  0.97894  0.06664  1.0000
  S   S35       1.0  0.23114  0.91887  0.09502  1.0000
  H   H136      1.0  0.20266  0.75534  0.23821  1.0000
  C   C75       1.0  0.22539  0.86319  0.24553  1.0000
  C   C76       1.0  0.22621  0.82591  0.22946  1.0000
  H   H137      1.0  0.12840  0.82163  0.21734  1.0000
  H   H138      1.0  0.24545  0.82928  0.20047  1.0000
  C   C77       1.0  0.32769  0.81439  0.04894  1.0000
  C   C78       1.0  0.10621  0.83583  0.13729  1.0000
  C   C79       1.0  0.02809  0.54588  0.06174  1.0000
  H   H139      1.0  0.06935  0.55583  0.23802  1.0000
  C   C80       1.0  0.07702  0.75624  0.12920  1.0000
  H   H140      1.0  0.04170  0.74863  0.13537  1.0000
  C   C81       1.0  0.15712  0.80664  0.14160  1.0000
  H   H141      1.0  0.06888  0.78336  0.20838  1.0000
  H   H142      1.0  0.16242  0.77886  0.15294  1.0000
  H   H143      1.0  0.11192  0.84182  0.10164  1.0000
  C   C82       1.0  0.46409  0.97502  0.04615  1.0000
  H   H144      1.0  0.08208  0.75980  0.09332  1.0000
  H   H145      1.0  0.31830  0.50247  0.08295  1.0000
  C   C83       1.0  0.05864  0.52398  0.25645  1.0000
  C   C84       1.0  0.10359  0.79095  0.19940  1.0000
  H   H146      1.0  0.35033  0.84404  0.06922  1.0000
  S   S36       1.0  0.33870  0.98599  0.12306  1.0000
  C   C85       1.0  0.20202  0.78411  0.25092  1.0000
  H   H147      1.0  0.41851  0.52875  0.08555  1.0000
  H   H148      1.0  0.10726  0.53208  0.18477  1.0000
  C   C86       1.0  0.39309  0.49882  0.10442  1.0000
  C   C87       1.0  0.09563  0.50104  0.20485  1.0000
  C   C88       1.0  0.02905  0.50562  0.06149  1.0000
  C   C89       1.0  0.99612  0.55066  0.03645  1.0000
  H   H149      1.0  0.32848  0.78492  0.06299  1.0000
  H   H150      1.0  0.02660  0.51507  0.27380  1.0000
  Fe  Fe21      1.0  0.08647  0.63964  0.45187  1.0000
  S   S37       1.0  0.07507  0.56877  0.45618  1.0000
  H   H151      1.0  0.43167  0.93688  0.50139  1.0000
  H   H152      1.0  0.16468  0.83582  0.49617  1.0000
  C   C90       1.0  0.20087  0.85853  0.28361  1.0000
  Fe  Fe22      1.0  0.14757  0.73849  0.47809  1.0000
  S   S38       1.0  0.11645  0.76328  0.42872  1.0000
  H   H153      1.0  0.22705  0.49592  0.46312  1.0000
  H   H154      1.0  0.27015  0.81527  0.33238  1.0000
  H   H155      1.0  0.25517  0.76463  0.39582  1.0000
  Fe  Fe23      1.0  0.11973  0.71486  0.38302  1.0000
  S   S39       1.0  0.14728  0.72613  0.31424  1.0000
  Fe  Fe24      1.0  0.05028  0.70391  0.45127  1.0000
  S   S40       1.0  0.15581  0.69417  0.43090  1.0000
  S   S41       1.0  0.08138  0.68213  0.50405  1.0000
  C   C91       1.0  0.03361  0.52941  0.49234  1.0000
  C   C92       1.0  0.17649  0.81665  0.30498  1.0000
  H   H156      1.0  0.21880  0.82208  0.43598  1.0000
  H   H157      1.0  0.15662  0.81309  0.33356  1.0000
  C   C93       1.0  0.18805  0.50138  0.38950  1.0000
  H   H158      1.0  0.22870  0.85615  0.38825  1.0000
  C   C94       1.0  0.46072  0.96267  0.51880  1.0000
  H   H159      1.0  0.34367  0.88111  0.42554  1.0000
  H   H160      1.0  0.31266  0.79950  0.41475  1.0000
  H   H161      1.0  0.29257  0.87415  0.34020  1.0000
  H   H162      1.0  0.29719  0.86790  0.46138  1.0000
  H   H163      1.0  0.32798  0.85019  0.35033  1.0000
  H   H164      1.0  0.20664  0.79667  0.38342  1.0000
  H   H165      1.0  0.30807  0.90496  0.41569  1.0000
  H   H166      1.0  0.26583  0.78665  0.44994  1.0000
  N   N11       1.0  0.27752  0.83508  0.39940  1.0000
  C   C95       1.0  0.23087  0.82721  0.40182  1.0000
  C   C96       1.0  0.27789  0.79471  0.41562  1.0000
  C   C97       1.0  0.30803  0.87404  0.42660  1.0000
  C   C98       1.0  0.29286  0.84411  0.35361  1.0000
  S   S42       1.0  0.05043  0.65742  0.40071  1.0000
  H   H167      1.0  0.12100  0.50073  0.47125  1.0000
  C   C99       1.0  0.13657  0.50816  0.43823  1.0000
  H   H168      1.0  0.18410  0.91358  0.51401  1.0000
  C   C100      1.0  0.17719  0.77935  0.28876  1.0000
  H   H169      1.0  0.15526  0.54540  0.43413  1.0000
  H   H170      1.0  0.19994  0.88726  0.29605  1.0000
  H   H171      1.0  0.22254  0.54553  0.46540  1.0000
  H   H172      1.0  0.07709  0.78533  0.50765  1.0000
  C   C101      1.0  0.19478  0.85702  0.51503  1.0000
  H   H173      1.0  0.03799  0.80281  0.52245  1.0000
  S   S43       1.0  0.42764  0.50315  0.48428  1.0000
  C   C102      1.0  0.47074  0.49761  0.51089  1.0000
  H   H174      1.0  0.20910  0.53847  0.38502  1.0000
  H   H175      1.0  0.08515  0.53108  0.28151  1.0000
  H   H176      1.0  0.02169  0.57741  0.52466  1.0000
  C   C103      1.0  0.01266  0.54256  0.52295  1.0000
  C   C104      1.0  0.20589  0.90108  0.52509  1.0000
  S   S44       1.0  0.20775  0.78431  0.52047  1.0000
  H   H177      1.0  0.18801  0.49801  0.50012  1.0000
  C   C105      1.0  0.20267  0.50816  0.46682  1.0000
  C   C106      1.0  0.22220  0.84035  0.53016  1.0000
  N   N12       1.0  0.06472  0.78269  0.57633  1.0000
  H   H178      1.0  0.02492  0.80965  0.60122  1.0000
  H   H179      1.0  0.10396  0.76590  0.61976  1.0000
  C   C107      1.0  0.27338  0.91301  0.56325  1.0000
  C   C108      1.0  0.05642  0.80877  0.60896  1.0000
  H   H180      1.0  0.05236  0.79387  0.64215  1.0000
  H   H181      1.0  0.30359  0.93435  0.58205  1.0000
  H   H182      1.0  0.28322  0.85593  0.56558  1.0000
  H   H183      1.0  0.09793  0.83922  0.53230  1.0000
  C   C109      1.0  0.10682  0.78243  0.58766  1.0000
  C   C110      1.0  0.02584  0.73606  0.57578  1.0000
  H   H184      1.0  0.03076  0.71545  0.55134  1.0000
  H   H185      1.0  0.08511  0.84418  0.61023  1.0000
  H   H186      1.0  0.11489  0.76409  0.56305  1.0000
  H   H187      1.0  0.13669  0.81717  0.58927  1.0000
  C   C111      1.0  0.26173  0.86858  0.55392  1.0000
  C   C112      1.0  0.06975  0.80360  0.53288  1.0000
  C   C113      1.0  0.24509  0.92918  0.54938  1.0000
  S   S45       1.0  0.25617  0.98333  0.56317  1.0000
  H   H188      1.0  0.02078  0.71905  0.60797  1.0000
  H   H189      1.0  0.42447  0.99448  0.54250  1.0000
  C   C114      1.0  0.33992  0.86134  0.98566  1.0000
  H   H190      1.0  0.35033  0.86826  0.95093  1.0000
  H   H191      1.0  0.30483  0.85570  0.98782  1.0000
  C   C115      1.0  0.31112  0.78204  0.97733  1.0000
  S   S46       1.0  0.00413  0.75116  0.00050  1.0000
  H   H192      1.0  0.05235  0.70167  0.99262  1.0000
  C   C116      1.0  0.07671  0.73643  0.99972  1.0000
  H   H193      1.0  0.27530  0.77463  0.97934  1.0000
  C   C117      1.0  0.06201  0.76740  0.00390  1.0000
  H   H194      1.0  0.40127  0.83782  0.96546  1.0000
  H   H195      1.0  0.32066  0.78677  0.94232  1.0000
  H   H196      1.0  0.08264  0.83647  0.01626  1.0000
  C   C118      1.0  0.09383  0.81234  0.01329  1.0000
  C   C119      1.0  0.38918  0.83144  0.99974  1.0000
  C   C120      1.0  0.12297  0.75038  0.00558  1.0000
  H   H197      1.0  0.31157  0.75173  0.98947  1.0000
  N   N13       1.0  0.34201  0.82225  0.00288  1.0000
  C   C121      1.0  0.15460  0.79523  0.01572  1.0000
  H   H198      1.0  0.13406  0.72617  0.00289  1.0000
  H   H199      1.0  0.41302  0.86183  0.01880  1.0000
  H   H200      1.0  0.39222  0.80277  0.01260  1.0000
  C   C122      1.0  0.13994  0.82624  0.01915  1.0000
  H   H201      1.0  0.36296  0.89233  0.00415  1.0000
  S   S47       1.0  0.31257  0.93750  0.02632  1.0000
  S   S48       1.0  0.21183  0.81145  0.02604  1.0000
  H   H202      1.0  0.16410  0.86100  0.02628  1.0000
  H   H203      1.0  0.86127  0.28986  0.03687  1.0000
  C   C123      1.0  0.64524  0.20962  0.06246  1.0000
  H   H204      1.0  0.63728  0.20725  0.09776  1.0000
  H   H205      1.0  0.93933  0.31536  0.06439  1.0000
  C   C124      1.0  0.87383  0.26668  0.03775  1.0000
  C   C125      1.0  0.93438  0.25131  0.05497  1.0000
  C   C126      1.0  0.61746  0.12990  0.05897  1.0000
  H   H206      1.0  0.67404  0.24418  0.05569  1.0000
  H   H207      1.0  0.60857  0.12499  0.09411  1.0000
  C   C127      1.0  0.91809  0.28122  0.05331  1.0000
  H   H208      1.0  0.91864  0.18366  0.04185  1.0000
  H   H209      1.0  0.72709  0.21541  0.06780  1.0000
  N   N14       1.0  0.65654  0.17527  0.04981  1.0000
  H   H210      1.0  0.69058  0.17872  0.11029  1.0000
  C   C128      1.0  0.90642  0.20709  0.04045  1.0000
  S   S49       1.0  0.98907  0.26725  0.07541  1.0000
  C   C129      1.0  0.69675  0.18177  0.07462  1.0000
  H   H211      1.0  0.58670  0.12375  0.04030  1.0000
  H   H212      1.0  0.62473  0.10317  0.04929  1.0000
  H   H213      1.0  0.61511  0.20562  0.04410  1.0000
  H   H214      1.0  0.98374  0.46922  0.20988  1.0000
  H   H215      1.0  0.70640  0.15657  0.06550  1.0000
  H   H216      1.0  0.84539  0.05435  0.40610  1.0000
  H   H217      1.0  0.52339  0.09649  0.49342  1.0000
  C   C130      1.0  0.81451  0.05715  0.40975  1.0000
  C   C131      1.0  0.78283  0.01848  0.34191  1.0000
  C   C132      1.0  0.74966  0.06506  0.52264  1.0000
  H   H218      1.0  0.72722  0.02515  0.42993  1.0000
  H   H219      1.0  0.82196  0.09000  0.39543  1.0000
  H   H220      1.0  0.70355  0.99625  0.37967  1.0000
  C   C133      1.0  0.71508  0.07523  0.51746  1.0000
  H   H221      1.0  0.80885  0.05826  0.44532  1.0000
  H   H222      1.0  0.82054  0.47118  0.46743  1.0000
  H   H223      1.0  0.73979  0.05630  0.37981  1.0000
  S   S50       1.0  0.73808  0.00931  0.52259  1.0000
  N   N15       1.0  0.51503  0.15373  0.48277  1.0000
  C   C134      1.0  0.55784  0.17912  0.45808  1.0000
  C   C135      1.0  0.83872  0.48948  0.49733  1.0000
  N   N16       1.0  0.77446  0.01920  0.38892  1.0000
  C   C136      1.0  0.73450  0.02447  0.39480  1.0000
  H   H224      1.0  0.78935  0.05007  0.32531  1.0000
  H   H225      1.0  0.69804  0.12755  0.51903  1.0000
  H   H226      1.0  0.81269  0.01439  0.33616  1.0000
  H   H227      1.0  0.57142  0.21600  0.45967  1.0000
  C   C137      1.0  0.98951  0.45214  0.51963  1.0000
  C   C138      1.0  0.49826  0.10502  0.47980  1.0000
  H   H228      1.0  0.81556  0.40189  0.49826  1.0000
  H   H229      1.0  0.55279  0.16960  0.42314  1.0000
  H   H230      1.0  0.58452  0.17258  0.47126  1.0000
  H   H231      1.0  0.98051  0.41729  0.51798  1.0000
  C   C139      1.0  0.72500  0.11984  0.52186  1.0000
  H   H232      1.0  0.68054  0.04868  0.51133  1.0000
  H   H233      1.0  0.87248  0.43687  0.51809  1.0000
  C   C140      1.0  0.83592  0.42274  0.52618  1.0000
  H   H234      1.0  0.75589  0.42007  0.51608  1.0000
  Fe  Fe25      1.0  0.84845  0.25668  0.57167  1.0000
  S   S51       1.0  0.88981  0.23306  0.60793  1.0000
  S   S52       1.0  0.78031  0.20900  0.54111  1.0000
  Fe  Fe26      1.0  0.89900  0.28289  0.65849  1.0000
  S   S53       1.0  0.90245  0.26632  0.72941  1.0000
  H   H235      1.0  0.82120  0.09201  0.53437  1.0000
  S   S54       1.0  0.85257  0.30238  0.62529  1.0000
  C   C141      1.0  0.85375  0.22040  0.75304  1.0000
  C   C142      1.0  0.77560  0.15892  0.74844  1.0000
  C   C143      1.0  0.81341  0.19628  0.72934  1.0000
  C   C144      1.0  0.53526  0.02896  0.56417  1.0000
  H   H236      1.0  0.81133  0.20661  0.69640  1.0000
  H   H237      1.0  0.74429  0.14093  0.73033  1.0000
  H   H238      1.0  0.76634  0.41594  0.57303  1.0000
  H   H239      1.0  0.76884  0.46593  0.55169  1.0000
  H   H240      1.0  0.55024  0.09393  0.74988  1.0000
  N   N17       1.0  0.73181  0.05360  0.65902  1.0000
  C   C145      1.0  0.96860  0.46533  0.55025  1.0000
  H   H241      1.0  0.79962  0.06448  0.66223  1.0000
  H   H242      1.0  0.66162  0.03132  0.64536  1.0000
  H   H243      1.0  0.50777  0.04565  0.68686  1.0000
  Fe  Fe27      1.0  0.94982  0.29108  0.57516  1.0000
  H   H244      1.0  0.75190  0.10593  0.61085  1.0000
  H   H245      1.0  0.56434  0.05467  0.58160  1.0000
  H   H246      1.0  0.54882  0.15996  0.54401  1.0000
  S   S55       1.0  0.58651  0.48677  0.57614  1.0000
  C   C146      1.0  0.76944  0.15429  0.53127  1.0000
  H   H247      1.0  0.75570  0.00685  0.65448  1.0000
  N   N18       1.0  0.82602  0.45887  0.53545  1.0000
  C   C147      1.0  0.80418  0.14417  0.53467  1.0000
  H   H248      1.0  0.69233  0.02651  0.60067  1.0000
  C   C148      1.0  0.76641  0.04231  0.64601  1.0000
  H   H249      1.0  0.78051  0.12447  0.66201  1.0000
  S   S56       1.0  0.90759  0.31082  0.53407  1.0000
  H   H250      1.0  0.82867  0.39997  0.55484  1.0000
  H   H251      1.0  0.75745  0.07004  0.72459  1.0000
  H   H252      1.0  0.69986  0.05681  0.71798  1.0000
  S   S57       1.0  0.96220  0.33975  0.62838  1.0000
  H   H253      1.0  0.51819  0.12144  0.69196  1.0000
  C   C149      1.0  0.50028  0.45258  0.54280  1.0000
  Fe  Fe28      1.0  0.91512  0.35521  0.59037  1.0000
  H   H254      1.0  0.96902  0.22432  0.69123  1.0000
  S   S58       1.0  0.92632  0.42586  0.58572  1.0000
  C   C150      1.0  0.68839  0.02342  0.63671  1.0000
  C   C151      1.0  0.51730  0.07972  0.76742  1.0000
  C   C152      1.0  0.85248  0.48418  0.57391  1.0000
  H   H255      1.0  0.77233  0.04635  0.61026  1.0000
  C   C153      1.0  0.72526  0.04798  0.70668  1.0000
  C   C154      1.0  0.74732  0.10073  0.64658  1.0000
  H   H256      1.0  0.71322  0.01278  0.71735  1.0000
  H   H257      1.0  0.72240  0.11078  0.65624  1.0000
  H   H258      1.0  0.84509  0.46172  0.60280  1.0000
  H   H259      1.0  0.83867  0.17059  0.54079  1.0000
  C   C155      1.0  0.54229  0.49154  0.55107  1.0000
  C   C156      1.0  0.79426  0.09965  0.53060  1.0000
  C   C157      1.0  0.77705  0.43919  0.54443  1.0000
  H   H260      1.0  0.97572  0.26508  0.65107  1.0000
  C   C158      1.0  0.99377  0.25019  0.66824  1.0000
  H   H261      1.0  0.57137  0.99686  0.54051  1.0000
  H   H262      1.0  0.53586  0.20376  0.53261  1.0000
  C   C159      1.0  0.52344  0.16729  0.52886  1.0000
  C   C160      1.0  0.53938  0.99628  0.54090  1.0000
  Fe  Fe29      1.0  0.71305  0.03665  0.96993  1.0000
  H   H263      1.0  0.83796  0.47067  0.85433  1.0000
  Fe  Fe30      1.0  0.72203  0.08763  0.88535  1.0000
  S   S59       1.0  0.70331  0.13339  0.91786  1.0000
  S   S60       1.0  0.73151  0.09485  0.81194  1.0000
  Fe  Fe31      1.0  0.74929  0.13719  0.97237  1.0000
  C   C161      1.0  0.85566  0.20740  0.79617  1.0000
  Fe  Fe32      1.0  0.64890  0.07197  0.95221  1.0000
  S   S61       1.0  0.58209  0.07111  0.95742  1.0000
  S   S62       1.0  0.77275  0.09599  0.93713  1.0000
  S   S63       1.0  0.66376  0.02493  0.91536  1.0000
  H   H264      1.0  0.81992  0.15970  0.84819  1.0000
  C   C162      1.0  0.53713  0.03343  0.99164  1.0000
  C   C163      1.0  0.96570  0.47480  0.01059  1.0000
  H   H265      1.0  0.60562  0.44953  0.01734  1.0000
  C   C164      1.0  0.81784  0.16990  0.81519  1.0000
  S   S64       1.0  0.69357  0.07889  0.00913  1.0000
  C   C165      1.0  0.59692  0.46138  0.98687  1.0000
  H   H266      1.0  0.84111  0.15850  0.01366  1.0000
  H   H267      1.0  0.55999  0.45008  0.98813  1.0000
  C   C166      1.0  0.77789  0.14509  0.79110  1.0000
  H   H268      1.0  0.67502  0.15404  0.99267  1.0000
  H   H269      1.0  0.69676  0.21314  0.99450  1.0000
  H   H270      1.0  0.51277  0.05030  0.78693  1.0000
  H   H271      1.0  0.89095  0.44179  0.84605  1.0000
  H   H272      1.0  0.60173  0.44382  0.95911  1.0000
  H   H273      1.0  0.87607  0.48008  0.78373  1.0000
  S   S65       1.0  0.79001  0.20482  0.00509  1.0000
  H   H274      1.0  0.94147  0.44706  0.99091  1.0000
  H   H275      1.0  0.52043  0.10561  0.79072  1.0000
  H   H276      1.0  0.88658  0.22617  0.81488  1.0000
  C   C167      1.0  0.66681  0.17976  0.00284  1.0000
  H   H277      1.0  0.63732  0.17477  0.98273  1.0000
  C   C168      1.0  0.84585  0.22240  0.02328  1.0000
  H   H278      1.0  0.57045  0.99872  0.01614  1.0000
  C   C169      1.0  0.54012  0.00123  0.01728  1.0000
  H   H279      1.0  0.92342  0.47425  0.89195  1.0000
  C   C170      1.0  0.91924  0.47538  0.85594  1.0000
  H   H280      1.0  0.95099  0.48055  0.84068  1.0000
  C   C171      1.0  0.86243  0.19272  0.02447  1.0000
  C   C172      1.0  0.49760  0.03638  0.99346  1.0000
  H   H281      1.0  0.72607  0.92294  0.06547  1.0000
  H   H282      1.0  0.61684  0.85677  0.19420  1.0000
  C   C173      1.0  0.74146  0.83262  0.03569  1.0000
  C   C174      1.0  0.65921  0.86381  0.06365  1.0000
  C   C175      1.0  0.50365  0.97208  0.04438  1.0000
  C   C176      1.0  0.72930  0.62131  0.05962  1.0000
  Fe  Fe33      1.0  0.56754  0.64463  0.11150  1.0000
  C   C177      1.0  0.53626  0.78804  0.22132  1.0000
  H   H283      1.0  0.68663  0.64303  0.08949  1.0000
  C   C178      1.0  0.71850  0.65352  0.07323  1.0000
  H   H284      1.0  0.51824  0.76247  0.13816  1.0000
  H   H285      1.0  0.66769  0.84523  0.08658  1.0000
  H   H286      1.0  0.67419  0.88451  0.26551  1.0000
  H   H287      1.0  0.77269  0.83223  0.04586  1.0000
  Fe  Fe34      1.0  0.59515  0.74306  0.09368  1.0000
  S   S66       1.0  0.65497  0.76980  0.13880  1.0000
  C   C179      1.0  0.69225  0.90785  0.05167  1.0000
  H   H288      1.0  0.65600  0.81308  0.22945  1.0000
  H   H289      1.0  0.59965  0.85834  0.13902  1.0000
  Fe  Fe35      1.0  0.60834  0.71446  0.18438  1.0000
  S   S67       1.0  0.59779  0.71943  0.25654  1.0000
  Fe  Fe36      1.0  0.66681  0.71771  0.10812  1.0000
  S   S68       1.0  0.73763  0.74063  0.08425  1.0000
  S   S69       1.0  0.54715  0.69100  0.14130  1.0000
  H   H290      1.0  0.51986  0.81189  0.11731  1.0000
  N   N19       1.0  0.54476  0.81749  0.18287  1.0000
  S   S70       1.0  0.62589  0.66454  0.15802  1.0000
  H   H291      1.0  0.81551  0.74791  0.04163  1.0000
  H   H292      1.0  0.54323  0.87741  0.16610  1.0000
  C   C180      1.0  0.77072  0.63454  0.03885  1.0000
  H   H293      1.0  0.56036  0.87528  0.22117  1.0000
  C   C181      1.0  0.59222  0.83637  0.16833  1.0000
  C   C182      1.0  0.74960  0.69927  0.06686  1.0000
  H   H294      1.0  0.70591  0.58609  0.06590  1.0000
  H   H295      1.0  0.54406  0.76098  0.21445  1.0000
  H   H296      1.0  0.55766  0.80734  0.24951  1.0000
  C   C183      1.0  0.64217  0.81231  0.26118  1.0000
  H   H297      1.0  0.71372  0.80866  0.05762  1.0000
  S   S71       1.0  0.60991  0.69462  0.05948  1.0000
  C   C184      1.0  0.79116  0.71256  0.04635  1.0000
  S   S72       1.0  0.51548  0.57003  0.10661  1.0000
  S   S73       1.0  0.57432  0.78772  0.05790  1.0000
  H   H298      1.0  0.59913  0.80928  0.15943  1.0000
  H   H299      1.0  0.50619  0.94725  0.06414  1.0000
  C   C185      1.0  0.50751  0.53658  0.06068  1.0000
  H   H300      1.0  0.50023  0.77147  0.23197  1.0000
  C   C186      1.0  0.61568  0.84394  0.04547  1.0000
  C   C187      1.0  0.53711  0.85458  0.19445  1.0000
  H   H301      1.0  0.50167  0.84161  0.20573  1.0000
  H   H302      1.0  0.62741  0.52325  0.05050  1.0000
  H   H303      1.0  0.74732  0.86682  0.04187  1.0000
  C   C188      1.0  0.51356  0.79100  0.14728  1.0000
  C   C189      1.0  0.80164  0.68028  0.03220  1.0000
  H   H304      1.0  0.99574  0.58182  0.03679  1.0000
  H   H305      1.0  0.52143  0.58701  0.42057  1.0000
  C   C190      1.0  0.51253  0.53648  0.51969  1.0000
  H   H306      1.0  0.62543  0.72424  0.43815  1.0000
  C   C191      1.0  0.61396  0.77104  0.28187  1.0000
  C   C192      1.0  0.63507  0.85201  0.32312  1.0000
  C   C193      1.0  0.60223  0.63922  0.45790  1.0000
  C   C194      1.0  0.59692  0.77047  0.32341  1.0000
  C   C195      1.0  0.58834  0.69925  0.43840  1.0000
  H   H307      1.0  0.63396  0.67954  0.38030  1.0000
  H   H308      1.0  0.59044  0.63826  0.49174  1.0000
  C   C196      1.0  0.94398  0.67811  0.48994  1.0000
  H   H309      1.0  0.73525  0.94716  0.39477  1.0000
  C   C197      1.0  0.65251  0.85268  0.28170  1.0000
  C   C198      1.0  0.59663  0.65571  0.38220  1.0000
  N   N20       1.0  0.57919  0.65402  0.42650  1.0000
  H   H310      1.0  0.59385  0.80989  0.37593  1.0000
  C   C199      1.0  0.69688  0.77032  0.50685  1.0000
  C   C200      1.0  0.60751  0.81077  0.34406  1.0000
  H   H311      1.0  0.59558  0.60489  0.45046  1.0000
  Fe  Fe37      1.0  0.66934  0.95434  0.49969  1.0000
  H   H312      1.0  0.57161  0.71165  0.41548  1.0000
  Fe  Fe38      1.0  0.62641  0.90069  0.41767  1.0000
  S   S74       1.0  0.56156  0.85256  0.45202  1.0000
  S   S75       1.0  0.64711  0.90307  0.34726  1.0000
  Fe  Fe39      1.0  0.56811  0.91398  0.48463  1.0000
  H   H313      1.0  0.57557  0.69927  0.47162  1.0000
  Fe  Fe40      1.0  0.60683  0.85283  0.50603  1.0000
  H   H314      1.0  0.83949  0.66030  0.51866  1.0000
  S   S76       1.0  0.62937  0.96211  0.44553  1.0000
  S   S77       1.0  0.67087  0.89649  0.46921  1.0000
  C   C201      1.0  0.90785  0.68614  0.49493  1.0000
  H   H315      1.0  0.67742  0.81990  0.49444  1.0000
  H   H316      1.0  0.57479  0.73867  0.33936  1.0000
  C   C202      1.0  0.66877  0.78888  0.51109  1.0000
  H   H317      1.0  0.63978  0.66233  0.45768  1.0000
  H   H318      1.0  0.91075  0.71682  0.48203  1.0000
  H   H319      1.0  0.59021  0.62211  0.37210  1.0000
  H   H320      1.0  0.87589  0.50657  0.49076  1.0000
  H   H321      1.0  0.51132  0.63116  0.40316  1.0000
  H   H322      1.0  0.72711  0.78739  0.48695  1.0000
  H   H323      1.0  0.83006  0.51616  0.50243  1.0000
  H   H324      1.0  0.51501  0.62111  0.46004  1.0000
  H   H325      1.0  0.58028  0.66702  0.35753  1.0000
  C   C203      1.0  0.52964  0.62198  0.42755  1.0000
  H   H326      1.0  0.96788  0.63220  0.50351  1.0000
  C   C204      1.0  0.86751  0.65423  0.51580  1.0000
  H   H327      1.0  0.75954  0.97599  0.44489  1.0000
  C   C205      1.0  0.94006  0.63850  0.50684  1.0000
  S   S78       1.0  0.72216  0.70768  0.52087  1.0000
  C   C206      1.0  0.50203  0.96287  0.51817  1.0000
  S   S79       1.0  0.50533  0.92102  0.48833  1.0000
  H   H328      1.0  0.51708  0.56901  0.51156  1.0000
  H   H329      1.0  0.75291  0.98996  0.32564  1.0000
  H   H330      1.0  0.79492  0.97110  0.40518  1.0000
  C   C207      1.0  0.76570  0.97651  0.40931  1.0000
  S   S80       1.0  0.99411  0.71888  0.46379  1.0000
  S   S81       1.0  0.81213  0.57221  0.55620  1.0000
  Fe  Fe41      1.0  0.72284  0.61609  0.65070  1.0000
  S   S82       1.0  0.70947  0.54953  0.62643  1.0000
  C   C208      1.0  0.77536  0.63159  0.75081  1.0000
  Fe  Fe42      1.0  0.75811  0.58973  0.57261  1.0000
  Fe  Fe43      1.0  0.65546  0.55010  0.58412  1.0000
  H   H331      1.0  0.65128  0.68854  0.64894  1.0000
  H   H332      1.0  0.79998  0.61295  0.69530  1.0000
  H   H333      1.0  0.69208  0.76813  0.62378  1.0000
  H   H334      1.0  0.85944  0.60714  0.73704  1.0000
  C   C209      1.0  0.80375  0.61949  0.72987  1.0000
  C   C210      1.0  0.83744  0.61619  0.75361  1.0000
  H   H335      1.0  0.72550  0.71961  0.61261  1.0000
  H   H336      1.0  0.67344  0.67121  0.69354  1.0000
  S   S83       1.0  0.66444  0.61344  0.61318  1.0000
  S   S84       1.0  0.73350  0.63716  0.72148  1.0000
  H   H337      1.0  0.84471  0.51078  0.58283  1.0000
  C   C211      1.0  0.74266  0.73154  0.64461  1.0000
  H   H338      1.0  0.88957  0.50073  0.56781  1.0000
  H   H339      1.0  0.58034  0.56370  0.54601  1.0000
  H   H340      1.0  0.74288  0.72704  0.73180  1.0000
  H   H341      1.0  0.74906  0.70518  0.65809  1.0000
  H   H342      1.0  0.64824  0.70504  0.70333  1.0000
  H   H343      1.0  0.58799  0.70907  0.57692  1.0000
  H   H344      1.0  0.74198  0.80880  0.65196  1.0000
  C   C212      1.0  0.70879  0.77719  0.65636  1.0000
  C   C213      1.0  0.61863  0.72643  0.55761  1.0000
  H   H345      1.0  0.96545  0.52140  0.57625  1.0000
  C   C214      1.0  0.73815  0.75426  0.71728  1.0000
  C   C215      1.0  0.66997  0.69963  0.68038  1.0000
  H   H346      1.0  0.77631  0.76200  0.63832  1.0000
  Fe  Fe44      1.0  0.71537  0.64841  0.56003  1.0000
  H   H347      1.0  0.77248  0.78470  0.71415  1.0000
  H   H348      1.0  0.67558  0.98754  0.64533  1.0000
  H   H349      1.0  0.63757  0.67605  0.56888  1.0000
  H   H350      1.0  0.68720  0.78449  0.67769  1.0000
  S   S85       1.0  0.60856  0.91058  0.54145  1.0000
  S   S86       1.0  0.77486  0.65643  0.59971  1.0000
  C   C216      1.0  0.64675  0.70779  0.55329  1.0000
  N   N21       1.0  0.71487  0.74071  0.67467  1.0000
  C   C217      1.0  0.98050  0.51066  0.55195  1.0000
  C   C218      1.0  0.86322  0.61422  0.53206  1.0000
  C   C219      1.0  0.62951  0.76706  0.53648  1.0000
  H   H351      1.0  0.71830  0.76157  0.74090  1.0000
  H   H352      1.0  0.89755  0.57666  0.54129  1.0000
  S   S87       1.0  0.59277  0.78882  0.54163  1.0000
  C   C220      1.0  0.54827  0.53353  0.53947  1.0000
  C   C221      1.0  0.68609  0.72984  0.52795  1.0000
  S   S88       1.0  0.70298  0.58482  0.52805  1.0000
  H   H353      1.0  0.99357  0.73499  0.56683  1.0000
  C   C222      1.0  0.89993  0.60684  0.52802  1.0000
  Fe  Fe45      1.0  0.89436  0.62800  0.90022  1.0000
  S   S89       1.0  0.85183  0.56759  0.94195  1.0000
  Fe  Fe46      1.0  0.85034  0.61531  0.98967  1.0000
  Fe  Fe47      1.0  0.91704  0.58157  0.97410  1.0000
  S   S90       1.0  0.78223  0.59295  0.02106  1.0000
  C   C223      1.0  0.84289  0.62463  0.79850  1.0000
  S   S91       1.0  0.92411  0.51942  0.97820  1.0000
  C   C224      1.0  0.78074  0.64005  0.79573  1.0000
  H   H354      1.0  0.63703  0.56982  0.01618  1.0000
  H   H355      1.0  0.77257  0.88775  0.96625  1.0000
  C   C225      1.0  0.61208  0.52483  0.94108  1.0000
  S   S92       1.0  0.88607  0.62041  0.82676  1.0000
  C   C226      1.0  0.68206  0.93249  0.02162  1.0000
  H   H356      1.0  0.71625  0.76444  0.94829  1.0000
  H   H357      1.0  0.94228  0.58329  0.84905  1.0000
  H   H358      1.0  0.81819  0.64300  0.85413  1.0000
  H   H359      1.0  0.68495  0.51513  0.01053  1.0000
  H   H360      1.0  0.69104  0.85280  0.98143  1.0000
  H   H361      1.0  0.69558  0.56148  0.97584  1.0000
  H   H362      1.0  0.51573  0.54083  0.95010  1.0000
  N   N22       1.0  0.90997  0.51151  0.84343  1.0000
  C   C227      1.0  0.67355  0.52439  0.98005  1.0000
  H   H363      1.0  0.75998  0.84504  0.92668  1.0000
  C   C228      1.0  0.50793  0.52651  0.98262  1.0000
  H   H364      1.0  0.68085  0.50842  0.95251  1.0000
  S   S93       1.0  0.96027  0.63972  0.92940  1.0000
  Fe  Fe48      1.0  0.95051  0.68161  0.97858  1.0000
  H   H365      1.0  0.53302  0.59079  0.01382  1.0000
  C   C229      1.0  0.81426  0.63640  0.81957  1.0000
  S   S94       1.0  0.91196  0.62426  0.02601  1.0000
  C   C230      1.0  0.72428  0.77502  0.98278  1.0000
  H   H366      1.0  0.75890  0.64936  0.81219  1.0000
  H   H367      1.0  0.80001  0.85497  0.96971  1.0000
  H   H368      1.0  0.69628  0.74902  0.00323  1.0000
  H   H369      1.0  0.62990  0.93205  0.98136  1.0000
  C   C231      1.0  0.94823  0.55523  0.85764  1.0000
  H   H370      1.0  0.57123  0.85401  0.00246  1.0000
  N   N23       1.0  0.62495  0.51076  0.98183  1.0000
  S   S95       1.0  0.72619  0.98566  0.00430  1.0000
  C   C232      1.0  0.63806  0.91325  0.00453  1.0000
  S   S96       1.0  0.88816  0.67523  0.94539  1.0000
  C   C233      1.0  0.51797  0.55490  0.01863  1.0000
  C   C234      1.0  0.76732  0.85340  0.96175  1.0000
  H   H371      1.0  0.67686  0.80810  0.94406  1.0000
  C   C235      1.0  0.68738  0.81900  0.97817  1.0000
  C   C236      1.0  0.86765  0.50315  0.86460  1.0000
  C   C237      1.0  0.96478  0.51508  0.01077  1.0000
  H   H372      1.0  0.63198  0.56197  0.93653  1.0000
  H   H373      1.0  0.75554  0.77423  0.99204  1.0000
  N   N24       1.0  0.73008  0.81999  0.98957  1.0000
  H   H374      1.0  0.95315  0.55579  0.89352  1.0000
  C   C238      1.0  0.61725  0.53250  0.01929  1.0000
  C   C239      1.0  0.60495  0.86905  0.01647  1.0000
  H   H375      1.0  0.65891  0.79540  0.99978  1.0000
  H   H376      1.0  0.83380  0.69081  0.01654  1.0000
  H   H377      1.0  0.98074  0.56273  0.84231  1.0000
  H   H378      1.0  0.58084  0.52218  0.02229  1.0000
  C   C240      1.0  0.90472  0.51248  0.79569  1.0000
  H   H379      1.0  0.85994  0.53015  0.85644  1.0000
  H   H380      1.0  0.57542  0.51437  0.94092  1.0000
  H   H381      1.0  0.89762  0.53959  0.78572  1.0000
  H   H382      1.0  0.87026  0.50185  0.90066  1.0000
  H   H383      1.0  0.61794  0.50938  0.91214  1.0000
  H   H384      1.0  0.93607  0.51895  0.77854  1.0000
