data_image0
_chemical_formula_structural       H2SHCH5CH2CH2C3H2CH2C2H3N2SH2CHC2H2CH2SHSCHCSCH2C2HSCH2CHNCH3CH2CH3CSH3C3H2SH3CHCH5SC2HCHSCH2NH2C2HCHCH2SHSFeSCFeHFeSHCH4CH3SHC2HC4H2SHCHNHCHCHSFeSFeCFeHCHC2HCHSC5H4CHNCH5CH2CFeSFeS2Fe2S2C2NH2SCH3C4H4FeCH3SH3C2SH2CH2C2H2CH2SFeS2FeSFeSH2CHC2HC2FeSHNH2SHCHCH3CHCFeSHFeHFeCH2SCH2NH2SH2C2HFeH2CHSC2SH3CHCHFeSHFeSFe2SHS2HC2HC3HC2HNCH3CHCHCH3FeH4CHSCFeSH2SFeCFeS3C6H4C2HC2NFeSH4NC2H6CHSC3HC2H2CHCH4CHCH4SHCSH2CH2SH4C2FeCSHSH4SHFeHC2HCHCS2HCHFeHFeNS2FeS3FeC2HCHCHNC2H5CH2C2H4CH2CH2CH5FeHSFeHSFeSFe2HS2C5NH4SH2C2H2CHCHCHCHCH3NS2C4H2CSCH3FeCHCH3CSH3C2FeC2FeSH5CFeSHFeHSCHC2HCNHC2H2FeCFeHSCFeS3C2H3SH3CH2NSHCSHSCH2C2HC2HFeSCH2C2H2SC2SCHCH2SH3C2HSCH2CSNCH2CH3CH6C4NCSH6CHCH2C2HCH2CHNCH2CHC3H2CH2CH6C2H2CHN2H5CHC2HSH2SH7CH3CH2CHCSNCHCH
_chemical_formula_sum              "H384 S96 C240 N24 Fe48"
_cell_length_a       36.4295
_cell_length_b       36.6216
_cell_length_c       38.6394
_cell_angle_alpha    90.0779
_cell_angle_beta     89.8087
_cell_angle_gamma    119.603

_space_group_name_H-M_alt    "P 1"
_space_group_IT_number       1

loop_
  _space_group_symop_operation_xyz
  'x, y, z'

loop_
  _atom_site_type_symbol
  _atom_site_label
  _atom_site_symmetry_multiplicity
  _atom_site_fract_x
  _atom_site_fract_y
  _atom_site_fract_z
  _atom_site_occupancy
  H   H1        1.0  0.33619  0.47991  0.20796  1.0000
  H   H2        1.0  0.47862  0.44132  0.13141  1.0000
  S   S1        1.0  0.06700  0.49479  0.13283  1.0000
  H   H3        1.0  0.33759  0.39730  0.19598  1.0000
  C   C1        1.0  0.37594  0.48646  0.14787  1.0000
  H   H4        1.0  0.28963  0.38902  0.14739  1.0000
  H   H5        1.0  0.43818  0.11558  0.13932  1.0000
  H   H6        1.0  0.03610  0.48147  0.05431  1.0000
  H   H7        1.0  0.44249  0.16241  0.05271  1.0000
  H   H8        1.0  0.30005  0.43343  0.12091  1.0000
  C   C2        1.0  0.31527  0.41883  0.13631  1.0000
  H   H9        1.0  0.44762  0.21815  0.11202  1.0000
  H   H10       1.0  0.38249  0.44778  0.20460  1.0000
  C   C3        1.0  0.50448  0.01252  0.24891  1.0000
  H   H11       1.0  0.03857  0.44584  0.02359  1.0000
  H   H12       1.0  0.39739  0.48027  0.13134  1.0000
  C   C4        1.0  0.31659  0.45773  0.18722  1.0000
  C   C5        1.0  0.36182  0.42696  0.18366  1.0000
  C   C6        1.0  0.03163  0.50153  0.16009  1.0000
  H   H13       1.0  0.38228  0.41959  0.16692  1.0000
  H   H14       1.0  0.30113  0.47296  0.17306  1.0000
  C   C7        1.0  0.47545  0.21406  0.10700  1.0000
  H   H15       1.0  0.49045  0.23076  0.08240  1.0000
  H   H16       1.0  0.29130  0.42923  0.20017  1.0000
  C   C8        1.0  0.44694  0.14937  0.13946  1.0000
  C   C9        1.0  0.43087  0.14783  0.07862  1.0000
  H   H17       1.0  0.33388  0.41071  0.11807  1.0000
  H   H18       1.0  0.49313  0.13195  0.09525  1.0000
  H   H19       1.0  0.42163  0.11401  0.07647  1.0000
  N   N1        1.0  0.46352  0.16918  0.10540  1.0000
  N   N2        1.0  0.34239  0.44748  0.16378  1.0000
  S   S2        1.0  0.13759  0.50277  0.06115  1.0000
  H   H20       1.0  0.41849  0.15136  0.14704  1.0000
  H   H21       1.0  0.47101  0.16499  0.16017  1.0000
  C   C10       1.0  0.49189  0.00875  0.04561  1.0000
  H   H22       1.0  0.40185  0.14956  0.08459  1.0000
  C   C11       1.0  0.02860  0.44836  0.05040  1.0000
  C   C12       1.0  0.50097  0.16540  0.09657  1.0000
  H   H23       1.0  0.04871  0.44262  0.06875  1.0000
  H   H24       1.0  0.49848  0.23056  0.12815  1.0000
  C   C13       1.0  0.50127  0.47284  0.12330  1.0000
  H   H25       1.0  0.50379  0.02379  0.22318  1.0000
  H   H26       1.0  0.46999  0.01936  0.03853  1.0000
  S   S3        1.0  0.47091  0.49818  0.17793  1.0000
  H   H27       1.0  0.36255  0.50197  0.13151  1.0000
  S   S4        1.0  0.49009  0.40503  0.40608  1.0000
  C   C14       1.0  0.49473  0.48277  0.41066  1.0000
  H   H28       1.0  0.49868  0.07513  0.45919  1.0000
  C   C15       1.0  0.48626  0.44821  0.38984  1.0000
  S   S5        1.0  0.06488  0.46538  0.48964  1.0000
  C   C16       1.0  0.03100  0.47419  0.46248  1.0000
  H   H29       1.0  0.46198  0.48096  0.31468  1.0000
  H   H30       1.0  0.46785  0.42119  0.33893  1.0000
  C   C17       1.0  0.47121  0.48168  0.34137  1.0000
  C   C18       1.0  0.47454  0.44786  0.35518  1.0000
  H   H31       1.0  0.43276  0.07286  0.48094  1.0000
  S   S6        1.0  0.50771  0.37052  0.50234  1.0000
  C   C19       1.0  0.50744  0.07543  0.48678  1.0000
  H   H32       1.0  0.49718  0.14143  0.46976  1.0000
  H   H33       1.0  0.50346  0.48326  0.43746  1.0000
  C   C20       1.0  0.50747  0.14063  0.49670  1.0000
  H   H34       1.0  0.49480  0.04215  0.49496  1.0000
  N   N3        1.0  0.49104  0.09709  0.50902  1.0000
  C   C21       1.0  0.44440  0.07438  0.50779  1.0000
  H   H35       1.0  0.49635  0.15812  0.51340  1.0000
  H   H36       1.0  0.43111  0.04151  0.51730  1.0000
  H   H37       1.0  0.24669  0.43579  0.69380  1.0000
  C   C22       1.0  0.23383  0.46578  0.65128  1.0000
  H   H38       1.0  0.20734  0.43681  0.64211  1.0000
  H   H39       1.0  0.49247  0.11311  0.56291  1.0000
  C   C23       1.0  0.33043  0.47704  0.59607  1.0000
  H   H40       1.0  0.51013  0.48994  0.71594  1.0000
  H   H41       1.0  0.39498  0.46321  0.57970  1.0000
  H   H42       1.0  0.12308  0.50338  0.65707  1.0000
  C   C24       1.0  0.12117  0.49230  0.72575  1.0000
  S   S7        1.0  0.50724  0.00470  0.70406  1.0000
  H   H43       1.0  0.37575  0.45994  0.64140  1.0000
  H   H44       1.0  0.04475  0.46742  0.64473  1.0000
  H   H45       1.0  0.32096  0.44313  0.59619  1.0000
  C   C25       1.0  0.24679  0.50303  0.63278  1.0000
  C   C26       1.0  0.25644  0.46513  0.68038  1.0000
  C   C27       1.0  0.03033  0.47657  0.66493  1.0000
  H   H46       1.0  0.03439  0.49668  0.59098  1.0000
  H   H47       1.0  0.49424  0.06549  0.55468  1.0000
  S   S8        1.0  0.11313  0.48997  0.58150  1.0000
  H   H48       1.0  0.10974  0.45792  0.72579  1.0000
  H   H49       1.0  0.48122  0.50176  0.66410  1.0000
  H   H50       1.0  0.32266  0.48467  0.57017  1.0000
  C   C28       1.0  0.50491  0.09785  0.54500  1.0000
  H   H51       1.0  0.49643  0.44669  0.64236  1.0000
  C   C29       1.0  0.50617  0.47499  0.62740  1.0000
  H   H52       1.0  0.02769  0.48342  0.54596  1.0000
  H   H53       1.0  0.18517  0.47555  0.71643  1.0000
  H   H54       1.0  0.43105  0.09000  0.52428  1.0000
  H   H55       1.0  0.31010  0.48141  0.61525  1.0000
  H   H56       1.0  0.13875  0.46499  0.66658  1.0000
  S   S9        1.0  0.32297  0.49751  0.72515  1.0000
  C   C30       1.0  0.40160  0.49631  0.57888  1.0000
  C   C31       1.0  0.29296  0.50146  0.69092  1.0000
  H   H57       1.0  0.36498  0.49888  0.65938  1.0000
  C   C32       1.0  0.38387  0.49341  0.63944  1.0000
  H   H58       1.0  0.09464  0.49669  0.71658  1.0000
  S   S10       1.0  0.22536  0.49995  0.59132  1.0000
  C   C33       1.0  0.14893  0.49906  0.66789  1.0000
  H   H59       1.0  0.39558  0.50295  0.55203  1.0000
  H   H60       1.0  0.12766  0.50339  0.75305  1.0000
  N   N4        1.0  0.37567  0.50378  0.60438  1.0000
  H   H61       1.0  0.45872  0.42957  0.85211  1.0000
  H   H62       1.0  0.47874  0.48007  0.97703  1.0000
  C   C34       1.0  0.05745  0.49720  0.95090  1.0000
  C   C35       1.0  0.04405  0.47666  0.91886  1.0000
  H   H63       1.0  0.45897  0.48594  0.81606  1.0000
  C   C36       1.0  0.48582  0.49279  0.83222  1.0000
  H   H64       1.0  0.06565  0.47119  0.90335  1.0000
  C   C37       1.0  0.48575  0.46092  0.85268  1.0000
  H   H65       1.0  0.49897  0.02143  0.97282  1.0000
  H   H66       1.0  0.50041  0.02350  0.92667  1.0000
  S   S11       1.0  0.41763  0.51933  0.25178  1.0000
  H   H67       1.0  0.22659  0.54183  0.14737  1.0000
  S   S12       1.0  0.11145  0.57705  0.05084  1.0000
  Fe  Fe1       1.0  0.20372  0.55413  0.07081  1.0000
  S   S13       1.0  0.18402  0.58845  0.10764  1.0000
  C   C38       1.0  0.48857  0.97253  0.02998  1.0000
  Fe  Fe2       1.0  0.11711  0.53976  0.09502  1.0000
  H   H68       1.0  0.27848  0.62743  0.11710  1.0000
  Fe  Fe3       1.0  0.18103  0.62237  0.05992  1.0000
  S   S14       1.0  0.21984  0.69368  0.05981  1.0000
  H   H69       1.0  0.35231  0.74310  0.11980  1.0000
  C   C39       1.0  0.50454  0.50738  0.14188  1.0000
  H   H70       1.0  0.38852  0.69352  0.08441  1.0000
  H   H71       1.0  0.31361  0.73517  0.08775  1.0000
  H   H72       1.0  0.34296  0.56268  0.10155  1.0000
  H   H73       1.0  0.25653  0.54581  0.20586  1.0000
  C   C40       1.0  0.34138  0.56244  0.15738  1.0000
  H   H74       1.0  0.29431  0.77478  0.04991  1.0000
  H   H75       1.0  0.33644  0.68446  0.03805  1.0000
  H   H76       1.0  0.28370  0.67070  0.05031  1.0000
  S   S15       1.0  0.26246  0.54851  0.07850  1.0000
  H   H77       1.0  0.03515  0.54882  0.25680  1.0000
  C   C41       1.0  0.25861  0.54765  0.15000  1.0000
  C   C42       1.0  0.28271  0.55186  0.12049  1.0000
  H   H78       1.0  0.30138  0.63353  0.05598  1.0000
  C   C43       1.0  0.27563  0.54997  0.18311  1.0000
  C   C44       1.0  0.29101  0.66194  0.11788  1.0000
  C   C45       1.0  0.25099  0.71839  0.02262  1.0000
  C   C46       1.0  0.32409  0.55918  0.12430  1.0000
  H   H79       1.0  0.04840  0.56358  0.14247  1.0000
  H   H80       1.0  0.26432  0.66762  0.11197  1.0000
  S   S16       1.0  0.20347  0.58984  0.02383  1.0000
  H   H81       1.0  0.39601  0.50939  0.16796  1.0000
  C   C47       1.0  0.34020  0.72940  0.09381  1.0000
  H   H82       1.0  0.37338  0.56850  0.16000  1.0000
  N   N5        1.0  0.32606  0.68401  0.09300  1.0000
  H   H83       1.0  0.36565  0.74712  0.07451  1.0000
  C   C48       1.0  0.31139  0.66751  0.05778  1.0000
  H   H84       1.0  0.35146  0.64300  0.10188  1.0000
  C   C49       1.0  0.47576  0.97062  0.25811  1.0000
  H   H85       1.0  0.30114  0.67253  0.14491  1.0000
  S   S17       1.0  0.33647  0.55721  0.22870  1.0000
  Fe  Fe4       1.0  0.40346  0.56989  0.23557  1.0000
  S   S18       1.0  0.45329  0.59656  0.19437  1.0000
  Fe  Fe5       1.0  0.47039  0.54845  0.21246  1.0000
  C   C50       1.0  0.36139  0.67705  0.10253  1.0000
  Fe  Fe6       1.0  0.49544  0.63701  0.23741  1.0000
  H   H86       1.0  0.37289  0.68850  0.12917  1.0000
  C   C51       1.0  0.31700  0.55718  0.18692  1.0000
  H   H87       1.0  0.45307  0.94986  0.23931  1.0000
  C   C52       1.0  0.28673  0.75856  0.02534  1.0000
  C   C53       1.0  0.02835  0.53798  0.15957  1.0000
  H   H88       1.0  0.51019  0.83973  0.22083  1.0000
  C   C54       1.0  0.25479  0.68185  0.48857  1.0000
  H   H89       1.0  0.49657  0.54253  0.41345  1.0000
  S   S19       1.0  0.44433  0.61373  0.27715  1.0000
  C   C55       1.0  0.30423  0.73513  0.44844  1.0000
  C   C56       1.0  0.02970  0.51169  0.46374  1.0000
  C   C57       1.0  0.31523  0.70640  0.43493  1.0000
  C   C58       1.0  0.29532  0.66518  0.44782  1.0000
  C   C59       1.0  0.26542  0.65299  0.47471  1.0000
  H   H90       1.0  0.45973  0.63118  0.39141  1.0000
  H   H91       1.0  0.47176  0.65369  0.34889  1.0000
  H   H92       1.0  0.25089  0.62141  0.48489  1.0000
  H   H93       1.0  0.30330  0.64262  0.43727  1.0000
  C   C60       1.0  0.27383  0.72273  0.47499  1.0000
  H   H94       1.0  0.05080  0.53667  0.48079  1.0000
  N   N6        1.0  0.03415  0.54906  0.31248  1.0000
  C   C61       1.0  0.47884  0.51583  0.36237  1.0000
  H   H95       1.0  0.47898  0.85614  0.27165  1.0000
  H   H96       1.0  0.31882  0.76675  0.43823  1.0000
  H   H97       1.0  0.45001  0.81609  0.50544  1.0000
  H   H98       1.0  0.47684  0.76035  0.31973  1.0000
  H   H99       1.0  0.26518  0.74496  0.48524  1.0000
  C   C62       1.0  0.03436  0.52926  0.27915  1.0000
  H   H100      1.0  0.07343  0.60635  0.33999  1.0000
  H   H101      1.0  0.42488  0.60425  0.35620  1.0000
  C   C63       1.0  0.44550  0.63589  0.36759  1.0000
  Fe  Fe7       1.0  0.49580  0.83460  0.37579  1.0000
  S   S20       1.0  0.43745  0.80877  0.34400  1.0000
  Fe  Fe8       1.0  0.46165  0.87335  0.42865  1.0000
  S   S21       1.0  0.40082  0.85012  0.39909  1.0000
  S   S22       1.0  0.46186  0.89819  0.48261  1.0000
  Fe  Fe9       1.0  0.40240  0.78970  0.39438  1.0000
  Fe  Fe10      1.0  0.44316  0.87223  0.35185  1.0000
  S   S23       1.0  0.43814  0.90323  0.30250  1.0000
  S   S24       1.0  0.46090  0.81159  0.42601  1.0000
  C   C64       1.0  0.07272  0.59053  0.31515  1.0000
  C   C65       1.0  0.47567  0.95568  0.29163  1.0000
  N   N7        1.0  0.42165  0.65804  0.37494  1.0000
  H   H102      1.0  0.34135  0.72438  0.51248  1.0000
  H   H103      1.0  0.42802  0.68113  0.32295  1.0000
  S   S25       1.0  0.47361  0.55832  0.34650  1.0000
  C   C66       1.0  0.38734  0.63331  0.39985  1.0000
  H   H104      1.0  0.47747  0.71888  0.37219  1.0000
  H   H105      1.0  0.36876  0.64925  0.40585  1.0000
  H   H106      1.0  0.36498  0.60165  0.38934  1.0000
  C   C67       1.0  0.40318  0.66309  0.34251  1.0000
  C   C68       1.0  0.45042  0.69984  0.38980  1.0000
  C   C69       1.0  0.49856  0.94761  0.49988  1.0000
  C   C70       1.0  0.37298  0.80877  0.50937  1.0000
  H   H107      1.0  0.43377  0.71801  0.39454  1.0000
  H   H108      1.0  0.46389  0.69721  0.41483  1.0000
  H   H109      1.0  0.39996  0.62875  0.42465  1.0000
  H   H110      1.0  0.38526  0.68007  0.34711  1.0000
  Fe  Fe11      1.0  0.46398  0.56581  0.28937  1.0000
  C   C71       1.0  0.49069  0.51625  0.39702  1.0000
  H   H111      1.0  0.38757  0.74886  0.48560  1.0000
  H   H112      1.0  0.38467  0.81352  0.48216  1.0000
  H   H113      1.0  0.10170  0.58759  0.31401  1.0000
  S   S26       1.0  0.35427  0.72113  0.40253  1.0000
  H   H114      1.0  0.38106  0.63214  0.33070  1.0000
  H   H115      1.0  0.06211  0.52444  0.27680  1.0000
  H   H116      1.0  0.03305  0.53629  0.36691  1.0000
  C   C72       1.0  0.37630  0.74461  0.51294  1.0000
  C   C73       1.0  0.03287  0.52202  0.34139  1.0000
  S   S27       1.0  0.50371  0.89932  0.38175  1.0000
  H   H117      1.0  0.33794  0.79197  0.50859  1.0000
  H   H118      1.0  0.06035  0.51662  0.34075  1.0000
  C   C74       1.0  0.50307  0.73517  0.28258  1.0000
  H   H119      1.0  0.50510  0.97188  0.34171  1.0000
  H   H120      1.0  0.07463  0.61167  0.29368  1.0000
  C   C75       1.0  0.50505  0.98284  0.31575  1.0000
  C   C76       1.0  0.50536  0.76212  0.30971  1.0000
  H   H121      1.0  0.47289  0.71315  0.27147  1.0000
  H   H122      1.0  0.51004  0.84261  0.29925  1.0000
  C   C77       1.0  0.51025  0.86869  0.28450  1.0000
  H   H123      1.0  0.29297  0.56881  0.62969  1.0000
  H   H124      1.0  0.41768  0.51307  0.64652  1.0000
  S   S28       1.0  0.11122  0.57105  0.54635  1.0000
  Fe  Fe12      1.0  0.18383  0.52746  0.57640  1.0000
  S   S29       1.0  0.18892  0.58640  0.59843  1.0000
  S   S30       1.0  0.44413  0.52734  0.72450  1.0000
  Fe  Fe13      1.0  0.11789  0.55035  0.59959  1.0000
  S   S31       1.0  0.08320  0.55910  0.64496  1.0000
  Fe  Fe14      1.0  0.18209  0.60179  0.54326  1.0000
  S   S32       1.0  0.50286  0.58409  0.63662  1.0000
  H   H125      1.0  0.17675  0.51567  0.65043  1.0000
  H   H126      1.0  0.18060  0.57402  0.73019  1.0000
  C   C78       1.0  0.04352  0.51899  0.67060  1.0000
  H   H127      1.0  0.50697  0.90062  0.75782  1.0000
  C   C79       1.0  0.49287  0.95704  0.53406  1.0000
  C   C80       1.0  0.28214  0.54004  0.64425  1.0000
  H   H128      1.0  0.44617  0.84154  0.54364  1.0000
  C   C81       1.0  0.50445  0.99846  0.74946  1.0000
  C   C82       1.0  0.30517  0.53926  0.67330  1.0000
  Fe  Fe15      1.0  0.11130  0.51301  0.52781  1.0000
  S   S33       1.0  0.51009  0.62932  0.73143  1.0000
  H   H129      1.0  0.45645  0.93330  0.74653  1.0000
  N   N8        1.0  0.38890  0.78540  0.52976  1.0000
  H   H130      1.0  0.43593  0.51682  0.58399  1.0000
  H   H131      1.0  0.38094  0.55741  0.57722  1.0000
  S   S34       1.0  0.18185  0.54506  0.52086  1.0000
  H   H132      1.0  0.33562  0.75937  0.56439  1.0000
  C   C83       1.0  0.47653  0.95887  0.76359  1.0000
  H   H133      1.0  0.03449  0.56289  0.70170  1.0000
  C   C84       1.0  0.19366  0.50924  0.71705  1.0000
  H   H134      1.0  0.42083  0.56952  0.60947  1.0000
  H   H135      1.0  0.33266  0.56775  0.68169  1.0000
  H   H136      1.0  0.46643  0.93412  0.54912  1.0000
  C   C85       1.0  0.38686  0.54845  0.60325  1.0000
  H   H137      1.0  0.44873  0.79385  0.54719  1.0000
  C   C86       1.0  0.43546  0.81016  0.53170  1.0000
  Fe  Fe16      1.0  0.39265  0.54454  0.73003  1.0000
  S   S35       1.0  0.42100  0.59703  0.69192  1.0000
  H   H138      1.0  0.38354  0.84051  0.52045  1.0000
  Fe  Fe17      1.0  0.47438  0.58316  0.68920  1.0000
  H   H139      1.0  0.22291  0.52688  0.70132  1.0000
  Fe  Fe18      1.0  0.45332  0.63732  0.73814  1.0000
  C   C87       1.0  0.17235  0.56050  0.70370  1.0000
  H   H140      1.0  0.38920  0.72685  0.52681  1.0000
  H   H141      1.0  0.14678  0.56608  0.69393  1.0000
  S   S36       1.0  0.45066  0.69753  0.74380  1.0000
  C   C88       1.0  0.02448  0.53012  0.69717  1.0000
  H   H142      1.0  0.38209  0.76050  0.58123  1.0000
  H   H143      1.0  0.37960  0.80827  0.57839  1.0000
  N   N9        1.0  0.15904  0.51526  0.70365  1.0000
  H   H144      1.0  0.36805  0.55523  0.62230  1.0000
  H   H145      1.0  0.20168  0.52032  0.74424  1.0000
  S   S37       1.0  0.22009  0.66897  0.52418  1.0000
  H   H146      1.0  0.01584  0.54367  0.53513  1.0000
  H   H147      1.0  0.20039  0.57865  0.68672  1.0000
  C   C89       1.0  0.49782  0.50626  0.63990  1.0000
  C   C90       1.0  0.37080  0.77807  0.56505  1.0000
  H   H148      1.0  0.02258  0.55582  0.58051  1.0000
  Fe  Fe19      1.0  0.47665  0.57394  0.76753  1.0000
  H   H149      1.0  0.25626  0.70366  0.93615  1.0000
  H   H150      1.0  0.33122  0.71146  0.82981  1.0000
  C   C91       1.0  0.50243  0.73917  0.83863  1.0000
  H   H151      1.0  0.21295  0.66790  0.98776  1.0000
  S   S38       1.0  0.33135  0.78304  0.92610  1.0000
  C   C92       1.0  0.30180  0.75848  0.96393  1.0000
  C   C93       1.0  0.26561  0.71872  0.96113  1.0000
  S   S39       1.0  0.10903  0.51250  0.96549  1.0000
  H   H152      1.0  0.46687  0.53175  0.94500  1.0000
  H   H153      1.0  0.38514  0.75037  0.83768  1.0000
  H   H154      1.0  0.34405  0.74846  0.86447  1.0000
  C   C94       1.0  0.35467  0.72868  0.85049  1.0000
  H   H155      1.0  0.50369  0.85130  0.76826  1.0000
  C   C95       1.0  0.37342  0.67413  0.85469  1.0000
  H   H156      1.0  0.39572  0.70309  0.91913  1.0000
  Fe  Fe20      1.0  0.48131  0.83811  0.90384  1.0000
  S   S40       1.0  0.43382  0.84835  0.87526  1.0000
  H   H157      1.0  0.48083  0.54067  0.00840  1.0000
  Fe  Fe21      1.0  0.48110  0.88976  0.96681  1.0000
  S   S41       1.0  0.43234  0.90261  0.94323  1.0000
  Fe  Fe22      1.0  0.40017  0.83440  0.92699  1.0000
  Fe  Fe23      1.0  0.47050  0.91509  0.89412  1.0000
  S   S42       1.0  0.44622  0.82072  0.95434  1.0000
  H   H158      1.0  0.33993  0.80913  0.99867  1.0000
  S   S43       1.0  0.49863  0.97828  0.86696  1.0000
  S   S44       1.0  0.42191  0.58531  0.77690  1.0000
  H   H159      1.0  0.46289  0.80490  0.82589  1.0000
  C   C96       1.0  0.46686  0.72520  0.78315  1.0000
  C   C97       1.0  0.48903  0.71586  0.80778  1.0000
  H   H160      1.0  0.49647  0.69113  0.80280  1.0000
  C   C98       1.0  0.49298  0.77129  0.84534  1.0000
  C   C99       1.0  0.47022  0.78019  0.82097  1.0000
  C   C100      1.0  0.45754  0.75746  0.78982  1.0000
  H   H161      1.0  0.03957  0.52066  0.99515  1.0000
  C   C101      1.0  0.49956  0.98533  0.82172  1.0000
  C   C102      1.0  0.24081  0.69842  0.99040  1.0000
  H   H162      1.0  0.42145  0.74641  0.88981  1.0000
  N   N10       1.0  0.35911  0.69954  0.87431  1.0000
  C   C103      1.0  0.31258  0.77817  0.99629  1.0000
  H   H163      1.0  0.37671  0.65146  0.87175  1.0000
  H   H164      1.0  0.30649  0.69020  0.90576  1.0000
  H   H165      1.0  0.38000  0.74237  0.91729  1.0000
  C   C104      1.0  0.31793  0.67166  0.89087  1.0000
  H   H166      1.0  0.29337  0.65280  0.87136  1.0000
  C   C105      1.0  0.47415  0.95222  0.79958  1.0000
  H   H167      1.0  0.45227  0.92174  0.81020  1.0000
  C   C106      1.0  0.39042  0.72384  0.90131  1.0000
  H   H168      1.0  0.32007  0.64947  0.90930  1.0000
  H   H169      1.0  0.40477  0.69429  0.84240  1.0000
  H   H170      1.0  0.35100  0.65592  0.83362  1.0000
  Fe  Fe24      1.0  0.13479  0.54206  0.01790  1.0000
  H   H171      1.0  0.49128  0.87904  0.80051  1.0000
  H   H172      1.0  0.50788  0.53844  0.91568  1.0000
  H   H173      1.0  0.44033  0.76471  0.77081  1.0000
  H   H174      1.0  0.51042  0.58346  0.93648  1.0000
  C   C107      1.0  0.50154  0.54999  0.94043  1.0000
  H   H175      1.0  0.46402  0.95520  0.01123  1.0000
  S   S45       1.0  0.51062  0.80017  0.88409  1.0000
  C   C108      1.0  0.02938  0.50430  0.97071  1.0000
  Fe  Fe25      1.0  0.57067  0.11526  0.13138  1.0000
  S   S46       1.0  0.53622  0.13085  0.17231  1.0000
  H   H176      1.0  0.64422  0.30541  0.22727  1.0000
  H   H177      1.0  0.93786  0.40277  0.09767  1.0000
  S   S47       1.0  0.62695  0.19015  0.20801  1.0000
  Fe  Fe26      1.0  0.57803  0.12163  0.20997  1.0000
  C   C109      1.0  0.97187  0.42426  0.09207  1.0000
  Fe  Fe27      1.0  0.58923  0.19729  0.16546  1.0000
  S   S48       1.0  0.58325  0.25617  0.16234  1.0000
  S   S49       1.0  0.60914  0.10187  0.16963  1.0000
  S   S50       1.0  0.62163  0.18230  0.12315  1.0000
  C   C110      1.0  0.57710  0.31050  0.05671  1.0000
  C   C111      1.0  0.57589  0.33035  0.08734  1.0000
  C   C112      1.0  0.57930  0.31437  0.11964  1.0000
  C   C113      1.0  0.58470  0.27897  0.12152  1.0000
  C   C114      1.0  0.58807  0.26062  0.09081  1.0000
  C   C115      1.0  0.58349  0.27579  0.05867  1.0000
  H   H178      1.0  0.57064  0.35696  0.08615  1.0000
  H   H179      1.0  0.57655  0.32884  0.14321  1.0000
  H   H180      1.0  0.59297  0.23393  0.09164  1.0000
  H   H181      1.0  0.68948  0.30095  0.23942  1.0000
  C   C116      1.0  0.80939  0.28438  0.25358  1.0000
  C   C117      1.0  0.95775  0.42657  0.03131  1.0000
  H   H182      1.0  0.66055  0.10658  0.24238  1.0000
  C   C118      1.0  0.74170  0.35315  0.19013  1.0000
  C   C119      1.0  0.77108  0.28278  0.24547  1.0000
  N   N11       1.0  0.98337  0.41858  0.05652  1.0000
  Fe  Fe28      1.0  0.65609  0.17103  0.16614  1.0000
  S   S51       1.0  0.52943  0.07947  0.08568  1.0000
  H   H183      1.0  0.70087  0.39174  0.16439  1.0000
  H   H184      1.0  0.57621  0.03483  0.09788  1.0000
  H   H185      1.0  0.98417  0.37002  0.02578  1.0000
  H   H186      1.0  0.92337  0.40507  0.03540  1.0000
  N   N12       1.0  0.70266  0.35100  0.20369  1.0000
  C   C120      1.0  0.68084  0.35980  0.17543  1.0000
  C   C121      1.0  0.67449  0.30853  0.21761  1.0000
  H   H187      1.0  0.67959  0.16188  0.24082  1.0000
  H   H188      1.0  0.73466  0.32933  0.16949  1.0000
  H   H189      1.0  0.71459  0.14241  0.23043  1.0000
  H   H190      1.0  0.68495  0.38160  0.24268  1.0000
  H   H191      1.0  0.66615  0.28414  0.19727  1.0000
  H   H192      1.0  0.00756  0.44018  0.18297  1.0000
  C   C122      1.0  0.71356  0.38233  0.23159  1.0000
  H   H193      1.0  0.67232  0.33669  0.15393  1.0000
  S   S52       1.0  0.72637  0.19586  0.16744  1.0000
  C   C123      1.0  0.75809  0.23148  0.19991  1.0000
  C   C124      1.0  0.79695  0.23435  0.20743  1.0000
  C   C125      1.0  0.82211  0.26012  0.23438  1.0000
  H   H194      1.0  0.85143  0.26090  0.24066  1.0000
  C   C126      1.0  0.68838  0.13786  0.24804  1.0000
  C   C127      1.0  0.74525  0.25601  0.21883  1.0000
  H   H195      1.0  0.80725  0.21573  0.19289  1.0000
  H   H196      1.0  0.75929  0.34731  0.21090  1.0000
  C   C128      1.0  0.97583  0.47177  0.20403  1.0000
  H   H197      1.0  0.99051  0.41816  0.11175  1.0000
  C   C129      1.0  0.52753  0.47873  0.09454  1.0000
  H   H198      1.0  0.95576  0.44611  0.22107  1.0000
  H   H199      1.0  0.73004  0.37649  0.25332  1.0000
  H   H200      1.0  0.76349  0.38465  0.17900  1.0000
  H   H201      1.0  0.97850  0.45706  0.09644  1.0000
  C   C130      1.0  0.00522  0.46850  0.18237  1.0000
  H   H202      1.0  0.71550  0.25421  0.21298  1.0000
  C   C131      1.0  0.55155  0.01741  0.07922  1.0000
  H   H203      1.0  0.65084  0.35769  0.18463  1.0000
  H   H204      1.0  0.58455  0.26032  0.03511  1.0000
  H   H205      1.0  0.96369  0.45937  0.03340  1.0000
  H   H206      1.0  0.73497  0.41484  0.22220  1.0000
  S   S53       1.0  0.63487  0.44994  0.02276  1.0000
  H   H207      1.0  0.52500  0.45191  0.08067  1.0000
  C   C132      1.0  0.52364  0.03159  0.06998  1.0000
  S   S54       1.0  0.83107  0.41019  0.26523  1.0000
  H   H208      1.0  0.94161  0.35176  0.05665  1.0000
  H   H209      1.0  0.99442  0.36821  0.07100  1.0000
  C   C133      1.0  0.97547  0.37516  0.05230  1.0000
  H   H210      1.0  0.76072  0.30084  0.26069  1.0000
  H   H211      1.0  0.52616  0.18102  0.11631  1.0000
  S   S55       1.0  0.56788  0.09361  0.26389  1.0000
  H   H212      1.0  0.51460  0.18002  0.07108  1.0000
  H   H213      1.0  0.67292  0.13781  0.33487  1.0000
  H   H214      1.0  0.67287  0.28988  0.45037  1.0000
  H   H215      1.0  0.65179  0.15491  0.30040  1.0000
  C   C134      1.0  0.71059  0.36734  0.42365  1.0000
  C   C135      1.0  0.73593  0.18466  0.29145  1.0000
  Fe  Fe29      1.0  0.62163  0.44759  0.47055  1.0000
  C   C136      1.0  0.53334  0.02484  0.30672  1.0000
  S   S56       1.0  0.57697  0.38954  0.44228  1.0000
  H   H216      1.0  0.72400  0.11278  0.32037  1.0000
  S   S57       1.0  0.57449  0.46973  0.47962  1.0000
  H   H217      1.0  0.68542  0.36254  0.40494  1.0000
  H   H218      1.0  0.74250  0.34265  0.47544  1.0000
  H   H219      1.0  0.76378  0.19208  0.27484  1.0000
  H   H220      1.0  0.58784  0.03933  0.48070  1.0000
  S   S58       1.0  0.56768  0.29892  0.49719  1.0000
  H   H221      1.0  0.64183  0.42640  0.39339  1.0000
  Fe  Fe30      1.0  0.56148  0.35769  0.49403  1.0000
  H   H222      1.0  0.63326  0.30481  0.44290  1.0000
  C   C137      1.0  0.97408  0.48504  0.41990  1.0000
  C   C138      1.0  0.71466  0.11094  0.29274  1.0000
  H   H223      1.0  0.75336  0.39550  0.48300  1.0000
  C   C139      1.0  0.76161  0.47063  0.37748  1.0000
  H   H224      1.0  0.74664  0.18885  0.31883  1.0000
  C   C140      1.0  0.59530  0.48127  0.38738  1.0000
  S   S59       1.0  0.93914  0.49358  0.39390  1.0000
  S   S60       1.0  0.87653  0.49025  0.31721  1.0000
  H   H225      1.0  0.64979  0.37798  0.45223  1.0000
  C   C141      1.0  0.67496  0.38130  0.47028  1.0000
  H   H226      1.0  0.64762  0.30020  0.48618  1.0000
  Fe  Fe31      1.0  0.89806  0.45324  0.34952  1.0000
  H   H227      1.0  0.55506  0.04589  0.32590  1.0000
  Fe  Fe32      1.0  0.85373  0.37761  0.30106  1.0000
  N   N13       1.0  0.70084  0.14175  0.28482  1.0000
  S   S61       1.0  0.83895  0.31103  0.29049  1.0000
  S   S62       1.0  0.68786  0.48653  0.44859  1.0000
  Fe  Fe33      1.0  0.81396  0.43134  0.31453  1.0000
  S   S63       1.0  0.74792  0.42265  0.31828  1.0000
  S   S64       1.0  0.92066  0.43157  0.30384  1.0000
  S   S65       1.0  0.83334  0.39567  0.35027  1.0000
  Fe  Fe34      1.0  0.52886  0.40928  0.45340  1.0000
  C   C142      1.0  0.73226  0.44118  0.35451  1.0000
  C   C143      1.0  0.72790  0.36199  0.48298  1.0000
  H   H228      1.0  0.71607  0.35352  0.51003  1.0000
  C   C144      1.0  0.70435  0.46853  0.41230  1.0000
  H   H229      1.0  0.68899  0.07826  0.28765  1.0000
  C   C145      1.0  0.68906  0.42576  0.36041  1.0000
  H   H230      1.0  0.69907  0.41526  0.47124  1.0000
  N   N14       1.0  0.69350  0.35527  0.45912  1.0000
  C   C146      1.0  0.74766  0.48460  0.40603  1.0000
  C   C147      1.0  0.67516  0.43885  0.38939  1.0000
  H   H231      1.0  0.73529  0.40104  0.42233  1.0000
  H   H232      1.0  0.66617  0.40313  0.34268  1.0000
  H   H233      1.0  0.72651  0.20871  0.28596  1.0000
  H   H234      1.0  0.95523  0.42306  0.40073  1.0000
  H   H235      1.0  0.79505  0.48301  0.37303  1.0000
  C   C148      1.0  0.97581  0.44780  0.41823  1.0000
  H   H236      1.0  0.00489  0.41327  0.43847  1.0000
  H   H237      1.0  0.66024  0.37197  0.49642  1.0000
  C   C149      1.0  0.53297  0.03999  0.27339  1.0000
  C   C150      1.0  0.66050  0.31053  0.45960  1.0000
  H   H238      1.0  0.72520  0.34866  0.41433  1.0000
  H   H239      1.0  0.00546  0.49808  0.27614  1.0000
  H   H240      1.0  0.61625  0.47419  0.40343  1.0000
  H   H241      1.0  0.74236  0.11655  0.27658  1.0000
  C   C151      1.0  0.56128  0.01638  0.49565  1.0000
  H   H242      1.0  0.57579  0.45341  0.37080  1.0000
  H   H243      1.0  0.63785  0.10088  0.30352  1.0000
  C   C152      1.0  0.66439  0.13355  0.30697  1.0000
  H   H244      1.0  0.00367  0.49075  0.34068  1.0000
  H   H245      1.0  0.57333  0.48467  0.40535  1.0000
  C   C153      1.0  0.00399  0.44235  0.43963  1.0000
  H   H246      1.0  0.54252  0.09077  0.48826  1.0000
  H   H247      1.0  0.54261  0.15834  0.49702  1.0000
  H   H248      1.0  0.96408  0.47193  0.51545  1.0000
  H   H249      1.0  0.62997  0.48648  0.32521  1.0000
  H   H250      1.0  0.58578  0.23418  0.51677  1.0000
  Fe  Fe35      1.0  0.89628  0.46575  0.27156  1.0000
  H   H251      1.0  0.56979  0.50167  0.32954  1.0000
  S   S66       1.0  0.52813  0.18940  0.63428  1.0000
  Fe  Fe36      1.0  0.58356  0.09115  0.60299  1.0000
  H   H252      1.0  0.93174  0.43270  0.54644  1.0000
  S   S67       1.0  0.59072  0.07555  0.54731  1.0000
  Fe  Fe37      1.0  0.63298  0.14556  0.66580  1.0000
  S   S68       1.0  0.57381  0.13327  0.69378  1.0000
  Fe  Fe38      1.0  0.54843  0.06638  0.67601  1.0000
  Fe  Fe39      1.0  0.55331  0.14427  0.64160  1.0000
  H   H253      1.0  0.53398  0.47382  0.74870  1.0000
  S   S69       1.0  0.60942  0.07789  0.65121  1.0000
  S   S70       1.0  0.61348  0.15982  0.61492  1.0000
  C   C154      1.0  0.95583  0.48344  0.60213  1.0000
  C   C155      1.0  0.53788  0.27682  0.56439  1.0000
  C   C156      1.0  0.55800  0.27023  0.53614  1.0000
  C   C157      1.0  0.54041  0.22053  0.59643  1.0000
  C   C158      1.0  0.56137  0.21462  0.56844  1.0000
  N   N15       1.0  0.97820  0.49134  0.56860  1.0000
  H   H254      1.0  0.70732  0.33661  0.67563  1.0000
  H   H255      1.0  0.98799  0.41282  0.68111  1.0000
  H   H256      1.0  0.57050  0.19075  0.56970  1.0000
  H   H257      1.0  0.67160  0.29279  0.62381  1.0000
  S   S71       1.0  0.54021  0.44147  0.58280  1.0000
  H   H258      1.0  0.52840  0.30052  0.56290  1.0000
  H   H259      1.0  0.65636  0.18326  0.74684  1.0000
  C   C159      1.0  0.62267  0.24321  0.69828  1.0000
  C   C160      1.0  0.52722  0.48006  0.59569  1.0000
  H   H260      1.0  0.63878  0.22430  0.70067  1.0000
  H   H261      1.0  0.70701  0.29202  0.69509  1.0000
  C   C161      1.0  0.65357  0.26591  0.64163  1.0000
  H   H262      1.0  0.59059  0.22213  0.68774  1.0000
  C   C162      1.0  0.52894  0.25187  0.59434  1.0000
  H   H263      1.0  0.67150  0.24865  0.64416  1.0000
  C   C163      1.0  0.68820  0.30824  0.69176  1.0000
  H   H264      1.0  0.59147  0.28176  0.65904  1.0000
  C   C164      1.0  0.56998  0.23927  0.53842  1.0000
  H   H265      1.0  0.93040  0.49187  0.60116  1.0000
  C   C165      1.0  0.68757  0.21045  0.74854  1.0000
  H   H266      1.0  0.62296  0.24435  0.62899  1.0000
  H   H267      1.0  0.61692  0.31338  0.69638  1.0000
  H   H268      1.0  0.61870  0.25256  0.72482  1.0000
  N   N16       1.0  0.64685  0.28006  0.67572  1.0000
  S   S72       1.0  0.60910  0.41508  0.52205  1.0000
  S   S73       1.0  0.93852  0.41637  0.73703  1.0000
  C   C166      1.0  0.76875  0.28054  0.75357  1.0000
  C   C167      1.0  0.71497  0.22202  0.72009  1.0000
  C   C168      1.0  0.55566  0.02566  0.52992  1.0000
  C   C169      1.0  0.62284  0.30252  0.67114  1.0000
  H   H269      1.0  0.68450  0.31888  0.71789  1.0000
  H   H270      1.0  0.59463  0.49456  0.70804  1.0000
  C   C170      1.0  0.75558  0.25702  0.72283  1.0000
  S   S74       1.0  0.69966  0.19477  0.68026  1.0000
  C   C171      1.0  0.97898  0.45672  0.71214  1.0000
  H   H271      1.0  0.97781  0.50234  0.62325  1.0000
  H   H272      1.0  0.77705  0.26604  0.70104  1.0000
  H   H273      1.0  0.63996  0.33045  0.65409  1.0000
  Fe  Fe40      1.0  0.55646  0.43027  0.52821  1.0000
  C   C172      1.0  0.94789  0.46702  0.54097  1.0000
  H   H274      1.0  0.51263  0.25664  0.61583  1.0000
  C   C173      1.0  0.99817  0.44564  0.68562  1.0000
  H   H275      1.0  0.80026  0.30728  0.75535  1.0000
  H   H276      1.0  0.94122  0.44983  0.60991  1.0000
  H   H277      1.0  0.99646  0.44445  0.57751  1.0000
  C   C174      1.0  0.99232  0.49914  0.71790  1.0000
  S   S75       1.0  0.52143  0.07617  0.62667  1.0000
  H   H278      1.0  0.92328  0.47636  0.53800  1.0000
  H   H279      1.0  0.53995  0.11550  0.54707  1.0000
  H   H280      1.0  0.55139  0.06216  0.76100  1.0000
  C   C175      1.0  0.53194  0.50113  0.73841  1.0000
  C   C176      1.0  0.01055  0.47833  0.57092  1.0000
  Fe  Fe41      1.0  0.56429  0.43886  0.94364  1.0000
  C   C177      1.0  0.52721  0.02502  0.80765  1.0000
  C   C178      1.0  0.58336  0.07768  0.92030  1.0000
  Fe  Fe42      1.0  0.65449  0.46704  0.96719  1.0000
  S   S76       1.0  0.60310  0.40651  0.94584  1.0000
  H   H281      1.0  0.75338  0.39572  0.92401  1.0000
  H   H282      1.0  0.96618  0.49495  0.97456  1.0000
  H   H283      1.0  0.70909  0.40201  0.93595  1.0000
  H   H284      1.0  0.79525  0.48155  0.94043  1.0000
  H   H285      1.0  0.73652  0.49797  0.82982  1.0000
  C   C179      1.0  0.78500  0.48906  0.85359  1.0000
  Fe  Fe43      1.0  0.58127  0.39083  0.00112  1.0000
  S   S77       1.0  0.83243  0.40307  0.77414  1.0000
  H   H286      1.0  0.58233  0.10754  0.92016  1.0000
  Fe  Fe44      1.0  0.90070  0.42131  0.78213  1.0000
  H   H287      1.0  0.73847  0.39785  0.86200  1.0000
  S   S78       1.0  0.61771  0.50104  0.96069  1.0000
  C   C180      1.0  0.58173  0.07540  0.98288  1.0000
  H   H288      1.0  0.57913  0.10433  0.98524  1.0000
  C   C181      1.0  0.80098  0.48396  0.88488  1.0000
  C   C182      1.0  0.74905  0.49388  0.85395  1.0000
  H   H289      1.0  0.70119  0.49653  0.88569  1.0000
  C   C183      1.0  0.98792  0.48986  0.95893  1.0000
  N   N17       1.0  0.56145  0.05183  0.95095  1.0000
  H   H290      1.0  0.69468  0.40505  0.87338  1.0000
  C   C184      1.0  0.74159  0.26891  0.78210  1.0000
  C   C185      1.0  0.71876  0.37838  0.92908  1.0000
  H   H291      1.0  0.71309  0.35839  0.95235  1.0000
  H   H292      1.0  0.61580  0.08480  0.98373  1.0000
  Fe  Fe45      1.0  0.89569  0.42752  0.86057  1.0000
  C   C186      1.0  0.70835  0.32168  0.89104  1.0000
  Fe  Fe46      1.0  0.81942  0.35956  0.81882  1.0000
  H   H293      1.0  0.56837  0.06066  0.89584  1.0000
  S   S79       1.0  0.75781  0.29773  0.82116  1.0000
  C   C187      1.0  0.70420  0.38093  0.86848  1.0000
  Fe  Fe47      1.0  0.84367  0.45175  0.81443  1.0000
  S   S80       1.0  0.53737  0.41765  0.99717  1.0000
  S   S81       1.0  0.88686  0.37457  0.82542  1.0000
  S   S82       1.0  0.82666  0.40715  0.85845  1.0000
  C   C188      1.0  0.70094  0.23378  0.77949  1.0000
  C   C189      1.0  0.97422  0.46828  0.92734  1.0000
  H   H294      1.0  0.74280  0.33694  0.88535  1.0000
  H   H295      1.0  0.56679  0.05605  0.00634  1.0000
  H   H296      1.0  0.64150  0.31076  0.92952  1.0000
  S   S83       1.0  0.51844  0.42864  0.89990  1.0000
  H   H297      1.0  0.69185  0.30252  0.86785  1.0000
  H   H298      1.0  0.67985  0.22443  0.80153  1.0000
  H   H299      1.0  0.68718  0.36294  0.84504  1.0000
  C   C190      1.0  0.64943  0.33154  0.90645  1.0000
  H   H300      1.0  0.61708  0.08574  0.91951  1.0000
  H   H301      1.0  0.82837  0.48006  0.88493  1.0000
  N   N18       1.0  0.69518  0.35310  0.89876  1.0000
  S   S84       1.0  0.92083  0.44749  0.91530  1.0000
  H   H302      1.0  0.63057  0.31192  0.88425  1.0000
  C   C191      1.0  0.78208  0.48473  0.91630  1.0000
  S   S85       1.0  0.91358  0.47520  0.81787  1.0000
  H   H303      1.0  0.63856  0.35453  0.91212  1.0000
  S   S86       1.0  0.81000  0.48973  0.81417  1.0000
  C   C192      1.0  0.56394  0.01278  0.95009  1.0000
  H   H304      1.0  0.70176  0.29980  0.91310  1.0000
  H   H305      1.0  0.59711  0.01928  0.95165  1.0000
  C   C193      1.0  0.52983  0.03156  0.77163  1.0000
  C   C194      1.0  0.74578  0.48874  0.91678  1.0000
  H   H306      1.0  0.96530  0.42193  0.00423  1.0000
  C   C195      1.0  0.00264  0.46237  0.90702  1.0000
  C   C196      1.0  0.72896  0.49297  0.88550  1.0000
  H   H307      1.0  0.52958  0.49544  0.99506  1.0000
  Fe  Fe48      1.0  0.59308  0.47838  0.01463  1.0000
  S   S87       1.0  0.72371  0.48930  0.95726  1.0000
  C   C197      1.0  0.52021  0.46937  0.87408  1.0000
  H   H308      1.0  0.99244  0.44578  0.88265  1.0000
  H   H309      1.0  0.54691  0.05083  0.82462  1.0000
  C   C198      1.0  0.51326  0.50043  0.97283  1.0000
  C   C199      1.0  0.51669  0.04133  0.95041  1.0000
  H   H310      1.0  0.51355  0.07002  0.95119  1.0000
  H   H311      1.0  0.52183  0.48882  0.94926  1.0000
  S   S88       1.0  0.56619  0.32469  0.01588  1.0000
  C   C200      1.0  0.56025  0.55386  0.10248  1.0000
  C   C201      1.0  0.54072  0.85341  0.23498  1.0000
  S   S89       1.0  0.59099  0.52856  0.04812  1.0000
  C   C202      1.0  0.51708  0.95890  0.03854  1.0000
  H   H312      1.0  0.57025  0.97062  0.07040  1.0000
  C   C203      1.0  0.54818  0.98112  0.06356  1.0000
  H   H313      1.0  0.53688  0.57481  0.14534  1.0000
  H   H314      1.0  0.53281  0.55664  0.02422  1.0000
  S   S90       1.0  0.51801  0.59164  0.25158  1.0000
  H   H315      1.0  0.51340  0.90940  0.22637  1.0000
  H   H316      1.0  0.99652  0.56956  0.18074  1.0000
  H   H317      1.0  0.54154  0.82712  0.24886  1.0000
  C   C204      1.0  0.55735  0.51933  0.08416  1.0000
  C   C205      1.0  0.53401  0.54798  0.13124  1.0000
  H   H318      1.0  0.58330  0.58538  0.09466  1.0000
  S   S91       1.0  0.53887  0.70709  0.23325  1.0000
  C   C206      1.0  0.54404  0.92092  0.24008  1.0000
  H   H319      1.0  0.56974  0.93515  0.22046  1.0000
  H   H320      1.0  0.56659  0.86573  0.21544  1.0000
  C   C207      1.0  0.99887  0.54124  0.18124  1.0000
  S   S92       1.0  0.93687  0.51410  0.23113  1.0000
  N   N19       1.0  0.54526  0.88663  0.25928  1.0000
  C   C208      1.0  0.97251  0.50819  0.20355  1.0000
  H   H321      1.0  0.54733  0.94636  0.25787  1.0000
  H   H322      1.0  0.61309  0.91713  0.25981  1.0000
  C   C209      1.0  0.64523  0.55526  0.39015  1.0000
  H   H323      1.0  0.60784  0.77002  0.27191  1.0000
  H   H324      1.0  0.62474  0.56043  0.40869  1.0000
  H   H325      1.0  0.61180  0.81571  0.32064  1.0000
  C   C210      1.0  0.53283  0.97746  0.48062  1.0000
  H   H326      1.0  0.58983  0.92789  0.29695  1.0000
  H   H327      1.0  0.58736  0.87805  0.29286  1.0000
  H   H328      1.0  0.66426  0.58498  0.37552  1.0000
  H   H329      1.0  0.67095  0.50751  0.35724  1.0000
  H   H330      1.0  0.60775  0.55689  0.33005  1.0000
  H   H331      1.0  0.66744  0.54932  0.40583  1.0000
  C   C211      1.0  0.57912  0.76747  0.28251  1.0000
  C   C212      1.0  0.59051  0.52853  0.34663  1.0000
  C   C213      1.0  0.00112  0.51691  0.44274  1.0000
  C   C214      1.0  0.54461  0.79102  0.32381  1.0000
  N   N20       1.0  0.61981  0.51973  0.36666  1.0000
  C   C215      1.0  0.58133  0.79344  0.31006  1.0000
  S   S93       1.0  0.54978  0.82540  0.35803  1.0000
  H   H332      1.0  0.77057  0.50779  0.42343  1.0000
  H   H333      1.0  0.51289  0.89267  0.30356  1.0000
  H   H334      1.0  0.66682  0.54192  0.32639  1.0000
  H   H335      1.0  0.53752  0.97048  0.45429  1.0000
  H   H336      1.0  0.56929  0.53407  0.36398  1.0000
  H   H337      1.0  0.96708  0.52382  0.31206  1.0000
  C   C216      1.0  0.58576  0.90328  0.27795  1.0000
  H   H338      1.0  0.99481  0.56868  0.33925  1.0000
  C   C217      1.0  0.99658  0.55447  0.31422  1.0000
  H   H339      1.0  0.99617  0.57447  0.29269  1.0000
  H   H340      1.0  0.00021  0.54597  0.44394  1.0000
  C   C218      1.0  0.64813  0.51366  0.34278  1.0000
  C   C219      1.0  0.54006  0.73776  0.26899  1.0000
  H   H341      1.0  0.63423  0.57492  0.75265  1.0000
  C   C220      1.0  0.60221  0.54860  0.75900  1.0000
  H   H342      1.0  0.55559  0.52075  0.55189  1.0000
  H   H343      1.0  0.60077  0.59898  0.70855  1.0000
  C   C221      1.0  0.99888  0.53665  0.56040  1.0000
  H   H344      1.0  0.58081  0.92979  0.73878  1.0000
  N   N21       1.0  0.57397  0.53607  0.72862  1.0000
  C   C222      1.0  0.53927  0.51646  0.57628  1.0000
  H   H345      1.0  0.55747  0.58400  0.73790  1.0000
  H   H346      1.0  0.54792  0.56390  0.69452  1.0000
  C   C223      1.0  0.58496  0.91104  0.75957  1.0000
  H   H347      1.0  0.51664  0.00268  0.57546  1.0000
  C   C224      1.0  0.56986  0.57228  0.71685  1.0000
  C   C225      1.0  0.52127  0.99588  0.54906  1.0000
  C   C226      1.0  0.53145  0.54804  0.58907  1.0000
  H   H348      1.0  0.62380  0.54780  0.69260  1.0000
  H   H349      1.0  0.54164  0.57651  0.57422  1.0000
  C   C227      1.0  0.51124  0.54332  0.62112  1.0000
  H   H350      1.0  0.97556  0.54784  0.55882  1.0000
  H   H351      1.0  0.97775  0.50801  0.73822  1.0000
  C   C228      1.0  0.59185  0.52237  0.70034  1.0000
  H   H352      1.0  0.57172  0.51352  0.67678  1.0000
  H   H353      1.0  0.57765  0.88022  0.74817  1.0000
  H   H354      1.0  0.61891  0.92773  0.76694  1.0000
  H   H355      1.0  0.51697  0.51092  0.75885  1.0000
  H   H356      1.0  0.55014  0.99493  0.92588  1.0000
  H   H357      1.0  0.88024  0.56930  0.87526  1.0000
  C   C229      1.0  0.55507  0.50989  0.87453  1.0000
  C   C230      1.0  0.95041  0.61068  0.91443  1.0000
  H   H358      1.0  0.89303  0.53172  0.85780  1.0000
  H   H359      1.0  0.98582  0.56093  0.91419  1.0000
  C   C231      1.0  0.90468  0.53721  0.92690  1.0000
  H   H360      1.0  0.54633  0.99160  0.97201  1.0000
  N   N22       1.0  0.55750  0.90549  0.78966  1.0000
  N   N23       1.0  0.93217  0.56764  0.90042  1.0000
  H   H361      1.0  0.58223  0.57305  0.85471  1.0000
  H   H362      1.0  0.57991  0.56046  0.93821  1.0000
  H   H363      1.0  0.97135  0.63451  0.89512  1.0000
  H   H364      1.0  0.58962  0.55935  0.78068  1.0000
  H   H365      1.0  0.56256  0.96631  0.78423  1.0000
  C   C232      1.0  0.55512  0.54175  0.85416  1.0000
  H   H366      1.0  0.92524  0.61818  0.92170  1.0000
  C   C233      1.0  0.56408  0.88078  0.81671  1.0000
  C   C234      1.0  0.90700  0.56371  0.86924  1.0000
  H   H367      1.0  0.52336  0.59313  0.00034  1.0000
  S   S94       1.0  0.52081  0.90558  0.91880  1.0000
  H   H368      1.0  0.54828  0.94400  0.82684  1.0000
  H   H369      1.0  0.95388  0.52680  0.88043  1.0000
  S   S95       1.0  0.52266  0.57478  0.80786  1.0000
  H   H370      1.0  0.58213  0.51652  0.89030  1.0000
  H   H371      1.0  0.55658  0.84916  0.80705  1.0000
  H   H372      1.0  0.60162  0.96526  0.81182  1.0000
  H   H373      1.0  0.98813  0.58138  0.87137  1.0000
  H   H374      1.0  0.59731  0.89678  0.82595  1.0000
  H   H375      1.0  0.92271  0.53879  0.95060  1.0000
  H   H376      1.0  0.92655  0.58631  0.84871  1.0000
  C   C235      1.0  0.52049  0.53341  0.83302  1.0000
  H   H377      1.0  0.96960  0.61470  0.93798  1.0000
  H   H378      1.0  0.58126  0.60443  0.96004  1.0000
  H   H379      1.0  0.87835  0.54276  0.93461  1.0000
  C   C236      1.0  0.96657  0.55898  0.89119  1.0000
  H   H380      1.0  0.52018  0.73224  0.85736  1.0000
  H   H381      1.0  0.58979  0.56725  0.98382  1.0000
  C   C237      1.0  0.56800  0.94708  0.80374  1.0000
  H   H382      1.0  0.54356  0.87575  0.83969  1.0000
  C   C238      1.0  0.57102  0.57047  0.96253  1.0000
  S   S96       1.0  0.51577  0.91536  0.01753  1.0000
  N   N24       1.0  0.52519  0.54513  0.96943  1.0000
  C   C239      1.0  0.51500  0.55956  0.00197  1.0000
  H   H383      1.0  0.60573  0.52197  0.76893  1.0000
  C   C240      1.0  0.51288  0.88308  0.77859  1.0000
  H   H384      1.0  0.89031  0.50443  0.91715  1.0000
