data_image0
_chemical_formula_structural       H2SFeNSFeH4CH2C2H2S3C2H3CHSCHNSFeHSH4CS2C6H4C2FeC2H5CHFeCSHCFeS2FeSCFeS2H3SCHC2HCHSCHNSCHCH4CH2CH14SCFeHNH4NHC2H2CHC2H2CHCH3FeS2FeSFeS3HC6H4CHS2NC3H4CH2FeH3CFeS2FeSFe2S3C2NHCNH2C2H3FeH2C4HSH3CH4CHCHCH4CHSHC2HFeSHCSC5H4CH2CSFeNCHFeCSFeH2SH2C4H3CHNC2H2SH2CHCHCSHCH8SHSHSFeCFeSHCHC2H4C5H2NCHC2H2CHSH2SFeH2CFeHC2H7CH2SCNH2CH4CH4CHCHSCH3CFeH2CSCHFeHC3HCSCH3SCH5NHCH3CSFeHS2CHFeSCHCSHCHSHSH2C6SH3NHC3HCH3CH2FeHFeHCHFeC2H4C2NCHC2HC2HCSH7CHCHNH3CHSH2CH4CH3SH3C4FeSH3CHC3H2SHCHCHC4HSH4CH2CNCH5CH3S2H2CFeSH2FeS2HC2HCSCHC2HFeNH6C2SH2SH3CSH2CH4NFeCHC3HCFeHSHSFeS2C6H4CHCH2CH2CHNCH2CSH4CFeHC2HC2H5SNH4CHCHCH4C2H2CHCHFeSH2FeSFeHCSNCNSC3H2FeC2HC2S2HCH3SCH2SCFeHSH3S2C6H6CHS2C2HFeCHCH2FeHC2H2CH4CHC2NH
_chemical_formula_sum              "H384 S96 Fe48 N24 C240"
_cell_length_a       33.904
_cell_length_b       33.6531
_cell_length_c       39.8376
_cell_angle_alpha    90.0114
_cell_angle_beta     90.1341
_cell_angle_gamma    119.68

_space_group_name_H-M_alt    "P 1"
_space_group_IT_number       1

loop_
  _space_group_symop_operation_xyz
  'x, y, z'

loop_
  _atom_site_type_symbol
  _atom_site_label
  _atom_site_symmetry_multiplicity
  _atom_site_fract_x
  _atom_site_fract_y
  _atom_site_fract_z
  _atom_site_occupancy
  H   H1        1.0  0.20423  0.03761  0.24078  1.0000
  H   H2        1.0  0.28075  0.43505  0.23871  1.0000
  S   S1        1.0  0.46286  0.03836  0.16416  1.0000
  Fe  Fe1       1.0  0.39764  0.08184  0.26288  1.0000
  N   N1        1.0  0.50565  0.38976  0.25115  1.0000
  S   S2        1.0  0.47078  0.10377  0.25292  1.0000
  Fe  Fe2       1.0  0.44453  0.04300  0.21812  1.0000
  H   H3        1.0  0.28083  0.48516  0.25423  1.0000
  H   H4        1.0  0.43737  0.37397  0.23925  1.0000
  H   H5        1.0  0.49882  0.33307  0.22183  1.0000
  H   H6        1.0  0.29669  0.05177  0.21755  1.0000
  C   C1        1.0  0.26153  0.44708  0.25440  1.0000
  H   H7        1.0  0.50619  0.44691  0.22653  1.0000
  H   H8        1.0  0.44160  0.32969  0.26191  1.0000
  C   C2        1.0  0.45671  0.36738  0.25901  1.0000
  C   C3        1.0  0.51213  0.37059  0.21962  1.0000
  H   H9        1.0  0.22827  0.43598  0.24189  1.0000
  H   H10       1.0  0.49936  0.03831  0.09965  1.0000
  S   S3        1.0  0.42904  0.46550  0.25813  1.0000
  S   S4        1.0  0.37175  0.02552  0.22435  1.0000
  S   S5        1.0  0.11457  0.48765  0.03531  1.0000
  C   C4        1.0  0.22641  0.03211  0.25859  1.0000
  C   C5        1.0  0.51945  0.06315  0.15020  1.0000
  H   H11       1.0  0.49405  0.37608  0.19830  1.0000
  H   H12       1.0  0.51876  0.45487  0.27048  1.0000
  H   H13       1.0  0.46486  0.50385  0.19337  1.0000
  C   C6        1.0  0.52373  0.43949  0.24723  1.0000
  H   H14       1.0  0.25681  0.06617  0.26372  1.0000
  S   S6        1.0  0.36254  0.12437  0.26909  1.0000
  C   C7        1.0  0.48092  0.51356  0.24620  1.0000
  H   H15       1.0  0.24442  0.02406  0.19417  1.0000
  N   N2        1.0  0.25546  0.42902  0.28895  1.0000
  S   S7        1.0  0.26868  0.34998  0.36995  1.0000
  Fe  Fe3       1.0  0.08810  0.42141  0.42777  1.0000
  H   H16       1.0  0.17216  0.51632  0.48547  1.0000
  S   S8        1.0  0.16466  0.45125  0.42409  1.0000
  H   H17       1.0  0.43343  0.07485  0.37012  1.0000
  H   H18       1.0  0.29706  0.43154  0.33041  1.0000
  H   H19       1.0  0.14558  0.41854  0.49803  1.0000
  H   H20       1.0  0.06492  0.51179  0.35867  1.0000
  C   C8        1.0  0.48744  0.16354  0.35447  1.0000
  S   S9        1.0  0.06608  0.47403  0.43613  1.0000
  S   S10       1.0  0.51256  0.08007  0.33627  1.0000
  C   C9        1.0  0.24037  0.37795  0.38660  1.0000
  C   C10       1.0  0.26421  0.42314  0.39811  1.0000
  C   C11       1.0  0.24045  0.44495  0.40961  1.0000
  C   C12       1.0  0.19271  0.42188  0.40980  1.0000
  C   C13       1.0  0.16885  0.37664  0.39843  1.0000
  C   C14       1.0  0.19263  0.35483  0.38689  1.0000
  H   H21       1.0  0.30094  0.44131  0.39814  1.0000
  H   H22       1.0  0.25921  0.47996  0.41836  1.0000
  H   H23       1.0  0.13212  0.35847  0.39850  1.0000
  H   H24       1.0  0.17390  0.31984  0.37808  1.0000
  C   C15       1.0  0.44632  0.09926  0.39156  1.0000
  C   C16       1.0  0.47049  0.17592  0.41097  1.0000
  Fe  Fe4       1.0  0.46222  0.05269  0.29308  1.0000
  C   C17       1.0  0.30046  0.44451  0.30433  1.0000
  C   C18       1.0  0.50560  0.51068  0.46016  1.0000
  H   H25       1.0  0.22477  0.43265  0.33522  1.0000
  H   H26       1.0  0.49506  0.19849  0.34720  1.0000
  H   H27       1.0  0.42143  0.08411  0.41236  1.0000
  H   H28       1.0  0.44582  0.16286  0.43207  1.0000
  H   H29       1.0  0.24848  0.36434  0.27407  1.0000
  C   C19       1.0  0.36236  0.19959  0.29617  1.0000
  H   H30       1.0  0.52546  0.39554  0.30304  1.0000
  Fe  Fe5       1.0  0.34532  0.38454  0.36320  1.0000
  C   C20       1.0  0.42790  0.26540  0.32087  1.0000
  S   S11       1.0  0.05014  0.37802  0.47199  1.0000
  H   H31       1.0  0.24889  0.48401  0.31080  1.0000
  C   C21       1.0  0.38177  0.24243  0.31247  1.0000
  Fe  Fe6       1.0  0.42369  0.36487  0.35129  1.0000
  S   S12       1.0  0.37088  0.36497  0.31752  1.0000
  S   S13       1.0  0.45360  0.31784  0.34335  1.0000
  Fe  Fe7       1.0  0.44044  0.45278  0.38701  1.0000
  S   S14       1.0  0.38971  0.45965  0.35435  1.0000
  C   C22       1.0  0.52297  0.48080  0.46281  1.0000
  Fe  Fe8       1.0  0.41969  0.44004  0.31171  1.0000
  S   S15       1.0  0.39427  0.37803  0.39821  1.0000
  S   S16       1.0  0.47422  0.43962  0.34321  1.0000
  H   H32       1.0  0.32648  0.18173  0.29031  1.0000
  H   H33       1.0  0.38335  0.12480  0.38938  1.0000
  H   H34       1.0  0.39758  0.11885  0.34693  1.0000
  S   S17       1.0  0.03126  0.37982  0.39163  1.0000
  C   C23       1.0  0.43526  0.20309  0.29540  1.0000
  H   H35       1.0  0.36081  0.25716  0.31917  1.0000
  C   C24       1.0  0.14646  0.49801  0.50541  1.0000
  C   C25       1.0  0.23022  0.44601  0.30907  1.0000
  H   H36       1.0  0.32099  0.48248  0.30551  1.0000
  C   C26       1.0  0.45459  0.24573  0.31194  1.0000
  H   H37       1.0  0.49042  0.26353  0.31796  1.0000
  S   S18       1.0  0.47403  0.51068  0.42489  1.0000
  C   C27       1.0  0.41024  0.14050  0.36994  1.0000
  H   H38       1.0  0.41411  0.17447  0.36357  1.0000
  N   N3        1.0  0.45359  0.14478  0.38174  1.0000
  S   S19       1.0  0.39040  0.03443  0.30483  1.0000
  C   C28       1.0  0.38885  0.17942  0.28795  1.0000
  H   H39       1.0  0.47527  0.14158  0.33160  1.0000
  C   C29       1.0  0.04758  0.51652  0.33753  1.0000
  H   H40       1.0  0.47860  0.10102  0.39983  1.0000
  H   H41       1.0  0.11511  0.47203  0.49270  1.0000
  H   H42       1.0  0.20246  0.46435  0.49387  1.0000
  H   H43       1.0  0.22385  0.36380  0.31383  1.0000
  C   C30       1.0  0.22976  0.37846  0.28807  1.0000
  H   H44       1.0  0.32047  0.43206  0.29004  1.0000
  H   H45       1.0  0.45618  0.18841  0.28851  1.0000
  C   C31       1.0  0.17484  0.44542  0.51243  1.0000
  H   H46       1.0  0.47636  0.21064  0.40439  1.0000
  H   H47       1.0  0.51653  0.34430  0.28283  1.0000
  H   H48       1.0  0.51513  0.45513  0.44365  1.0000
  H   H49       1.0  0.29968  0.02666  0.27572  1.0000
  H   H50       1.0  0.50324  0.17990  0.42035  1.0000
  H   H51       1.0  0.45099  0.38050  0.28298  1.0000
  H   H52       1.0  0.19612  0.43519  0.29816  1.0000
  H   H53       1.0  0.52004  0.16548  0.36198  1.0000
  H   H54       1.0  0.19590  0.36543  0.27607  1.0000
  H   H55       1.0  0.20767  0.01942  0.28264  1.0000
  H   H56       1.0  0.51328  0.08725  0.67469  1.0000
  H   H57       1.0  0.21556  0.49691  0.56676  1.0000
  H   H58       1.0  0.50694  0.43593  0.60999  1.0000
  H   H59       1.0  0.46400  0.48899  0.67131  1.0000
  S   S20       1.0  0.43983  0.05534  0.72881  1.0000
  C   C32       1.0  0.49513  0.44403  0.63379  1.0000
  Fe  Fe9       1.0  0.48953  0.03536  0.74837  1.0000
  H   H60       1.0  0.11426  0.47171  0.56727  1.0000
  N   N4        1.0  0.51729  0.49395  0.63921  1.0000
  H   H61       1.0  0.52360  0.11556  0.63499  1.0000
  H   H62       1.0  0.45758  0.42837  0.63225  1.0000
  H   H63       1.0  0.18650  0.42787  0.53020  1.0000
  H   H64       1.0  0.50298  0.42699  0.65467  1.0000
  N   N5        1.0  0.16236  0.47628  0.53009  1.0000
  H   H65       1.0  0.51430  0.15980  0.71841  1.0000
  C   C33       1.0  0.04228  0.50179  0.55062  1.0000
  C   C34       1.0  0.50145  0.50360  0.67114  1.0000
  H   H66       1.0  0.51862  0.50959  0.58671  1.0000
  H   H67       1.0  0.46888  0.50143  0.60873  1.0000
  C   C35       1.0  0.51765  0.11862  0.66210  1.0000
  H   H68       1.0  0.48478  0.11830  0.66452  1.0000
  C   C36       1.0  0.50613  0.51537  0.61109  1.0000
  C   C37       1.0  0.12564  0.44973  0.55436  1.0000
  H   H69       1.0  0.09509  0.42196  0.54162  1.0000
  H   H70       1.0  0.13649  0.43352  0.57390  1.0000
  C   C38       1.0  0.03498  0.50537  0.58491  1.0000
  H   H71       1.0  0.51072  0.48922  0.69304  1.0000
  C   C39       1.0  0.20241  0.51208  0.54806  1.0000
  H   H72       1.0  0.52647  0.20245  0.66515  1.0000
  H   H73       1.0  0.29825  0.24661  0.81645  1.0000
  H   H74       1.0  0.27154  0.33966  0.80043  1.0000
  Fe  Fe10      1.0  0.12727  0.40211  0.93592  1.0000
  S   S21       1.0  0.07520  0.39361  0.89689  1.0000
  S   S22       1.0  0.17280  0.36993  0.93446  1.0000
  Fe  Fe11      1.0  0.10123  0.45825  0.98249  1.0000
  S   S23       1.0  0.47576  0.17120  0.77813  1.0000
  Fe  Fe12      1.0  0.10000  0.46833  0.90614  1.0000
  S   S24       1.0  0.04906  0.45587  0.94662  1.0000
  S   S25       1.0  0.07769  0.38317  0.97869  1.0000
  S   S26       1.0  0.15470  0.47737  0.94285  1.0000
  H   H75       1.0  0.21305  0.25706  0.80782  1.0000
  C   C40       1.0  0.31138  0.43521  0.88164  1.0000
  C   C41       1.0  0.28226  0.45326  0.87690  1.0000
  C   C42       1.0  0.24011  0.43419  0.89341  1.0000
  C   C43       1.0  0.22651  0.39654  0.91461  1.0000
  C   C44       1.0  0.25591  0.37877  0.91963  1.0000
  C   C45       1.0  0.29838  0.39830  0.90350  1.0000
  H   H76       1.0  0.29215  0.48201  0.86019  1.0000
  H   H77       1.0  0.21777  0.44815  0.88932  1.0000
  H   H78       1.0  0.24567  0.34980  0.93617  1.0000
  H   H79       1.0  0.32080  0.38457  0.90777  1.0000
  C   C46       1.0  0.22736  0.25850  0.83325  1.0000
  H   H80       1.0  0.46359  0.18990  0.90684  1.0000
  S   S27       1.0  0.36370  0.46004  0.85991  1.0000
  S   S28       1.0  0.52312  0.44830  0.95520  1.0000
  N   N6        1.0  0.27623  0.29268  0.83474  1.0000
  C   C47       1.0  0.30130  0.28036  0.81039  1.0000
  C   C48       1.0  0.29357  0.29344  0.86893  1.0000
  C   C49       1.0  0.03915  0.49716  0.83577  1.0000
  H   H81       1.0  0.28883  0.27870  0.78431  1.0000
  H   H82       1.0  0.26304  0.34815  0.84365  1.0000
  H   H83       1.0  0.20757  0.26684  0.85146  1.0000
  H   H84       1.0  0.22131  0.22364  0.83940  1.0000
  C   C50       1.0  0.28273  0.33839  0.82648  1.0000
  H   H85       1.0  0.43800  0.07777  0.87191  1.0000
  H   H86       1.0  0.31906  0.36543  0.82867  1.0000
  Fe  Fe13      1.0  0.41455  0.43472  0.86232  1.0000
  H   H87       1.0  0.34110  0.44511  0.96887  1.0000
  H   H88       1.0  0.35744  0.50621  0.92799  1.0000
  H   H89       1.0  0.35513  0.17853  0.84268  1.0000
  C   C51       1.0  0.52445  0.14812  0.86762  1.0000
  Fe  Fe14      1.0  0.42833  0.35172  0.85931  1.0000
  S   S29       1.0  0.42312  0.39610  0.81947  1.0000
  S   S30       1.0  0.38783  0.27420  0.85519  1.0000
  Fe  Fe15      1.0  0.48922  0.43421  0.90401  1.0000
  S   S31       1.0  0.48958  0.48497  0.86715  1.0000
  Fe  Fe16      1.0  0.02806  0.38132  0.94059  1.0000
  Fe  Fe17      1.0  0.49809  0.44195  0.82755  1.0000
  S   S32       1.0  0.39588  0.03601  0.80462  1.0000
  S   S33       1.0  0.41379  0.38688  0.90166  1.0000
  S   S34       1.0  0.50365  0.39473  0.86503  1.0000
  C   C52       1.0  0.44320  0.11310  0.87296  1.0000
  C   C53       1.0  0.48978  0.12816  0.92236  1.0000
  N   N7        1.0  0.48722  0.14513  0.88864  1.0000
  H   H90       1.0  0.47403  0.30685  0.82069  1.0000
  C   C54       1.0  0.45527  0.26990  0.81914  1.0000
  N   N8        1.0  0.40454  0.50806  0.96509  1.0000
  H   H91       1.0  0.41422  0.11153  0.88711  1.0000
  H   H92       1.0  0.48951  0.20438  0.86622  1.0000
  C   C55       1.0  0.47392  0.24648  0.80207  1.0000
  C   C56       1.0  0.42487  0.48866  0.94220  1.0000
  H   H93       1.0  0.33026  0.31909  0.87092  1.0000
  H   H94       1.0  0.44129  0.12340  0.84677  1.0000
  H   H95       1.0  0.27516  0.30206  0.88811  1.0000
  Fe  Fe18      1.0  0.45142  0.09498  0.77670  1.0000
  H   H96       1.0  0.38799  0.13725  0.81213  1.0000
  H   H97       1.0  0.29028  0.25982  0.87574  1.0000
  C   C57       1.0  0.41240  0.24559  0.83390  1.0000
  C   C58       1.0  0.38842  0.19760  0.83147  1.0000
  C   C59       1.0  0.40708  0.17412  0.81431  1.0000
  C   C60       1.0  0.45003  0.19857  0.79957  1.0000
  H   H98       1.0  0.39875  0.46232  0.92548  1.0000
  S   S35       1.0  0.50555  0.07998  0.79383  1.0000
  H   H99       1.0  0.33825  0.30575  0.81071  1.0000
  H   H100      1.0  0.46204  0.12520  0.93889  1.0000
  H   H101      1.0  0.50709  0.26573  0.79069  1.0000
  C   C61       1.0  0.49138  0.19088  0.89138  1.0000
  H   H102      1.0  0.44146  0.47218  0.95622  1.0000
  H   H103      1.0  0.48664  0.09358  0.92086  1.0000
  H   H104      1.0  0.45099  0.51545  0.92576  1.0000
  H   H105      1.0  0.35265  0.48425  0.00294  1.0000
  C   C62       1.0  0.36865  0.47088  0.98521  1.0000
  H   H106      1.0  0.38252  0.45260  0.00019  1.0000
  C   C63       1.0  0.51405  0.02749  0.89099  1.0000
  H   H107      1.0  0.52424  0.21604  0.90306  1.0000
  C   C64       1.0  0.51925  0.02292  0.92555  1.0000
  H   H108      1.0  0.52180  0.11399  0.86477  1.0000
  H   H109      1.0  0.52365  0.16094  0.84196  1.0000
  H   H110      1.0  0.52273  0.15123  0.93490  1.0000
  H   H111      1.0  0.22446  0.74637  0.05074  1.0000
  C   C65       1.0  0.07610  0.55816  0.09715  1.0000
  H   H112      1.0  0.18316  0.73070  0.13881  1.0000
  S   S36       1.0  0.10088  0.66136  0.17382  1.0000
  H   H113      1.0  0.20352  0.78585  0.05517  1.0000
  C   C66       1.0  0.19324  0.74887  0.05453  1.0000
  C   C67       1.0  0.26901  0.99357  0.26934  1.0000
  H   H114      1.0  0.17101  0.73345  0.03216  1.0000
  Fe  Fe19      1.0  0.09238  0.72274  0.18123  1.0000
  S   S37       1.0  0.15170  0.79368  0.17006  1.0000
  H   H115      1.0  0.10409  0.71322  0.06848  1.0000
  C   C68       1.0  0.26607  0.87734  0.24592  1.0000
  S   S38       1.0  0.44126  0.99346  0.25755  1.0000
  C   C69       1.0  0.19369  0.80910  0.23236  1.0000
  C   C70       1.0  0.19537  0.82508  0.19970  1.0000
  C   C71       1.0  0.23257  0.86730  0.19025  1.0000
  C   C72       1.0  0.26786  0.89326  0.21318  1.0000
  C   C73       1.0  0.26517  0.01836  0.21321  1.0000
  H   H116      1.0  0.23152  0.74475  0.11286  1.0000
  H   H117      1.0  0.23427  0.87985  0.16500  1.0000
  H   H118      1.0  0.29657  0.92536  0.20546  1.0000
  H   H119      1.0  0.13678  0.76609  0.09150  1.0000
  C   C74       1.0  0.06623  0.53356  0.02901  1.0000
  H   H120      1.0  0.11004  0.71263  0.11290  1.0000
  H   H121      1.0  0.21017  0.78401  0.11718  1.0000
  C   C75       1.0  0.12841  0.72972  0.08962  1.0000
  S   S39       1.0  0.08206  0.60475  0.25951  1.0000
  Fe  Fe20      1.0  0.36974  0.97955  0.26557  1.0000
  N   N9        1.0  0.16957  0.72560  0.08571  1.0000
  C   C76       1.0  0.05237  0.57196  0.07580  1.0000
  H   H122      1.0  0.18646  0.67193  0.08105  1.0000
  Fe  Fe21      1.0  0.03673  0.63222  0.14361  1.0000
  C   C77       1.0  0.20006  0.74717  0.11479  1.0000
  S   S40       1.0  0.05072  0.69557  0.22796  1.0000
  Fe  Fe22      1.0  0.05502  0.63180  0.21851  1.0000
  H   H123      1.0  0.08005  0.56753  0.12344  1.0000
  H   H124      1.0  0.20819  0.92983  0.22801  1.0000
  S   S41       1.0  0.03072  0.69569  0.14786  1.0000
  H   H125      1.0  0.28096  0.97069  0.25919  1.0000
  H   H126      1.0  0.16534  0.77662  0.23995  1.0000
  C   C78       1.0  0.22881  0.83520  0.25535  1.0000
  C   C79       1.0  0.49001  0.52445  0.21201  1.0000
  C   C80       1.0  0.15643  0.67669  0.08386  1.0000
  C   C81       1.0  0.04739  0.55946  0.04176  1.0000
  H   H127      1.0  0.27550  0.99459  0.20195  1.0000
  H   H128      1.0  0.13315  0.65931  0.06231  1.0000
  H   H129      1.0  0.13805  0.65802  0.10687  1.0000
  C   C82       1.0  0.51366  0.54028  0.27010  1.0000
  H   H130      1.0  0.17623  0.95814  0.21930  1.0000
  N   N10       1.0  0.23981  0.99976  0.24479  1.0000
  C   C83       1.0  0.19894  0.95506  0.23805  1.0000
  C   C84       1.0  0.09508  0.53237  0.08437  1.0000
  H   H131      1.0  0.52367  0.94409  0.15647  1.0000
  H   H132      1.0  0.52100  0.92800  0.09567  1.0000
  S   S42       1.0  0.02999  0.60637  0.09012  1.0000
  H   H133      1.0  0.17895  0.93999  0.26132  1.0000
  H   H134      1.0  0.02917  0.57019  0.02510  1.0000
  C   C85       1.0  0.09031  0.52007  0.05027  1.0000
  H   H135      1.0  0.11361  0.52193  0.10095  1.0000
  C   C86       1.0  0.07200  0.55166  0.31428  1.0000
  H   H136      1.0  0.07115  0.53937  0.50506  1.0000
  C   C87       1.0  0.51587  0.54372  0.48525  1.0000
  S   S43       1.0  0.30885  0.90940  0.27603  1.0000
  H   H137      1.0  0.10815  0.57388  0.31769  1.0000
  C   C88       1.0  0.04998  0.55854  0.28687  1.0000
  H   H138      1.0  0.50848  0.99186  0.32464  1.0000
  H   H139      1.0  0.03160  0.67108  0.30214  1.0000
  H   H140      1.0  0.50159  0.56615  0.48368  1.0000
  H   H141      1.0  0.25073  0.97797  0.29311  1.0000
  H   H142      1.0  0.50702  0.53223  0.29650  1.0000
  H   H143      1.0  0.13815  0.52271  0.51758  1.0000
  H   H144      1.0  0.22720  0.82255  0.28057  1.0000
  H   H145      1.0  0.23309  0.89693  0.70042  1.0000
  S   S44       1.0  0.32051  0.95325  0.73006  1.0000
  H   H146      1.0  0.17521  0.81472  0.70657  1.0000
  S   S45       1.0  0.10321  0.63352  0.69781  1.0000
  H   H147      1.0  0.24953  0.73818  0.60344  1.0000
  S   S46       1.0  0.08217  0.71446  0.67057  1.0000
  Fe  Fe23      1.0  0.07129  0.64604  0.65252  1.0000
  C   C89       1.0  0.25346  0.81029  0.63616  1.0000
  Fe  Fe24      1.0  0.11023  0.69956  0.71711  1.0000
  S   S47       1.0  0.17483  0.74209  0.74736  1.0000
  H   H148      1.0  0.16629  0.70207  0.64728  1.0000
  C   C90       1.0  0.28033  0.89457  0.73555  1.0000
  H   H149      1.0  0.26625  0.83578  0.61545  1.0000
  C   C91       1.0  0.20673  0.82882  0.72049  1.0000
  C   C92       1.0  0.21465  0.80093  0.74227  1.0000
  H   H150      1.0  0.04439  0.55053  0.62648  1.0000
  H   H151      1.0  0.19390  0.53571  0.56177  1.0000
  H   H152      1.0  0.16724  0.79342  0.63775  1.0000
  H   H153      1.0  0.24661  0.82660  0.65803  1.0000
  C   C93       1.0  0.50972  0.00528  0.66147  1.0000
  C   C94       1.0  0.23951  0.87541  0.71713  1.0000
  C   C95       1.0  0.08169  0.58483  0.54685  1.0000
  C   C96       1.0  0.07397  0.58828  0.58113  1.0000
  C   C97       1.0  0.25541  0.82005  0.76069  1.0000
  H   H154      1.0  0.14452  0.74624  0.60873  1.0000
  H   H155      1.0  0.28138  0.80378  0.64374  1.0000
  N   N11       1.0  0.21230  0.76758  0.62600  1.0000
  C   C98       1.0  0.22272  0.74686  0.59707  1.0000
  H   H156      1.0  0.22335  0.72736  0.66299  1.0000
  C   C99       1.0  0.17614  0.77788  0.61646  1.0000
  C   C100      1.0  0.19664  0.73508  0.65436  1.0000
  H   H157      1.0  0.23463  0.77037  0.57513  1.0000
  H   H158      1.0  0.19206  0.71461  0.58886  1.0000
  C   C101      1.0  0.50973  0.99514  0.62726  1.0000
  H   H159      1.0  0.51112  0.85743  0.59349  1.0000
  S   S48       1.0  0.09500  0.64281  0.59987  1.0000
  H   H160      1.0  0.18664  0.80220  0.59505  1.0000
  H   H161      1.0  0.18716  0.74899  0.67627  1.0000
  S   S49       1.0  0.04241  0.66472  0.74243  1.0000
  Fe  Fe25      1.0  0.03322  0.59997  0.71980  1.0000
  H   H162      1.0  0.09968  0.61558  0.53200  1.0000
  H   H163      1.0  0.09456  0.57230  0.75697  1.0000
  C   C102      1.0  0.28815  0.86664  0.75736  1.0000
  Fe  Fe26      1.0  0.38768  0.99430  0.75800  1.0000
  H   H164      1.0  0.47798  0.99482  0.67434  1.0000
  C   C103      1.0  0.06560  0.54171  0.53154  1.0000
  C   C104      1.0  0.05045  0.54834  0.60007  1.0000
  H   H165      1.0  0.47783  0.97672  0.61387  1.0000
  H   H166      1.0  0.52217  0.55305  0.61466  1.0000
  H   H167      1.0  0.51721  0.54114  0.67558  1.0000
  H   H168      1.0  0.23046  0.53300  0.53030  1.0000
  H   H169      1.0  0.19583  0.69768  0.80419  1.0000
  H   H170      1.0  0.07760  0.63745  0.86629  1.0000
  H   H171      1.0  0.10535  0.60542  0.85628  1.0000
  C   C105      1.0  0.44011  0.54178  0.98761  1.0000
  H   H172      1.0  0.14321  0.65241  0.78845  1.0000
  H   H173      1.0  0.45661  0.52595  0.00253  1.0000
  S   S50       1.0  0.43729  0.97183  0.77475  1.0000
  C   C106      1.0  0.09765  0.63193  0.84665  1.0000
  N   N12       1.0  0.13969  0.67477  0.83838  1.0000
  H   H174      1.0  0.06256  0.52451  0.00270  1.0000
  H   H175      1.0  0.20101  0.72405  0.86308  1.0000
  C   C107      1.0  0.12801  0.70940  0.82675  1.0000
  H   H176      1.0  0.17437  0.64045  0.81966  1.0000
  H   H177      1.0  0.10906  0.71687  0.84616  1.0000
  H   H178      1.0  0.07535  0.61730  0.82420  1.0000
  H   H179      1.0  0.15900  0.74221  0.82024  1.0000
  C   C108      1.0  0.16437  0.66587  0.81155  1.0000
  H   H180      1.0  0.10657  0.69771  0.80369  1.0000
  H   H181      1.0  0.42604  0.55681  0.00560  1.0000
  H   H182      1.0  0.14239  0.56328  0.80013  1.0000
  H   H183      1.0  0.15138  0.69902  0.88933  1.0000
  C   C109      1.0  0.16886  0.69187  0.86855  1.0000
  H   H184      1.0  0.36896  0.54606  0.96156  1.0000
  C   C110      1.0  0.07896  0.55156  0.77890  1.0000
  H   H185      1.0  0.17813  0.66632  0.87790  1.0000
  S   S51       1.0  0.45889  0.00584  0.87381  1.0000
  C   C111      1.0  0.10599  0.54643  0.80338  1.0000
  H   H186      1.0  0.46742  0.57050  0.97315  1.0000
  H   H187      1.0  0.48949  0.00499  0.94118  1.0000
  H   H188      1.0  0.52267  0.53405  0.78084  1.0000
  C   C112      1.0  0.03185  0.52967  0.78278  1.0000
  Fe  Fe27      1.0  0.45009  0.01871  0.81903  1.0000
  H   H189      1.0  0.26184  0.79876  0.77762  1.0000
  H   H190      1.0  0.41046  0.55852  0.92919  1.0000
  C   C113      1.0  0.08638  0.52007  0.83222  1.0000
  S   S52       1.0  0.12265  0.52162  0.86472  1.0000
  C   C114      1.0  0.38451  0.53079  0.94517  1.0000
  H   H191      1.0  0.31942  0.88098  0.77165  1.0000
  Fe  Fe28      1.0  0.68107  0.09615  0.06524  1.0000
  H   H192      1.0  0.02026  0.38520  0.04832  1.0000
  C   C115      1.0  0.60904  0.10074  0.12612  1.0000
  C   C116      1.0  0.55616  0.08797  0.17183  1.0000
  C   C117      1.0  0.57233  0.07587  0.10452  1.0000
  H   H193      1.0  0.62916  0.12629  0.17651  1.0000
  C   C118      1.0  0.60084  0.10692  0.15973  1.0000
  S   S53       1.0  0.66545  0.12391  0.11205  1.0000
  C   C119      1.0  0.52768  0.05722  0.11653  1.0000
  H   H194      1.0  0.57833  0.07165  0.07846  1.0000
  H   H195      1.0  0.55844  0.47430  0.02181  1.0000
  H   H196      1.0  0.91924  0.31425  0.03701  1.0000
  S   S54       1.0  0.72809  0.06776  0.07315  1.0000
  C   C120      1.0  0.99946  0.39060  0.02912  1.0000
  H   H197      1.0  0.99179  0.45673  0.06141  1.0000
  H   H198      1.0  0.89714  0.33657  0.06812  1.0000
  H   H199      1.0  0.94707  0.33241  0.07692  1.0000
  H   H200      1.0  0.99064  0.41605  0.09086  1.0000
  H   H201      1.0  0.56069  0.45786  0.24153  1.0000
  N   N13       1.0  0.95792  0.38723  0.04366  1.0000
  H   H202      1.0  0.63203  0.02873  0.11615  1.0000
  C   C121      1.0  0.92905  0.34062  0.05709  1.0000
  H   H203      1.0  0.55012  0.09274  0.19779  1.0000
  H   H204      1.0  0.90149  0.39483  0.02727  1.0000
  H   H205      1.0  0.94002  0.41934  0.08292  1.0000
  C   C122      1.0  0.97052  0.42122  0.07096  1.0000
  S   S55       1.0  0.63143  0.03765  0.03317  1.0000
  Fe  Fe29      1.0  0.76350  0.10757  0.02665  1.0000
  H   H206      1.0  0.54870  0.38685  0.21284  1.0000
  S   S56       1.0  0.84060  0.14697  0.02190  1.0000
  S   S57       1.0  0.70896  0.02933  0.47654  1.0000
  C   C123      1.0  0.84108  0.23251  0.49757  1.0000
  H   H207      1.0  0.83357  0.24924  0.51777  1.0000
  Fe  Fe30      1.0  0.00599  0.42857  0.40363  1.0000
  S   S58       1.0  0.63276  0.06187  0.49221  1.0000
  C   C124      1.0  0.53644  0.05061  0.35727  1.0000
  H   H208      1.0  0.56972  0.10429  0.39396  1.0000
  C   C125      1.0  0.56384  0.07124  0.38555  1.0000
  S   S59       1.0  0.76051  0.15700  0.51444  1.0000
  H   H209      1.0  0.86399  0.23511  0.38173  1.0000
  C   C126      1.0  0.85408  0.31445  0.33506  1.0000
  H   H210      1.0  0.81295  0.23572  0.37075  1.0000
  S   S60       1.0  0.96322  0.38790  0.44744  1.0000
  H   H211      1.0  0.94260  0.47235  0.30266  1.0000
  S   S61       1.0  0.94448  0.26415  0.43196  1.0000
  H   H212      1.0  0.94293  0.35085  0.34911  1.0000
  H   H213      1.0  0.87342  0.35251  0.33288  1.0000
  C   C127      1.0  0.87454  0.31847  0.39344  1.0000
  C   C128      1.0  0.80992  0.18678  0.48958  1.0000
  C   C129      1.0  0.82004  0.16552  0.46343  1.0000
  C   C130      1.0  0.86151  0.18953  0.44613  1.0000
  C   C131      1.0  0.89276  0.23521  0.45430  1.0000
  C   C132      1.0  0.88217  0.25675  0.47990  1.0000
  S   S62       1.0  0.96885  0.44480  0.36310  1.0000
  H   H214      1.0  0.79609  0.13056  0.45664  1.0000
  H   H215      1.0  0.86937  0.17268  0.42624  1.0000
  H   H216      1.0  0.90595  0.29187  0.48650  1.0000
  N   N14       1.0  0.87477  0.29840  0.36051  1.0000
  H   H217      1.0  0.93872  0.30133  0.36935  1.0000
  C   C133      1.0  0.58415  0.04965  0.40295  1.0000
  C   C134      1.0  0.00080  0.48806  0.33361  1.0000
  C   C135      1.0  0.84862  0.24796  0.36287  1.0000
  H   H218      1.0  0.89001  0.30714  0.41322  1.0000
  C   C136      1.0  0.97873  0.49457  0.30599  1.0000
  H   H219      1.0  0.89410  0.35656  0.39261  1.0000
  H   H220      1.0  0.85372  0.30008  0.30982  1.0000
  H   H221      1.0  0.84774  0.23152  0.33844  1.0000
  C   C137      1.0  0.92204  0.31292  0.35076  1.0000
  H   H222      1.0  0.83945  0.30815  0.40173  1.0000
  H   H223      1.0  0.92360  0.29864  0.32594  1.0000
  Fe  Fe31      1.0  0.99083  0.34106  0.43701  1.0000
  H   H224      1.0  0.81843  0.30430  0.34165  1.0000
  Fe  Fe32      1.0  0.70475  0.08318  0.50715  1.0000
  H   H225      1.0  0.79420  0.09148  0.50870  1.0000
  C   C138      1.0  0.81249  0.07349  0.51707  1.0000
  H   H226      1.0  0.60561  0.06628  0.42435  1.0000
  Fe  Fe33      1.0  0.02570  0.42866  0.47887  1.0000
  C   C139      1.0  0.55146  0.48492  0.48996  1.0000
  C   C140      1.0  0.52984  0.38156  0.27884  1.0000
  H   H227      1.0  0.56525  0.46206  0.49170  1.0000
  H   H228      1.0  0.78709  0.03638  0.51885  1.0000
  H   H229      1.0  0.83705  0.07772  0.49701  1.0000
  H   H230      1.0  0.56688  0.39782  0.27385  1.0000
  C   C141      1.0  0.56318  0.51924  0.51428  1.0000
  C   C142      1.0  0.86957  0.14072  0.54569  1.0000
  N   N15       1.0  0.55545  0.16011  0.67735  1.0000
  C   C143      1.0  0.59852  0.15986  0.67228  1.0000
  H   H231      1.0  0.58664  0.23309  0.67227  1.0000
  C   C144      1.0  0.55837  0.20113  0.66140  1.0000
  C   C145      1.0  0.59177  0.04258  0.66192  1.0000
  H   H232      1.0  0.81722  0.10020  0.59973  1.0000
  C   C146      1.0  0.54709  0.16073  0.71369  1.0000
  C   C147      1.0  0.85770  0.06582  0.56058  1.0000
  H   H233      1.0  0.57425  0.19194  0.72615  1.0000
  C   C148      1.0  0.59177  0.03252  0.62766  1.0000
  S   S63       1.0  0.55257  0.04583  0.72104  1.0000
  H   H234      1.0  0.62365  0.06121  0.67528  1.0000
  H   H235      1.0  0.86234  0.48508  0.70254  1.0000
  H   H236      1.0  0.62785  0.19092  0.68314  1.0000
  H   H237      1.0  0.78401  0.10644  0.56715  1.0000
  H   H238      1.0  0.89500  0.14590  0.52605  1.0000
  H   H239      1.0  0.77464  0.05052  0.57788  1.0000
  H   H240      1.0  0.60539  0.15812  0.64515  1.0000
  C   C149      1.0  0.80136  0.08701  0.57476  1.0000
  H   H241      1.0  0.88336  0.06850  0.54198  1.0000
  C   C150      1.0  0.56699  0.51217  0.75942  1.0000
  H   H242      1.0  0.87525  0.07853  0.58512  1.0000
  N   N16       1.0  0.83538  0.09181  0.54956  1.0000
  H   H243      1.0  0.62347  0.04335  0.61471  1.0000
  H   H244      1.0  0.59762  0.12975  0.68461  1.0000
  H   H245      1.0  0.01698  0.47467  0.59984  1.0000
  C   C151      1.0  0.55080  0.02934  0.67883  1.0000
  H   H246      1.0  0.89468  0.49846  0.74097  1.0000
  S   S64       1.0  0.68276  0.04083  0.55416  1.0000
  H   H247      1.0  0.56424  0.20150  0.63389  1.0000
  H   H248      1.0  0.57675  0.49733  0.66139  1.0000
  C   C152      1.0  0.56692  0.51305  0.64079  1.0000
  H   H249      1.0  0.80522  0.50007  0.73024  1.0000
  H   H250      1.0  0.61538  0.49979  0.73317  1.0000
  H   H251      1.0  0.88813  0.15562  0.56957  1.0000
  H   H252      1.0  0.83246  0.02874  0.56358  1.0000
  C   C153      1.0  0.88898  0.51342  0.71775  1.0000
  H   H253      1.0  0.85335  0.16116  0.53805  1.0000
  H   H254      1.0  0.54550  0.13064  0.72664  1.0000
  H   H255      1.0  0.58044  0.50722  0.61700  1.0000
  S   S65       1.0  0.02313  0.44674  0.53339  1.0000
  H   H256      1.0  0.83693  0.51242  0.76881  1.0000
  H   H257      1.0  0.62591  0.08745  0.86985  1.0000
  H   H258      1.0  0.82643  0.14110  0.86247  1.0000
  C   C154      1.0  0.60149  0.06504  0.92006  1.0000
  C   C155      1.0  0.55278  0.05048  0.87102  1.0000
  C   C156      1.0  0.01194  0.50178  0.81098  1.0000
  C   C157      1.0  0.59622  0.06950  0.88554  1.0000
  Fe  Fe34      1.0  0.67449  0.07872  0.98971  1.0000
  S   S66       1.0  0.65707  0.09073  0.93691  1.0000
  H   H259      1.0  0.54938  0.05347  0.84433  1.0000
  H   H260      1.0  0.56649  0.03780  0.96669  1.0000
  H   H261      1.0  0.02371  0.47678  0.85794  1.0000
  C   C158      1.0  0.55811  0.50337  0.01049  1.0000
  H   H262      1.0  0.97548  0.48444  0.81404  1.0000
  C   C159      1.0  0.77228  0.16322  0.92516  1.0000
  C   C160      1.0  0.81298  0.16045  0.87647  1.0000
  C   C161      1.0  0.75139  0.09070  0.89906  1.0000
  H   H263      1.0  0.98013  0.27623  0.97707  1.0000
  H   H264      1.0  0.85183  0.16522  0.93609  1.0000
  S   S67       1.0  0.95124  0.33440  0.94232  1.0000
  H   H265      1.0  0.74557  0.16530  0.91022  1.0000
  C   C162      1.0  0.54247  0.50012  0.97736  1.0000
  H   H266      1.0  0.83542  0.11059  0.91747  1.0000
  C   C163      1.0  0.87162  0.20123  0.00248  1.0000
  H   H267      1.0  0.75665  0.14731  0.94964  1.0000
  C   C164      1.0  0.87510  0.26530  0.97170  1.0000
  C   C165      1.0  0.92204  0.28412  0.96675  1.0000
  C   C166      1.0  0.94399  0.26211  0.98068  1.0000
  C   C167      1.0  0.91878  0.22067  0.99826  1.0000
  H   H268      1.0  0.79975  0.19874  0.93027  1.0000
  S   S68       1.0  0.72036  0.04828  0.99256  1.0000
  H   H269      1.0  0.84222  0.19502  0.88213  1.0000
  H   H270      1.0  0.76303  0.06932  0.88576  1.0000
  H   H271      1.0  0.78949  0.16514  0.85947  1.0000
  H   H272      1.0  0.72582  0.09319  0.88292  1.0000
  C   C168      1.0  0.82216  0.13140  0.92955  1.0000
  H   H273      1.0  0.85792  0.28237  0.96130  1.0000
  H   H274      1.0  0.73300  0.07180  0.92198  1.0000
  C   C169      1.0  0.85009  0.22434  0.98978  1.0000
  N   N17       1.0  0.78970  0.13641  0.90756  1.0000
  C   C170      1.0  0.56283  0.04145  0.94006  1.0000
  H   H275      1.0  0.80607  0.11432  0.95364  1.0000
  H   H276      1.0  0.55828  0.17146  0.87884  1.0000
  H   H277      1.0  0.81401  0.21021  0.99342  1.0000
  H   H278      1.0  0.95415  0.43107  0.00604  1.0000
  H   H279      1.0  0.93578  0.20311  0.00811  1.0000
  C   C171      1.0  0.93287  0.39653  0.01723  1.0000
  H   H280      1.0  0.02145  0.42489  0.01794  1.0000
  H   H281      1.0  0.99116  0.36478  0.00892  1.0000
  H   H282      1.0  0.92266  0.37129  0.99635  1.0000
  S   S69       1.0  0.54780  0.46248  0.78418  1.0000
  S   S70       1.0  0.72009  0.14012  0.02139  1.0000
  H   H283      1.0  0.72504  0.96166  0.09180  1.0000
  H   H284      1.0  0.64884  0.00059  0.14637  1.0000
  C   C172      1.0  0.59007  0.72815  0.21407  1.0000
  Fe  Fe35      1.0  0.63142  0.65245  0.08471  1.0000
  S   S71       1.0  0.61883  0.69088  0.12578  1.0000
  H   H285      1.0  0.70307  0.80205  0.20473  1.0000
  H   H286      1.0  0.66647  0.83618  0.23890  1.0000
  Fe  Fe36      1.0  0.64177  0.65392  0.16077  1.0000
  S   S72       1.0  0.61609  0.63718  0.21434  1.0000
  S   S73       1.0  0.64766  0.61035  0.12022  1.0000
  H   H287      1.0  0.55867  0.73056  0.21665  1.0000
  C   C173      1.0  0.66888  0.90322  0.06859  1.0000
  C   C174      1.0  0.64583  0.85524  0.06598  1.0000
  H   H288      1.0  0.59906  0.91686  0.15598  1.0000
  C   C175      1.0  0.55495  0.57794  0.25987  1.0000
  S   S74       1.0  0.64716  0.93419  0.04661  1.0000
  C   C176      1.0  0.56414  0.58882  0.22570  1.0000
  H   H289      1.0  0.57280  0.94706  0.07261  1.0000
  C   C177      1.0  0.67137  0.76845  0.20729  1.0000
  C   C178      1.0  0.58013  0.91501  0.13265  1.0000
  H   H290      1.0  0.55783  0.98783  0.08825  1.0000
  Fe  Fe37      1.0  0.69264  0.74255  0.12095  1.0000
  N   N18       1.0  0.58171  0.95895  0.12586  1.0000
  H   H291      1.0  0.67532  0.74980  0.22897  1.0000
  H   H292      1.0  0.63964  0.78510  0.26388  1.0000
  H   H293      1.0  0.59636  0.80170  0.18199  1.0000
  H   H294      1.0  0.57741  0.97274  0.17812  1.0000
  H   H295      1.0  0.53832  0.56998  0.17536  1.0000
  H   H296      1.0  0.66429  0.55892  0.03347  1.0000
  C   C179      1.0  0.62647  0.79691  0.18049  1.0000
  C   C180      1.0  0.55721  0.95524  0.09423  1.0000
  S   S75       1.0  0.58776  0.63174  0.03772  1.0000
  H   H297      1.0  0.69049  0.61136  0.05691  1.0000
  H   H298      1.0  0.71987  0.58005  0.05171  1.0000
  S   S76       1.0  0.71882  0.81884  0.12790  1.0000
  H   H299      1.0  0.56185  0.00366  0.14962  1.0000
  H   H300      1.0  0.59259  0.70948  0.23634  1.0000
  H   H301      1.0  0.61623  0.83823  0.04994  1.0000
  C   C181      1.0  0.72200  0.89850  0.10736  1.0000
  S   S77       1.0  0.70402  0.70713  0.07744  1.0000
  H   H302      1.0  0.75163  0.91549  0.12338  1.0000
  H   H303      1.0  0.58560  0.70615  0.19188  1.0000
  C   C182      1.0  0.62952  0.99545  0.12266  1.0000
  H   H304      1.0  0.60585  0.80621  0.24422  1.0000
  H   H305      1.0  0.62298  0.77692  0.15728  1.0000
  H   H306      1.0  0.65715  0.83112  0.17685  1.0000
  H   H307      1.0  0.64335  0.79218  0.08090  1.0000
  N   N19       1.0  0.63089  0.77378  0.21067  1.0000
  Fe  Fe38      1.0  0.68086  0.01139  0.03859  1.0000
  C   C183      1.0  0.66113  0.82902  0.08352  1.0000
  H   H308      1.0  0.98621  0.53409  0.26116  1.0000
  C   C184      1.0  0.53162  0.56180  0.20173  1.0000
  C   C185      1.0  0.69939  0.85056  0.10427  1.0000
  C   C186      1.0  0.63588  0.80157  0.24077  1.0000
  H   H309      1.0  0.66879  0.74854  0.18445  1.0000
  C   C187      1.0  0.70704  0.92479  0.08946  1.0000
  Fe  Fe39      1.0  0.72017  0.66757  0.11548  1.0000
  H   H310      1.0  0.59581  0.90563  0.11171  1.0000
  S   S78       1.0  0.77751  0.65310  0.10320  1.0000
  H   H311      1.0  0.78861  0.67110  0.17568  1.0000
  S   S79       1.0  0.71560  0.70788  0.15836  1.0000
  Fe  Fe40      1.0  0.98941  0.66298  0.19371  1.0000
  S   S80       1.0  0.92606  0.66596  0.20868  1.0000
  S   S81       1.0  0.99080  0.59699  0.18768  1.0000
  C   C188      1.0  0.81889  0.65768  0.13289  1.0000
  C   C189      1.0  0.85508  0.65170  0.12203  1.0000
  C   C190      1.0  0.88832  0.65457  0.14482  1.0000
  C   C191      1.0  0.88556  0.66314  0.17887  1.0000
  C   C192      1.0  0.84932  0.66903  0.18975  1.0000
  C   C193      1.0  0.81624  0.66649  0.16691  1.0000
  H   H312      1.0  0.85749  0.64484  0.09582  1.0000
  H   H313      1.0  0.91592  0.64988  0.13606  1.0000
  H   H314      1.0  0.84682  0.67568  0.21599  1.0000
  H   H315      1.0  0.64722  0.98737  0.10260  1.0000
  C   C194      1.0  0.56018  0.97016  0.15376  1.0000
  H   H316      1.0  0.58380  0.54559  0.05497  1.0000
  C   C195      1.0  0.69718  0.59037  0.03874  1.0000
  H   H317      1.0  0.94043  0.61792  0.26277  1.0000
  H   H318      1.0  0.78576  0.64770  0.02829  1.0000
  C   C196      1.0  0.57257  0.54368  0.02927  1.0000
  H   H319      1.0  0.75752  0.67994  0.03413  1.0000
  H   H320      1.0  0.54457  0.88667  0.13543  1.0000
  C   C197      1.0  0.63062  0.66156  0.41984  1.0000
  H   H321      1.0  0.60873  0.65440  0.50344  1.0000
  N   N20       1.0  0.63982  0.65807  0.45569  1.0000
  C   C198      1.0  0.55015  0.98657  0.36376  1.0000
  H   H322      1.0  0.64378  0.60943  0.48868  1.0000
  H   H323      1.0  0.60527  0.58451  0.45409  1.0000
  C   C199      1.0  0.68508  0.69634  0.46483  1.0000
  S   S82       1.0  0.60381  0.97989  0.41304  1.0000
  H   H324      1.0  0.66537  0.61169  0.44724  1.0000
  H   H325      1.0  0.63081  0.69415  0.41457  1.0000
  H   H326      1.0  0.98381  0.68238  0.34280  1.0000
  H   H327      1.0  0.65648  0.66023  0.40344  1.0000
  C   C200      1.0  0.63856  0.61407  0.46164  1.0000
  Fe  Fe41      1.0  0.63529  0.00508  0.46448  1.0000
  H   H328      1.0  0.59672  0.63291  0.41215  1.0000
  C   C201      1.0  0.60488  0.66034  0.47641  1.0000
  C   C202      1.0  0.00328  0.52956  0.28256  1.0000
  H   H329      1.0  0.57011  0.63436  0.46844  1.0000
  C   C203      1.0  0.94221  0.63551  0.28691  1.0000
  C   C204      1.0  0.54487  0.54831  0.51208  1.0000
  H   H330      1.0  0.92868  0.63596  0.35347  1.0000
  H   H331      1.0  0.71253  0.69576  0.44999  1.0000
  H   H332      1.0  0.00972  0.61827  0.27976  1.0000
  H   H333      1.0  0.65714  0.87943  0.50433  1.0000
  H   H334      1.0  0.60725  0.69449  0.47471  1.0000
  S   S83       1.0  0.60951  0.95572  0.50785  1.0000
  N   N21       1.0  0.96246  0.62115  0.31389  1.0000
  H   H335      1.0  0.68712  0.73009  0.46093  1.0000
  H   H336      1.0  0.96254  0.67294  0.28193  1.0000
  H   H337      1.0  0.63600  0.79760  0.50027  1.0000
  H   H338      1.0  0.95018  0.55872  0.33790  1.0000
  C   C205      1.0  0.93506  0.57108  0.31848  1.0000
  H   H339      1.0  0.97888  0.63451  0.36628  1.0000
  C   C206      1.0  0.52943  0.00803  0.34645  1.0000
  H   H340      1.0  0.69272  0.69500  0.49183  1.0000
  C   C207      1.0  0.96347  0.64453  0.34554  1.0000
  H   H341      1.0  0.93284  0.55258  0.29476  1.0000
  H   H342      1.0  0.54494  0.95382  0.35516  1.0000
  H   H343      1.0  0.89975  0.56062  0.32629  1.0000
  H   H344      1.0  0.90704  0.62752  0.29303  1.0000
  C   C208      1.0  0.00923  0.63343  0.30444  1.0000
  C   C209      1.0  0.57751  0.00723  0.39215  1.0000
  H   H345      1.0  0.57996  0.59873  0.27853  1.0000
  H   H346      1.0  0.02508  0.62090  0.32310  1.0000
  C   C210      1.0  0.65810  0.81846  0.52035  1.0000
  H   H347      1.0  0.54905  0.60138  0.74308  1.0000
  C   C211      1.0  0.55069  0.00893  0.61023  1.0000
  H   H348      1.0  0.60320  0.86682  0.64987  1.0000
  Fe  Fe42      1.0  0.64077  0.59244  0.57452  1.0000
  S   S84       1.0  0.61083  0.63396  0.59371  1.0000
  H   H349      1.0  0.62973  0.94999  0.58081  1.0000
  H   H350      1.0  0.59752  0.87287  0.55704  1.0000
  Fe  Fe43      1.0  0.65159  0.64236  0.64039  1.0000
  S   S85       1.0  0.61218  0.63442  0.68831  1.0000
  Fe  Fe44      1.0  0.01289  0.67310  0.69399  1.0000
  H   H351      1.0  0.65342  0.93399  0.61476  1.0000
  C   C212      1.0  0.67486  0.79898  0.54363  1.0000
  S   S86       1.0  0.67736  0.59598  0.62256  1.0000
  N   N22       1.0  0.58215  0.88861  0.60595  1.0000
  C   C213      1.0  0.54230  0.89159  0.59417  1.0000
  N   N23       1.0  0.87636  0.54860  0.72571  1.0000
  S   S87       1.0  0.65993  0.74079  0.53866  1.0000
  C   C214      1.0  0.59700  0.58857  0.71653  1.0000
  C   C215      1.0  0.61597  0.56009  0.71415  1.0000
  C   C216      1.0  0.67001  0.86486  0.52260  1.0000
  H   H352      1.0  0.64230  0.56742  0.69593  1.0000
  H   H353      1.0  0.82329  0.55348  0.75143  1.0000
  Fe  Fe45      1.0  0.67341  0.69564  0.57440  1.0000
  C   C217      1.0  0.70346  0.82634  0.56944  1.0000
  C   C218      1.0  0.69922  0.89241  0.54806  1.0000
  H   H354      1.0  0.53543  0.91418  0.61069  1.0000
  C   C219      1.0  0.56366  0.57928  0.74094  1.0000
  C   C220      1.0  0.59033  0.85887  0.58304  1.0000
  S   S88       1.0  0.71568  0.95113  0.55166  1.0000
  S   S89       1.0  0.54880  0.99538  0.56735  1.0000
  H   H355      1.0  0.58449  0.55057  0.64539  1.0000
  C   C221      1.0  0.54862  0.54116  0.76231  1.0000
  H   H356      1.0  0.56745  0.89117  0.65811  1.0000
  H   H357      1.0  0.61752  0.95847  0.62307  1.0000
  H   H358      1.0  0.85994  0.59438  0.69942  1.0000
  S   S90       1.0  0.60061  0.52485  0.54713  1.0000
  C   C222      1.0  0.71575  0.87291  0.57151  1.0000
  H   H359      1.0  0.54347  0.83446  0.64090  1.0000
  H   H360      1.0  0.71671  0.81182  0.58745  1.0000
  S   S91       1.0  0.70070  0.65278  0.55192  1.0000
  C   C223      1.0  0.62248  0.93481  0.60632  1.0000
  Fe  Fe46      1.0  0.73585  0.66004  0.60152  1.0000
  H   H361      1.0  0.55301  0.57431  0.53100  1.0000
  S   S92       1.0  0.80604  0.66745  0.59476  1.0000
  H   H362      1.0  0.94535  0.60178  0.73217  1.0000
  H   H363      1.0  0.62013  0.85576  0.59125  1.0000
  H   H364      1.0  0.73837  0.89391  0.59131  1.0000
  S   S93       1.0  0.95580  0.68920  0.70198  1.0000
  S   S94       1.0  0.00015  0.60611  0.67251  1.0000
  C   C224      1.0  0.84614  0.67188  0.62543  1.0000
  C   C225      1.0  0.88316  0.66684  0.61525  1.0000
  C   C226      1.0  0.91680  0.67165  0.63838  1.0000
  C   C227      1.0  0.91417  0.68240  0.67189  1.0000
  C   C228      1.0  0.87700  0.68709  0.68218  1.0000
  C   C229      1.0  0.84294  0.68152  0.65915  1.0000
  H   H365      1.0  0.88597  0.65948  0.58921  1.0000
  H   H366      1.0  0.94512  0.66786  0.63009  1.0000
  H   H367      1.0  0.87464  0.69539  0.70807  1.0000
  H   H368      1.0  0.81481  0.68574  0.66729  1.0000
  H   H369      1.0  0.56054  0.82375  0.58176  1.0000
  H   H370      1.0  0.90232  0.58577  0.67956  1.0000
  C   C230      1.0  0.87025  0.56828  0.69425  1.0000
  H   H371      1.0  0.54767  0.90622  0.56840  1.0000
  S   S95       1.0  0.99757  0.53776  0.75319  1.0000
  S   S96       1.0  0.71282  0.70778  0.62263  1.0000
  C   C231      1.0  0.57367  0.86939  0.64023  1.0000
  C   C232      1.0  0.91273  0.58520  0.74603  1.0000
  H   H372      1.0  0.90472  0.61271  0.75229  1.0000
  Fe  Fe47      1.0  0.61152  0.01422  0.53637  1.0000
  C   C233      1.0  0.83352  0.52764  0.74492  1.0000
  H   H373      1.0  0.84381  0.54168  0.67779  1.0000
  C   C234      1.0  0.60078  0.52189  0.73534  1.0000
  H   H374      1.0  0.92119  0.52813  0.70327  1.0000
  H   H375      1.0  0.91880  0.57169  0.76982  1.0000
  Fe  Fe48      1.0  0.68250  0.98522  0.52275  1.0000
  H   H376      1.0  0.55624  0.60712  0.97033  1.0000
  C   C235      1.0  0.55647  0.57801  0.98168  1.0000
  C   C236      1.0  0.68746  0.63067  0.99222  1.0000
  H   H377      1.0  0.74868  0.57566  0.99508  1.0000
  H   H378      1.0  0.70263  0.65159  0.96931  1.0000
  C   C237      1.0  0.57139  0.58098  0.01497  1.0000
  H   H379      1.0  0.74137  0.60554  0.96030  1.0000
  H   H380      1.0  0.77896  0.67785  0.99339  1.0000
  H   H381      1.0  0.69318  0.55582  0.97736  1.0000
  H   H382      1.0  0.65452  0.60057  0.98478  1.0000
  C   C238      1.0  0.72572  0.58706  0.98404  1.0000
  H   H383      1.0  0.67959  0.65149  0.00987  1.0000
  C   C239      1.0  0.76201  0.65724  0.01608  1.0000
  C   C240      1.0  0.54224  0.53780  0.96285  1.0000
  N   N24       1.0  0.71812  0.61637  0.00775  1.0000
  H   H384      1.0  0.53139  0.53606  0.93709  1.0000
