data_image0
_chemical_formula_structural       FeS2FeSFeHFeS3H2NHC2HCH3C3H2CH8CH6CHFeH2CHCH2C2H2CH3C2SCH6CHSH2NC3HCHCHCNC2HNH2CSNC2FeS2CFeHS2C4H2CH2CHC2H2FeCH3CH3CHNC2H2CH3SC3H2SCHCH2C3H4CSNHSHCH4S2H3CHCHCH2CH3SH5CHCNCH2FeS2FeS2Fe2S2HNFeH3C2HCSH2CHC2H4CH2CHC2H3CNSC3H5CHCSHSHS2FeHFeH2CHCSFe2C3HC2H3CHC2H8NFeC2HC3SFeHCSCH2CSHC3FeSHCH2CH2SHFeH2SCH3SNFeS2CHFeHFeHSCHC2SH4CH3CH2CHCSCNH2FeH2CHCH3CH3CH3SC6H4CHCHSCHCHCH5SHFeSFeSCFeSFeS3CH4C2HNHCS2NCH2CHSH2C2H3C2H2S2HSHC2H2SHC4H2CHC4H3NH3CSHCH6CHCH4CH2CHC3H2SHSH3CNSH2CFeCHFe2HFeHC3H5CHC2H5CHFeSFeSFeSFeS3H2CHSHSCH5CH4NC2HSC2H3CH2SC2HCH2CHCHNHS2HCH2CSC3FeC2HCHFeSH2CH2CH2CHC2NC2HCH2CHCSH3SFeCH3SH2C3HFeSFeS2CH8C2H3CHCH2NHFeSCSHC3H3CH7SC2HC2HNCS3FeSHFeCHC2HFeCH3CH3CH2CSFeHSFeSCH2S2CH4CHC2HC2HC2SCH2CHCHNH5CH3SH4CFeC5HC2HCH2NH2CSCSFeH4C2HSCHC2FeC2S2HFeH2NFeH2CH4CFeS2FeSFeH2S2C4H2CHC3H4CNH2CHC2HC2H2C2H3FeSH2CHNHSCSHNSH2CHC3H2C2HNHCH4CHCH3CSH4C2FeSHSFeS3H5CH2FeC3H2CNHCHCH5SHFeCH2CHSH4FeH3S2HS2Fe2C2HCSC3SH3CSNC2SCH2NHCH4CHCHCHFeC2H3CH3SCHCHC2H5C2H3SCH2CH3C2H2CHCHC2H3CH2CFeS2FeSHFeHCS2HC3SCFeH2CHSCHCH2C3H2CHCH6SH3CH3CH2SNC4HC2H2CFeSFeSFeSFeS3CHCH2CH2C2H3NHCH2SH6CHCHC2HCH2CH2CHCHC2NCH4SC7SH2CH2CFeCH3CSH2S2FeS2FeS2FeCFeS3HNHC3HCH2CSC2H6CHCH2CHCNH4CFeHCNSH2SHCSHC2HCH2C2HCH3CHCNHFeH3C2H2FeHCHCH2CHCHCHSH3S2HCH2FeH2FeSFeHSC2H2CSHCHFeS2FeSHFeSFeS2HC2SCH3C2HCH3CH9C2H3CNH3C3H2C2H2CSC3H6NH2NHC2HC2HC4H4CH2CHNHSHC3H2C2FeC3H2NHC3HCSH3C2NHSC4H5CSCHSC2H3CH2C2H3C2NH4CH6CHFeS2FeSFe2SFeCS2H2SHCH3C4H2CH3CH2CHC2SCH6NH6CHSNH2SNSFeCFeS2FeHFeHS2H2C3HCH3CHC2H2NCH2SHC2SHSCH2C3H2CSH2C2HCH4NC3H3C3SHC2H5C3HSH3FeHS2HFeHFeCH3NH4CHCHCH4CHCH2C2HCH3CH3CHCH2CNHCHSHCH4SCSHCHC2SFeHCHCH2C2HCFeHCFeHSHFeS2FeS2Fe2NS2CH2CH5C4H2C2HCH5CHCHCH4S2HNCHC2H3FeS2HSH5CNCHCHCHC2HC4H4CH8NCHCH3CHSHCFeHCHS2CSFe2CSHSH2FeH2SHC2FeS2FeSCFeSFeS2H2CHC2H3CHCH3CH2C2H2CNH2CHSCH3CNSH3C3H9C3HC2H2C3H11CHCHSCHCH3FeHFeS2FeS3HCHSH4SHCFeH3SHSH2CHCSHFeC2FeH2CSCH2CHSCNHFeH2CH4C2HCH4NHCHCHFeSHFeSHFeSFeCSC2H2SHCHSC2NH2CHCNSHC2H3C6H4CHCH2CH5CHCNCH2
_chemical_formula_sum              "Fe128 S256 H1024 N64 C640"
_cell_length_a       35.9693
_cell_length_b       35.3132
_cell_length_c       36.9245
_cell_angle_alpha    89.9202
_cell_angle_beta     90.2963
_cell_angle_gamma    89.5275

_space_group_name_H-M_alt    "P 1"
_space_group_IT_number       1

loop_
  _space_group_symop_operation_xyz
  'x, y, z'

loop_
  _atom_site_type_symbol
  _atom_site_label
  _atom_site_symmetry_multiplicity
  _atom_site_fract_x
  _atom_site_fract_y
  _atom_site_fract_z
  _atom_site_occupancy
  Fe  Fe1       1.0  0.25444  0.27736  0.20937  1.0000
  S   S1        1.0  0.27027  0.33605  0.22701  1.0000
  S   S2        1.0  0.28622  0.24288  0.16866  1.0000
  Fe  Fe2       1.0  0.18464  0.27658  0.25291  1.0000
  S   S3        1.0  0.19246  0.33541  0.27417  1.0000
  Fe  Fe3       1.0  0.21004  0.34985  0.21795  1.0000
  H   H1        1.0  0.16635  0.21724  0.11094  1.0000
  Fe  Fe4       1.0  0.25161  0.31712  0.28206  1.0000
  S   S4        1.0  0.19567  0.29323  0.19576  1.0000
  S   S5        1.0  0.24233  0.25672  0.26556  1.0000
  S   S6        1.0  0.13583  0.24046  0.26558  1.0000
  H   H2        1.0  0.43799  0.61966  0.09264  1.0000
  H   H3        1.0  0.58792  0.21550  0.15727  1.0000
  N   N1        1.0  0.14583  0.60554  0.13820  1.0000
  H   H4        1.0  0.20268  0.58584  0.13676  1.0000
  C   C1        1.0  0.25771  0.23007  0.13197  1.0000
  C   C2        1.0  0.21956  0.22498  0.13688  1.0000
  H   H5        1.0  0.33982  0.58650  0.08584  1.0000
  C   C3        1.0  0.27264  0.22733  0.09715  1.0000
  H   H6        1.0  0.20803  0.22520  0.16371  1.0000
  H   H7        1.0  0.30221  0.23078  0.09319  1.0000
  H   H8        1.0  0.60738  0.38855  0.18698  1.0000
  C   C4        1.0  0.40614  0.41852  0.25273  1.0000
  C   C5        1.0  0.19602  0.21989  0.10700  1.0000
  C   C6        1.0  0.12372  0.63496  0.15691  1.0000
  H   H9        1.0  0.40427  0.58844  0.11184  1.0000
  H   H10       1.0  0.51169  0.17669  0.21289  1.0000
  C   C7        1.0  0.56557  0.21414  0.17790  1.0000
  H   H11       1.0  0.16386  0.34404  0.13453  1.0000
  H   H12       1.0  0.23867  0.30662  0.11723  1.0000
  H   H13       1.0  0.15878  0.58928  0.08355  1.0000
  H   H14       1.0  0.60598  0.20781  0.23986  1.0000
  H   H15       1.0  0.23834  0.18909  0.21154  1.0000
  H   H16       1.0  0.18823  0.60509  0.17966  1.0000
  H   H17       1.0  0.18817  0.42701  0.26608  1.0000
  H   H18       1.0  0.53801  0.20461  0.24461  1.0000
  C   C8        1.0  0.59824  0.37921  0.26633  1.0000
  H   H19       1.0  0.19368  0.40147  0.11071  1.0000
  H   H20       1.0  0.21408  0.13833  0.27326  1.0000
  H   H21       1.0  0.60575  0.37903  0.10450  1.0000
  H   H22       1.0  0.59346  0.14649  0.15864  1.0000
  H   H23       1.0  0.22206  0.39893  0.07095  1.0000
  H   H24       1.0  0.56745  0.39505  0.15815  1.0000
  C   C9        1.0  0.21065  0.21922  0.07202  1.0000
  H   H25       1.0  0.14272  0.33539  0.09120  1.0000
  Fe  Fe5       1.0  0.60837  0.55879  0.25571  1.0000
  H   H26       1.0  0.39480  0.28952  0.28783  1.0000
  H   H27       1.0  0.42345  0.57848  0.06798  1.0000
  C   C10       1.0  0.18516  0.60806  0.14975  1.0000
  H   H28       1.0  0.58510  0.57518  0.14837  1.0000
  C   C11       1.0  0.19729  0.38661  0.08435  1.0000
  H   H29       1.0  0.23246  0.35141  0.13932  1.0000
  H   H30       1.0  0.32668  0.30029  0.28487  1.0000
  C   C12       1.0  0.15319  0.57925  0.26595  1.0000
  C   C13       1.0  0.57037  0.14597  0.17864  1.0000
  H   H31       1.0  0.16785  0.57637  0.24061  1.0000
  H   H32       1.0  0.17073  0.29922  0.11234  1.0000
  C   C14       1.0  0.14485  0.41205  0.19550  1.0000
  H   H33       1.0  0.57581  0.35993  0.27222  1.0000
  H   H34       1.0  0.47618  0.38953  0.25600  1.0000
  H   H35       1.0  0.13435  0.35962  0.22347  1.0000
  C   C15       1.0  0.56867  0.53264  0.06717  1.0000
  C   C16       1.0  0.23480  0.33753  0.11236  1.0000
  S   S7        1.0  0.54619  0.43589  0.26849  1.0000
  C   C17       1.0  0.58866  0.54739  0.09647  1.0000
  H   H36       1.0  0.48087  0.55084  0.09660  1.0000
  H   H37       1.0  0.26062  0.34803  0.09945  1.0000
  H   H38       1.0  0.58462  0.47679  0.13634  1.0000
  H   H39       1.0  0.14691  0.54483  0.13350  1.0000
  H   H40       1.0  0.57040  0.43991  0.10605  1.0000
  H   H41       1.0  0.14621  0.46577  0.16787  1.0000
  C   C18       1.0  0.13332  0.47234  0.28951  1.0000
  H   H42       1.0  0.18545  0.17281  0.25032  1.0000
  S   S8        1.0  0.19217  0.40258  0.18871  1.0000
  H   H43       1.0  0.61873  0.54662  0.09637  1.0000
  H   H44       1.0  0.25174  0.57623  0.07252  1.0000
  N   N2        1.0  0.61625  0.42501  0.14124  1.0000
  C   C19       1.0  0.12926  0.44597  0.18271  1.0000
  C   C20       1.0  0.59500  0.45292  0.11937  1.0000
  C   C21       1.0  0.24911  0.22184  0.06717  1.0000
  H   H45       1.0  0.61675  0.47302  0.25968  1.0000
  C   C22       1.0  0.20619  0.32668  0.05402  1.0000
  H   H46       1.0  0.26731  0.15417  0.23310  1.0000
  C   C23       1.0  0.19520  0.14279  0.24960  1.0000
  H   H47       1.0  0.53865  0.21366  0.16292  1.0000
  C   C24       1.0  0.59209  0.40952  0.16983  1.0000
  N   N3        1.0  0.20164  0.34529  0.08960  1.0000
  C   C25       1.0  0.16826  0.33031  0.10770  1.0000
  C   C26       1.0  0.19338  0.44154  0.29234  1.0000
  H   H48       1.0  0.20973  0.29554  0.05706  1.0000
  N   N4        1.0  0.38328  0.62390  0.06877  1.0000
  H   H49       1.0  0.54394  0.14297  0.16307  1.0000
  H   H50       1.0  0.42111  0.42083  0.22652  1.0000
  C   C27       1.0  0.35169  0.59872  0.06064  1.0000
  S   S9        1.0  0.21750  0.55425  0.29739  1.0000
  N   N5        1.0  0.57009  0.18044  0.20133  1.0000
  C   C28       1.0  0.59157  0.41815  0.26522  1.0000
  C   C29       1.0  0.24073  0.60276  0.06221  1.0000
  Fe  Fe6       1.0  0.53650  0.56734  0.21343  1.0000
  S   S10       1.0  0.50266  0.53917  0.25630  1.0000
  S   S11       1.0  0.50669  0.58423  0.16250  1.0000
  C   C30       1.0  0.24662  0.15869  0.21096  1.0000
  Fe  Fe7       1.0  0.55018  0.49830  0.26024  1.0000
  H   H51       1.0  0.46778  0.45945  0.25756  1.0000
  S   S12       1.0  0.58114  0.52276  0.21343  1.0000
  S   S13       1.0  0.56665  0.60639  0.25126  1.0000
  C   C31       1.0  0.53077  0.56512  0.12568  1.0000
  C   C32       1.0  0.51089  0.55040  0.09637  1.0000
  C   C33       1.0  0.56968  0.56344  0.12586  1.0000
  C   C34       1.0  0.52981  0.53384  0.06731  1.0000
  H   H52       1.0  0.17637  0.16923  0.18457  1.0000
  H   H53       1.0  0.56675  0.24080  0.19391  1.0000
  C   C35       1.0  0.53890  0.17893  0.22718  1.0000
  H   H54       1.0  0.58161  0.43227  0.18809  1.0000
  H   H55       1.0  0.39000  0.39172  0.25222  1.0000
  C   C36       1.0  0.60556  0.18280  0.22155  1.0000
  H   H56       1.0  0.14672  0.49948  0.28203  1.0000
  C   C37       1.0  0.13131  0.56777  0.14759  1.0000
  C   C38       1.0  0.62107  0.44289  0.25901  1.0000
  H   H57       1.0  0.44435  0.35958  0.28003  1.0000
  H   H58       1.0  0.38582  0.44244  0.25416  1.0000
  Fe  Fe8       1.0  0.53620  0.57450  0.29434  1.0000
  C   C39       1.0  0.41356  0.60167  0.08607  1.0000
  H   H59       1.0  0.43394  0.48010  0.28751  1.0000
  H   H60       1.0  0.13340  0.56229  0.17725  1.0000
  H   H61       1.0  0.61025  0.15739  0.23899  1.0000
  C   C40       1.0  0.45889  0.38725  0.28081  1.0000
  H   H62       1.0  0.17248  0.39348  0.06734  1.0000
  H   H63       1.0  0.20791  0.46854  0.28610  1.0000
  H   H64       1.0  0.26108  0.15368  0.18477  1.0000
  C   C41       1.0  0.14302  0.61139  0.09861  1.0000
  H   H65       1.0  0.13305  0.39668  0.29472  1.0000
  N   N6        1.0  0.43229  0.41924  0.28373  1.0000
  C   C42       1.0  0.45282  0.45530  0.28355  1.0000
  C   C43       1.0  0.18796  0.13992  0.18456  1.0000
  H   H66       1.0  0.12463  0.63094  0.18680  1.0000
  H   H67       1.0  0.54157  0.15407  0.24555  1.0000
  C   C44       1.0  0.17164  0.57152  0.29860  1.0000
  H   H68       1.0  0.12585  0.45783  0.26380  1.0000
  H   H69       1.0  0.61235  0.46527  0.09748  1.0000
  H   H70       1.0  0.24916  0.20254  0.43909  1.0000
  S   S14       1.0  0.27603  0.33499  0.33534  1.0000
  C   C45       1.0  0.21527  0.28669  0.40812  1.0000
  C   C46       1.0  0.44886  0.21984  0.50644  1.0000
  C   C47       1.0  0.27887  0.26988  0.42287  1.0000
  H   H71       1.0  0.50083  0.20791  0.38496  1.0000
  H   H72       1.0  0.21990  0.22659  0.36408  1.0000
  S   S15       1.0  0.32527  0.19809  0.52238  1.0000
  C   C48       1.0  0.43597  0.18266  0.50840  1.0000
  H   H73       1.0  0.22921  0.62910  0.33126  1.0000
  C   C49       1.0  0.32402  0.32713  0.33717  1.0000
  H   H74       1.0  0.45510  0.15916  0.50486  1.0000
  H   H75       1.0  0.47954  0.16897  0.43549  1.0000
  C   C50       1.0  0.40090  0.31452  0.34072  1.0000
  C   C51       1.0  0.38268  0.33226  0.36953  1.0000
  C   C52       1.0  0.34421  0.33864  0.36770  1.0000
  H   H76       1.0  0.39832  0.34191  0.39273  1.0000
  H   H77       1.0  0.33013  0.35286  0.38970  1.0000
  H   H78       1.0  0.43004  0.41504  0.34181  1.0000
  H   H79       1.0  0.40798  0.35384  0.50066  1.0000
  C   C53       1.0  0.37311  0.20603  0.51813  1.0000
  S   S16       1.0  0.58039  0.53078  0.30262  1.0000
  N   N7        1.0  0.24257  0.25525  0.41052  1.0000
  H   H80       1.0  0.29452  0.46208  0.46396  1.0000
  S   S17       1.0  0.31964  0.15484  0.42815  1.0000
  H   H81       1.0  0.25724  0.25833  0.35414  1.0000
  C   C54       1.0  0.22927  0.22671  0.43664  1.0000
  H   H82       1.0  0.21159  0.30097  0.43471  1.0000
  H   H83       1.0  0.26679  0.21344  0.37525  1.0000
  H   H84       1.0  0.20212  0.21467  0.42797  1.0000
  H   H85       1.0  0.22417  0.30855  0.38828  1.0000
  S   S18       1.0  0.44986  0.31626  0.44842  1.0000
  S   S19       1.0  0.50634  0.37587  0.40823  1.0000
  H   H86       1.0  0.21297  0.42349  0.30837  1.0000
  H   H87       1.0  0.22573  0.23893  0.46417  1.0000
  H   H88       1.0  0.18756  0.27635  0.39913  1.0000
  C   C55       1.0  0.39807  0.17579  0.51387  1.0000
  H   H89       1.0  0.30008  0.24678  0.42477  1.0000
  C   C56       1.0  0.42410  0.25001  0.51195  1.0000
  H   H90       1.0  0.61916  0.21388  0.37847  1.0000
  C   C57       1.0  0.24684  0.23770  0.37442  1.0000
  H   H91       1.0  0.48790  0.17307  0.35210  1.0000
  H   H92       1.0  0.28961  0.29158  0.40381  1.0000
  C   C58       1.0  0.38627  0.24306  0.51767  1.0000
  H   H93       1.0  0.27680  0.28315  0.45011  1.0000
  H   H94       1.0  0.47422  0.45593  0.30544  1.0000
  H   H95       1.0  0.18070  0.49595  0.34131  1.0000
  S   S20       1.0  0.44910  0.30805  0.34140  1.0000
  H   H96       1.0  0.18534  0.45137  0.36426  1.0000
  H   H97       1.0  0.33712  0.59950  0.52958  1.0000
  H   H98       1.0  0.46984  0.22073  0.34863  1.0000
  H   H99       1.0  0.37083  0.32237  0.54744  1.0000
  H   H100      1.0  0.36690  0.26627  0.52075  1.0000
  C   C59       1.0  0.61255  0.43725  0.35876  1.0000
  H   H101      1.0  0.61790  0.48523  0.41486  1.0000
  C   C60       1.0  0.47077  0.57187  0.35302  1.0000
  N   N8        1.0  0.44525  0.18695  0.39060  1.0000
  C   C61       1.0  0.44015  0.38638  0.53866  1.0000
  H   H102      1.0  0.59406  0.42921  0.38158  1.0000
  H   H103      1.0  0.16588  0.28022  0.32647  1.0000
  Fe  Fe9       1.0  0.24961  0.51890  0.42685  1.0000
  S   S21       1.0  0.22565  0.57240  0.40367  1.0000
  S   S22       1.0  0.21680  0.48002  0.46239  1.0000
  Fe  Fe10      1.0  0.32067  0.52468  0.38409  1.0000
  S   S23       1.0  0.30316  0.57852  0.35648  1.0000
  S   S24       1.0  0.37426  0.49286  0.37633  1.0000
  Fe  Fe11      1.0  0.28288  0.59553  0.41152  1.0000
  Fe  Fe12      1.0  0.24754  0.55102  0.35080  1.0000
  S   S25       1.0  0.30524  0.54406  0.43974  1.0000
  S   S26       1.0  0.26685  0.49534  0.37318  1.0000
  H   H104      1.0  0.60383  0.26792  0.41892  1.0000
  N   N9        1.0  0.15835  0.44862  0.31211  1.0000
  Fe  Fe13      1.0  0.31094  0.14832  0.48783  1.0000
  H   H105      1.0  0.45293  0.23331  0.42721  1.0000
  H   H106      1.0  0.61935  0.41063  0.34397  1.0000
  H   H107      1.0  0.43117  0.61715  0.36004  1.0000
  C   C62       1.0  0.15271  0.57584  0.33135  1.0000
  C   C63       1.0  0.37424  0.41243  0.45116  1.0000
  H   H108      1.0  0.16633  0.56931  0.35661  1.0000
  C   C64       1.0  0.41164  0.52351  0.36915  1.0000
  S   S27       1.0  0.21961  0.14600  0.38543  1.0000
  H   H109      1.0  0.26882  0.52586  0.50288  1.0000
  H   H110      1.0  0.39126  0.16234  0.38360  1.0000
  C   C65       1.0  0.44701  0.50851  0.36229  1.0000
  H   H111      1.0  0.29938  0.41562  0.44527  1.0000
  C   C66       1.0  0.45713  0.15812  0.41743  1.0000
  C   C67       1.0  0.23243  0.47811  0.50749  1.0000
  H   H112      1.0  0.32043  0.45531  0.42321  1.0000
  H   H113      1.0  0.14087  0.47484  0.36190  1.0000
  H   H114      1.0  0.45163  0.47827  0.36352  1.0000
  H   H115      1.0  0.37342  0.48849  0.45324  1.0000
  C   C68       1.0  0.33885  0.41893  0.50665  1.0000
  H   H116      1.0  0.37916  0.57454  0.37484  1.0000
  H   H117      1.0  0.38838  0.14706  0.51516  1.0000
  C   C69       1.0  0.13589  0.28213  0.32751  1.0000
  H   H118      1.0  0.43360  0.14957  0.43505  1.0000
  C   C70       1.0  0.25940  0.50328  0.52002  1.0000
  C   C71       1.0  0.47644  0.53262  0.35355  1.0000
  H   H119      1.0  0.38064  0.42487  0.42417  1.0000
  H   H120      1.0  0.40571  0.19250  0.34697  1.0000
  H   H121      1.0  0.19802  0.43060  0.52116  1.0000
  C   C72       1.0  0.36622  0.47373  0.47887  1.0000
  N   N10       1.0  0.34838  0.43690  0.47172  1.0000
  S   S28       1.0  0.50681  0.60206  0.34035  1.0000
  C   C73       1.0  0.16663  0.46851  0.34640  1.0000
  C   C74       1.0  0.40617  0.56274  0.36911  1.0000
  C   C75       1.0  0.41122  0.41590  0.31779  1.0000
  H   H122      1.0  0.40118  0.40914  0.46549  1.0000
  H   H123      1.0  0.34767  0.49275  0.49475  1.0000
  H   H124      1.0  0.36262  0.38373  0.44671  1.0000
  H   H125      1.0  0.39262  0.46998  0.49451  1.0000
  H   H126      1.0  0.40723  0.21360  0.42768  1.0000
  C   C76       1.0  0.41559  0.17134  0.36730  1.0000
  H   H127      1.0  0.59618  0.45564  0.33999  1.0000
  C   C77       1.0  0.43574  0.58691  0.36113  1.0000
  S   S29       1.0  0.61093  0.34867  0.40896  1.0000
  H   H128      1.0  0.43407  0.27871  0.51217  1.0000
  S   S30       1.0  0.46586  0.40927  0.50506  1.0000
  H   H129      1.0  0.50360  0.52091  0.34757  1.0000
  S   S31       1.0  0.52423  0.28375  0.40788  1.0000
  S   S32       1.0  0.53360  0.33148  0.48306  1.0000
  Fe  Fe14      1.0  0.55249  0.33677  0.42576  1.0000
  H   H130      1.0  0.36028  0.62261  0.41912  1.0000
  Fe  Fe15      1.0  0.48466  0.36600  0.46446  1.0000
  H   H131      1.0  0.36344  0.41707  0.52497  1.0000
  H   H132      1.0  0.39432  0.38974  0.31816  1.0000
  C   C78       1.0  0.61708  0.27303  0.39317  1.0000
  H   H133      1.0  0.39168  0.44018  0.32135  1.0000
  C   C79       1.0  0.31418  0.44270  0.45008  1.0000
  S   S33       1.0  0.49536  0.22824  0.49502  1.0000
  Fe  Fe16      1.0  0.47659  0.32212  0.39426  1.0000
  Fe  Fe17      1.0  0.50034  0.28238  0.46360  1.0000
  C   C80       1.0  0.41348  0.35975  0.52876  1.0000
  C   C81       1.0  0.14011  0.41217  0.32006  1.0000
  C   C82       1.0  0.43100  0.22075  0.40976  1.0000
  H   H134      1.0  0.42157  0.24314  0.39044  1.0000
  C   C83       1.0  0.47733  0.19762  0.36801  1.0000
  C   C84       1.0  0.21903  0.45001  0.53067  1.0000
  H   H135      1.0  0.42547  0.14584  0.35234  1.0000
  H   H136      1.0  0.15843  0.39328  0.33661  1.0000
  H   H137      1.0  0.32797  0.38983  0.50285  1.0000
  C   C85       1.0  0.34221  0.30929  0.30846  1.0000
  H   H138      1.0  0.13533  0.31784  0.37484  1.0000
  C   C86       1.0  0.38069  0.30310  0.31021  1.0000
  C   C87       1.0  0.33677  0.62726  0.51527  1.0000
  H   H139      1.0  0.31723  0.43557  0.52137  1.0000
  H   H140      1.0  0.47847  0.38636  0.30432  1.0000
  H   H141      1.0  0.35005  0.62304  0.48843  1.0000
  H   H142      1.0  0.62108  0.51160  0.37337  1.0000
  H   H143      1.0  0.30715  0.63507  0.51002  1.0000
  H   H144      1.0  0.31531  0.44061  0.78668  1.0000
  H   H145      1.0  0.57221  0.59007  0.79076  1.0000
  H   H146      1.0  0.25364  0.20921  0.62430  1.0000
  N   N11       1.0  0.30706  0.23118  0.63944  1.0000
  Fe  Fe18      1.0  0.40622  0.25480  0.73803  1.0000
  C   C88       1.0  0.42639  0.37460  0.60209  1.0000
  C   C89       1.0  0.42711  0.17544  0.77822  1.0000
  H   H147      1.0  0.22269  0.42490  0.58381  1.0000
  C   C90       1.0  0.56340  0.40121  0.73778  1.0000
  C   C91       1.0  0.25285  0.30232  0.76547  1.0000
  C   C92       1.0  0.23933  0.27179  0.78546  1.0000
  S   S34       1.0  0.43743  0.26168  0.68630  1.0000
  Fe  Fe19      1.0  0.40825  0.33811  0.75508  1.0000
  H   H148      1.0  0.23155  0.24593  0.77180  1.0000
  C   C93       1.0  0.28321  0.20798  0.61566  1.0000
  S   S35       1.0  0.38777  0.19911  0.76061  1.0000
  C   C94       1.0  0.26198  0.33602  0.78313  1.0000
  H   H149      1.0  0.28443  0.21803  0.58709  1.0000
  H   H150      1.0  0.27492  0.22104  0.68739  1.0000
  C   C95       1.0  0.39958  0.34812  0.59185  1.0000
  S   S36       1.0  0.36632  0.30235  0.72658  1.0000
  H   H151      1.0  0.36493  0.24435  0.64525  1.0000
  C   C96       1.0  0.34612  0.22767  0.62754  1.0000
  C   C97       1.0  0.23300  0.44673  0.56610  1.0000
  C   C98       1.0  0.46867  0.63326  0.79159  1.0000
  Fe  Fe20      1.0  0.23775  0.35982  0.70238  1.0000
  S   S37       1.0  0.25367  0.30058  0.71812  1.0000
  H   H152      1.0  0.12608  0.26906  0.70433  1.0000
  C   C99       1.0  0.30392  0.21791  0.67730  1.0000
  H   H153      1.0  0.26503  0.27470  0.64390  1.0000
  H   H154      1.0  0.31068  0.28922  0.65669  1.0000
  C   C100      1.0  0.54772  0.30392  0.57497  1.0000
  H   H155      1.0  0.32185  0.23477  0.69584  1.0000
  H   H156      1.0  0.35595  0.19772  0.62812  1.0000
  S   S38       1.0  0.37475  0.32174  0.62355  1.0000
  H   H157      1.0  0.31251  0.18772  0.68009  1.0000
  Fe  Fe21      1.0  0.40147  0.31305  0.67774  1.0000
  H   H158      1.0  0.55147  0.53946  0.74936  1.0000
  H   H159      1.0  0.38190  0.47710  0.71970  1.0000
  S   S39       1.0  0.21322  0.37890  0.64936  1.0000
  C   C101      1.0  0.29499  0.27125  0.63721  1.0000
  H   H160      1.0  0.27282  0.35957  0.76803  1.0000
  H   H161      1.0  0.34965  0.23833  0.59933  1.0000
  H   H162      1.0  0.43137  0.38038  0.63039  1.0000
  S   S40       1.0  0.44012  0.35337  0.70508  1.0000
  N   N12       1.0  0.34976  0.48619  0.76801  1.0000
  Fe  Fe22      1.0  0.24528  0.43244  0.65976  1.0000
  S   S41       1.0  0.19947  0.46198  0.68997  1.0000
  S   S42       1.0  0.27999  0.46663  0.62167  1.0000
  C   C102      1.0  0.13169  0.26281  0.79767  1.0000
  H   H163      1.0  0.29873  0.48570  0.73739  1.0000
  Fe  Fe23      1.0  0.16980  0.40675  0.68395  1.0000
  H   H164      1.0  0.20412  0.58896  0.74884  1.0000
  Fe  Fe24      1.0  0.22571  0.43577  0.73915  1.0000
  H   H165      1.0  0.46653  0.41527  0.58315  1.0000
  S   S43       1.0  0.27400  0.41048  0.70963  1.0000
  C   C103      1.0  0.21642  0.57231  0.77050  1.0000
  H   H166      1.0  0.15607  0.47530  0.76744  1.0000
  C   C104      1.0  0.33362  0.46331  0.79749  1.0000
  C   C105      1.0  0.21852  0.53279  0.76748  1.0000
  S   S44       1.0  0.19165  0.38342  0.73610  1.0000
  H   H167      1.0  0.20800  0.51918  0.74345  1.0000
  H   H168      1.0  0.57538  0.30640  0.58837  1.0000
  H   H169      1.0  0.29506  0.51879  0.56462  1.0000
  H   H170      1.0  0.14315  0.33766  0.79297  1.0000
  C   C106      1.0  0.26076  0.47123  0.57820  1.0000
  H   H171      1.0  0.35208  0.43857  0.73176  1.0000
  H   H172      1.0  0.29952  0.28325  0.60971  1.0000
  H   H173      1.0  0.61874  0.57146  0.78910  1.0000
  C   C107      1.0  0.31962  0.50599  0.74802  1.0000
  H   H174      1.0  0.47543  0.31526  0.56465  1.0000
  H   H175      1.0  0.30453  0.52636  0.76574  1.0000
  C   C108      1.0  0.46295  0.18864  0.77102  1.0000
  H   H176      1.0  0.54911  0.42711  0.74498  1.0000
  C   C109      1.0  0.51470  0.32912  0.62633  1.0000
  S   S45       1.0  0.53547  0.29388  0.71211  1.0000
  C   C110      1.0  0.37547  0.51435  0.78362  1.0000
  N   N13       1.0  0.51815  0.29643  0.60158  1.0000
  H   H177      1.0  0.49274  0.32437  0.64689  1.0000
  H   H178      1.0  0.46769  0.36859  0.77880  1.0000
  Fe  Fe25      1.0  0.47370  0.30106  0.71798  1.0000
  H   H179      1.0  0.61386  0.30748  0.71288  1.0000
  H   H180      1.0  0.48358  0.26518  0.56484  1.0000
  C   C111      1.0  0.23345  0.51123  0.79586  1.0000
  H   H181      1.0  0.51285  0.36999  0.73098  1.0000
  C   C112      1.0  0.56086  0.33496  0.72101  1.0000
  H   H182      1.0  0.53083  0.23687  0.60456  1.0000
  H   H183      1.0  0.55979  0.49065  0.76101  1.0000
  H   H184      1.0  0.50605  0.25543  0.64284  1.0000
  C   C113      1.0  0.54275  0.36877  0.72989  1.0000
  H   H185      1.0  0.29222  0.17773  0.61572  1.0000
  H   H186      1.0  0.45905  0.28695  0.60164  1.0000
  H   H187      1.0  0.54236  0.33097  0.56026  1.0000
  C   C114      1.0  0.59972  0.33365  0.71975  1.0000
  H   H188      1.0  0.14767  0.33261  0.68607  1.0000
  H   H189      1.0  0.55431  0.26550  0.63779  1.0000
  H   H190      1.0  0.46683  0.21280  0.75354  1.0000
  S   S46       1.0  0.44553  0.28972  0.77066  1.0000
  C   C115      1.0  0.48248  0.29072  0.58239  1.0000
  C   C116      1.0  0.44614  0.39438  0.57538  1.0000
  C   C117      1.0  0.27394  0.49951  0.55512  1.0000
  C   C118      1.0  0.52778  0.26199  0.62252  1.0000
  C   C119      1.0  0.60228  0.39983  0.73713  1.0000
  C   C120      1.0  0.39247  0.34170  0.55524  1.0000
  H   H191      1.0  0.54114  0.33425  0.64128  1.0000
  H   H192      1.0  0.33052  0.52220  0.72454  1.0000
  H   H193      1.0  0.39393  0.44653  0.75697  1.0000
  H   H194      1.0  0.50737  0.35554  0.61138  1.0000
  C   C121      1.0  0.13147  0.48661  0.78222  1.0000
  H   H195      1.0  0.52177  0.18076  0.78079  1.0000
  C   C122      1.0  0.37033  0.46108  0.74297  1.0000
  H   H196      1.0  0.54959  0.28087  0.55443  1.0000
  S   S47       1.0  0.23429  0.46177  0.79398  1.0000
  C   C123      1.0  0.57115  0.51974  0.76329  1.0000
  H   H197      1.0  0.59783  0.51989  0.74809  1.0000
  C   C124      1.0  0.62043  0.36599  0.72809  1.0000
  H   H198      1.0  0.60433  0.30114  0.78908  1.0000
  C   C125      1.0  0.49416  0.17029  0.78619  1.0000
  H   H199      1.0  0.38800  0.53234  0.76217  1.0000
  H   H200      1.0  0.16060  0.27094  0.79077  1.0000
  H   H201      1.0  0.13319  0.51809  0.78187  1.0000
  H   H202      1.0  0.39755  0.61841  0.55761  1.0000
  H   H203      1.0  0.39864  0.50028  0.79878  1.0000
  S   S48       1.0  0.39153  0.37838  0.79879  1.0000
  H   H204      1.0  0.33785  0.63442  0.58763  1.0000
  Fe  Fe26      1.0  0.20373  0.17950  0.90874  1.0000
  S   S49       1.0  0.25519  0.20634  0.88763  1.0000
  Fe  Fe27      1.0  0.21017  0.21633  0.98185  1.0000
  S   S50       1.0  0.26165  0.24820  0.96737  1.0000
  C   C126      1.0  0.22967  0.59031  0.80169  1.0000
  Fe  Fe28      1.0  0.23329  0.25869  0.91428  1.0000
  S   S51       1.0  0.23552  0.31495  0.88698  1.0000
  Fe  Fe29      1.0  0.27916  0.19335  0.94208  1.0000
  S   S52       1.0  0.33913  0.17748  0.94344  1.0000
  S   S53       1.0  0.17973  0.23315  0.93116  1.0000
  S   S54       1.0  0.22998  0.16018  0.96090  1.0000
  C   C127      1.0  0.39389  0.29540  0.86423  1.0000
  H   H205      1.0  0.36513  0.27180  0.80057  1.0000
  H   H206      1.0  0.38890  0.32641  0.86096  1.0000
  H   H207      1.0  0.34095  0.27989  0.91339  1.0000
  H   H208      1.0  0.13168  0.27094  0.86983  1.0000
  C   C128      1.0  0.23369  0.27562  0.82286  1.0000
  C   C129      1.0  0.24249  0.30959  0.84036  1.0000
  H   H209      1.0  0.22100  0.25288  0.83769  1.0000
  N   N14       1.0  0.35939  0.27376  0.85832  1.0000
  H   H210      1.0  0.41573  0.28712  0.84452  1.0000
  C   C130      1.0  0.15347  0.53076  0.87394  1.0000
  S   S55       1.0  0.25377  0.63219  0.91126  1.0000
  S   S56       1.0  0.59212  0.51267  0.03036  1.0000
  N   N15       1.0  0.57683  0.53039  0.80158  1.0000
  C   C131      1.0  0.48963  0.13827  0.80805  1.0000
  H   H211      1.0  0.40537  0.29061  0.89191  1.0000
  H   H212      1.0  0.32464  0.31641  0.88282  1.0000
  C   C132      1.0  0.60336  0.50362  0.81882  1.0000
  H   H213      1.0  0.30486  0.27024  0.88121  1.0000
  S   S57       1.0  0.16656  0.14718  0.87161  1.0000
  H   H214      1.0  0.38809  0.22280  0.84216  1.0000
  H   H215      1.0  0.40717  0.61858  0.01587  1.0000
  C   C133      1.0  0.34498  0.28129  0.82144  1.0000
  C   C134      1.0  0.36734  0.23281  0.86240  1.0000
  H   H216      1.0  0.13331  0.60358  0.87098  1.0000
  H   H217      1.0  0.13127  0.57814  0.95120  1.0000
  H   H218      1.0  0.23107  0.33730  0.03951  1.0000
  C   C135      1.0  0.33134  0.28562  0.88519  1.0000
  C   C136      1.0  0.25677  0.33970  0.82047  1.0000
  H   H219      1.0  0.36031  0.57476  0.04291  1.0000
  H   H220      1.0  0.40130  0.15167  0.90289  1.0000
  S   S58       1.0  0.54110  0.42795  0.87379  1.0000
  S   S59       1.0  0.57343  0.51471  0.92703  1.0000
  H   H221      1.0  0.26352  0.36609  0.83379  1.0000
  S   S60       1.0  0.18017  0.21873  0.03478  1.0000
  H   H222      1.0  0.58866  0.58823  0.00097  1.0000
  C   C137      1.0  0.42266  0.14345  0.80008  1.0000
  C   C138      1.0  0.34269  0.60656  0.95755  1.0000
  H   H223      1.0  0.19939  0.57262  0.94352  1.0000
  H   H224      1.0  0.19433  0.52303  0.93482  1.0000
  S   S61       1.0  0.41192  0.51777  0.97606  1.0000
  H   H225      1.0  0.17604  0.53221  0.85355  1.0000
  C   C139      1.0  0.40381  0.62391  0.93629  1.0000
  C   C140      1.0  0.35628  0.57042  0.96678  1.0000
  C   C141      1.0  0.39371  0.56120  0.96100  1.0000
  C   C142      1.0  0.41717  0.58772  0.94500  1.0000
  H   H226      1.0  0.44586  0.58076  0.93991  1.0000
  H   H227      1.0  0.33802  0.54988  0.97901  1.0000
  C   C143      1.0  0.12764  0.16109  0.97133  1.0000
  H   H228      1.0  0.16205  0.61953  0.90736  1.0000
  C   C144      1.0  0.24603  0.56880  0.82937  1.0000
  C   C145      1.0  0.24755  0.52927  0.82665  1.0000
  C   C146      1.0  0.58039  0.33116  0.87329  1.0000
  C   C147      1.0  0.36664  0.63340  0.94267  1.0000
  H   H229      1.0  0.25958  0.51266  0.84849  1.0000
  H   H230      1.0  0.34179  0.21567  0.85857  1.0000
  H   H231      1.0  0.60866  0.51106  0.84765  1.0000
  N   N16       1.0  0.15872  0.55917  0.90278  1.0000
  H   H232      1.0  0.59264  0.47408  0.81827  1.0000
  H   H233      1.0  0.31409  0.61404  0.96312  1.0000
  H   H234      1.0  0.54431  0.53792  0.84944  1.0000
  C   C148      1.0  0.59295  0.61424  0.98454  1.0000
  S   S62       1.0  0.54496  0.61167  0.88847  1.0000
  H   H235      1.0  0.59322  0.34896  0.89479  1.0000
  C   C149      1.0  0.15937  0.59732  0.88633  1.0000
  H   H236      1.0  0.20922  0.57669  0.01921  1.0000
  H   H237      1.0  0.21819  0.55250  0.90294  1.0000
  H   H238      1.0  0.46933  0.58881  0.87330  1.0000
  H   H239      1.0  0.55348  0.34497  0.86577  1.0000
  H   H240      1.0  0.40536  0.41991  0.86485  1.0000
  H   H241      1.0  0.25749  0.58256  0.85286  1.0000
  C   C150      1.0  0.43172  0.41301  0.85239  1.0000
  H   H242      1.0  0.37855  0.22606  0.88984  1.0000
  C   C151      1.0  0.45659  0.61069  0.82031  1.0000
  H   H243      1.0  0.18288  0.60046  0.86718  1.0000
  H   H244      1.0  0.15338  0.50150  0.88514  1.0000
  H   H245      1.0  0.14652  0.16265  0.94771  1.0000
  H   H246      1.0  0.16112  0.30618  0.85032  1.0000
  C   C152      1.0  0.49924  0.41437  0.85342  1.0000
  H   H247      1.0  0.13428  0.47700  0.81082  1.0000
  H   H248      1.0  0.26074  0.22060  0.04032  1.0000
  C   C153      1.0  0.19424  0.55147  0.92182  1.0000
  H   H249      1.0  0.46429  0.43833  0.89494  1.0000
  C   C154      1.0  0.21653  0.60299  0.03234  1.0000
  C   C155      1.0  0.43267  0.39292  0.81980  1.0000
  C   C156      1.0  0.47927  0.60541  0.85090  1.0000
  H   H250      1.0  0.12598  0.52879  0.94182  1.0000
  H   H251      1.0  0.51419  0.52138  0.04534  1.0000
  S   S63       1.0  0.48612  0.51763  0.90069  1.0000
  H   H252      1.0  0.57405  0.30306  0.88532  1.0000
  S   S64       1.0  0.51165  0.55963  0.97640  1.0000
  H   H253      1.0  0.42956  0.59751  0.81907  1.0000
  H   H254      1.0  0.12686  0.53569  0.85916  1.0000
  H   H255      1.0  0.35561  0.44915  0.81406  1.0000
  C   C157      1.0  0.12777  0.55723  0.92893  1.0000
  N   N17       1.0  0.60504  0.32748  0.84156  1.0000
  S   S65       1.0  0.51055  0.46581  0.97194  1.0000
  H   H256      1.0  0.59622  0.57842  0.83198  1.0000
  H   H257      1.0  0.58826  0.38148  0.81949  1.0000
  C   C158      1.0  0.49999  0.39443  0.82080  1.0000
  Fe  Fe30      1.0  0.55197  0.51149  0.98365  1.0000
  C   C159      1.0  0.46508  0.42360  0.86931  1.0000
  H   H258      1.0  0.14465  0.15173  0.99507  1.0000
  Fe  Fe31      1.0  0.52935  0.55889  0.91851  1.0000
  Fe  Fe32      1.0  0.47176  0.51443  0.95954  1.0000
  H   H259      1.0  0.33946  0.31207  0.81699  1.0000
  Fe  Fe33      1.0  0.52868  0.47329  0.91429  1.0000
  H   H260      1.0  0.31647  0.48097  0.81602  1.0000
  C   C160      1.0  0.54097  0.52891  0.82080  1.0000
  C   C161      1.0  0.51443  0.62192  0.85251  1.0000
  C   C162      1.0  0.58610  0.30537  0.81302  1.0000
  H   H261      1.0  0.51991  0.54809  0.80811  1.0000
  H   H262      1.0  0.31850  0.26609  0.81626  1.0000
  H   H263      1.0  0.57293  0.61371  0.96151  1.0000
  H   H264      1.0  0.18152  0.33149  0.03623  1.0000
  H   H265      1.0  0.57811  0.27680  0.82294  1.0000
  C   C163      1.0  0.61376  0.36557  0.82752  1.0000
  H   H266      1.0  0.36086  0.53352  0.80290  1.0000
  C   C164      1.0  0.13160  0.29769  0.85386  1.0000
  C   C165      1.0  0.46678  0.38374  0.80407  1.0000
  H   H267      1.0  0.32872  0.61433  0.04661  1.0000
  H   H268      1.0  0.52611  0.38759  0.80810  1.0000
  H   H269      1.0  0.52947  0.49969  0.82103  1.0000
  H   H270      1.0  0.13309  0.23567  0.81306  1.0000
  H   H271      1.0  0.56032  0.31993  0.80327  1.0000
  C   C166      1.0  0.59170  0.56925  0.80343  1.0000
  H   H272      1.0  0.62232  0.58252  0.92433  1.0000
  Fe  Fe34      1.0  0.26349  0.68687  0.15118  1.0000
  S   S66       1.0  0.29761  0.73905  0.15951  1.0000
  Fe  Fe35      1.0  0.20635  0.70920  0.20708  1.0000
  S   S67       1.0  0.23510  0.76314  0.22135  1.0000
  Fe  Fe36      1.0  0.24204  0.76889  0.16135  1.0000
  S   S68       1.0  0.23013  0.82530  0.13592  1.0000
  Fe  Fe37      1.0  0.28737  0.72860  0.21845  1.0000
  S   S69       1.0  0.33008  0.72804  0.26254  1.0000
  S   S70       1.0  0.20867  0.71757  0.14726  1.0000
  S   S71       1.0  0.25790  0.67397  0.20995  1.0000
  H   H273      1.0  0.17047  0.12463  0.25372  1.0000
  H   H274      1.0  0.15808  0.76721  0.24326  1.0000
  C   C167      1.0  0.16406  0.82255  0.17285  1.0000
  H   H275      1.0  0.36067  0.64254  0.11958  1.0000
  S   S72       1.0  0.20163  0.01200  0.27506  1.0000
  H   H276      1.0  0.48162  0.88613  0.29123  1.0000
  S   S73       1.0  0.60650  0.73428  0.27481  1.0000
  C   C168      1.0  0.31970  0.80491  0.27031  1.0000
  H   H277      1.0  0.14914  0.89460  0.25175  1.0000
  H   H278      1.0  0.30714  0.80478  0.24363  1.0000
  H   H279      1.0  0.44459  0.96515  0.29016  1.0000
  H   H280      1.0  0.47282  0.73530  0.25137  1.0000
  H   H281      1.0  0.44939  0.66980  0.25541  1.0000
  C   C169      1.0  0.14704  0.75475  0.26762  1.0000
  H   H282      1.0  0.17160  0.79385  0.18006  1.0000
  H   H283      1.0  0.57413  0.12005  0.19546  1.0000
  H   H284      1.0  0.23910  0.84257  0.26207  1.0000
  H   H285      1.0  0.49089  0.75841  0.29101  1.0000
  N   N18       1.0  0.21407  0.13379  0.21515  1.0000
  C   C170      1.0  0.51825  0.03194  0.07449  1.0000
  C   C171      1.0  0.13127  0.83880  0.18655  1.0000
  H   H286      1.0  0.16391  0.93547  0.27665  1.0000
  S   S74       1.0  0.15630  0.68616  0.23452  1.0000
  C   C172      1.0  0.58503  0.77391  0.29424  1.0000
  C   C173      1.0  0.18718  0.84364  0.15019  1.0000
  H   H287      1.0  0.51679  0.72059  0.27039  1.0000
  H   H288      1.0  0.13451  0.66382  0.15124  1.0000
  H   H289      1.0  0.60629  0.81244  0.25461  1.0000
  C   C174      1.0  0.32519  0.83937  0.28858  1.0000
  H   H290      1.0  0.20273  0.90023  0.21103  1.0000
  H   H291      1.0  0.41405  0.72210  0.28509  1.0000
  S   S75       1.0  0.46619  0.01374  0.16529  1.0000
  C   C175      1.0  0.33253  0.77096  0.28583  1.0000
  C   C176      1.0  0.60440  0.94192  0.18779  1.0000
  H   H292      1.0  0.38370  0.88736  0.25918  1.0000
  C   C177      1.0  0.47688  0.90126  0.26514  1.0000
  H   H293      1.0  0.16400  0.12022  0.18577  1.0000
  H   H294      1.0  0.57961  0.86952  0.28379  1.0000
  C   C178      1.0  0.59053  0.80971  0.27919  1.0000
  H   H295      1.0  0.39770  0.04864  0.06901  1.0000
  C   C179      1.0  0.39966  0.04554  0.29013  1.0000
  H   H296      1.0  0.61894  0.92110  0.26649  1.0000
  N   N19       1.0  0.20650  0.89336  0.26879  1.0000
  H   H297      1.0  0.19258  0.84009  0.24442  1.0000
  S   S76       1.0  0.55382  0.03833  0.17478  1.0000
  S   S77       1.0  0.52953  0.92675  0.18359  1.0000
  H   H298      1.0  0.44060  0.91373  0.20255  1.0000
  C   C180      1.0  0.14862  0.96708  0.06495  1.0000
  H   H299      1.0  0.19408  0.89653  0.12202  1.0000
  H   H300      1.0  0.41660  0.86405  0.28821  1.0000
  C   C181      1.0  0.51243  0.07068  0.06883  1.0000
  S   S78       1.0  0.40030  0.03202  0.24451  1.0000
  C   C182      1.0  0.57657  0.91444  0.18875  1.0000
  C   C183      1.0  0.41356  0.87934  0.26200  1.0000
  C   C184      1.0  0.23620  0.67116  0.06562  1.0000
  Fe  Fe38      1.0  0.51818  0.98883  0.18936  1.0000
  C   C185      1.0  0.48814  0.73054  0.27724  1.0000
  C   C186      1.0  0.46547  0.66649  0.28105  1.0000
  H   H301      1.0  0.15441  0.63937  0.09045  1.0000
  C   C187      1.0  0.22934  0.90755  0.29923  1.0000
  H   H302      1.0  0.44979  0.95805  0.22384  1.0000
  Fe  Fe39      1.0  0.45725  0.03726  0.22081  1.0000
  S   S79       1.0  0.27865  0.63657  0.11731  1.0000
  H   H303      1.0  0.24097  0.08603  0.18999  1.0000
  H   H304      1.0  0.20278  0.07415  0.21879  1.0000
  C   C188      1.0  0.43244  0.93235  0.22555  1.0000
  H   H305      1.0  0.51634  0.02010  0.10139  1.0000
  H   H306      1.0  0.24615  0.08799  0.23844  1.0000
  C   C189      1.0  0.22659  0.09379  0.21557  1.0000
  H   H307      1.0  0.45107  0.64500  0.29790  1.0000
  H   H308      1.0  0.40309  0.94174  0.22140  1.0000
  C   C190      1.0  0.57555  0.84196  0.29580  1.0000
  H   H309      1.0  0.21768  0.94158  0.23504  1.0000
  C   C191      1.0  0.37091  0.65433  0.09350  1.0000
  C   C192      1.0  0.12541  0.04138  0.05070  1.0000
  N   N20       1.0  0.43755  0.91306  0.26078  1.0000
  C   C193      1.0  0.14758  0.99385  0.09290  1.0000
  C   C194      1.0  0.13508  0.03079  0.08603  1.0000
  H   H310      1.0  0.43052  0.08617  0.06346  1.0000
  C   C195      1.0  0.42716  0.93923  0.29036  1.0000
  H   H311      1.0  0.24908  0.90227  0.22900  1.0000
  H   H312      1.0  0.59713  0.97131  0.18385  1.0000
  C   C196      1.0  0.21961  0.91009  0.23447  1.0000
  H   H313      1.0  0.25921  0.89993  0.29592  1.0000
  C   C197      1.0  0.17657  0.88034  0.13997  1.0000
  S   S80       1.0  0.48692  0.09162  0.20996  1.0000
  H   H314      1.0  0.61475  0.03877  0.21861  1.0000
  H   H315      1.0  0.56492  0.85503  0.19463  1.0000
  H   H316      1.0  0.19730  0.63580  0.14220  1.0000
  S   S81       1.0  0.57657  0.08767  0.26936  1.0000
  Fe  Fe40      1.0  0.14652  0.01229  0.24716  1.0000
  C   C198      1.0  0.41802  0.06111  0.04988  1.0000
  H   H317      1.0  0.48595  0.88213  0.24286  1.0000
  H   H318      1.0  0.15747  0.93828  0.07061  1.0000
  H   H319      1.0  0.49581  0.92602  0.26475  1.0000
  S   S82       1.0  0.14867  0.98399  0.19352  1.0000
  H   H320      1.0  0.24420  0.69762  0.07800  1.0000
  H   H321      1.0  0.42043  0.85905  0.23996  1.0000
  C   C199      1.0  0.20983  0.85166  0.26689  1.0000
  C   C200      1.0  0.58632  0.87639  0.19379  1.0000
  C   C201      1.0  0.62044  0.94565  0.28526  1.0000
  H   H322      1.0  0.34753  0.67111  0.08146  1.0000
  Fe  Fe41      1.0  0.50059  0.06546  0.15632  1.0000
  S   S83       1.0  0.49992  0.09985  0.10520  1.0000
  Fe  Fe42      1.0  0.53780  0.06035  0.22954  1.0000
  S   S84       1.0  0.50681  0.00854  0.24572  1.0000
  S   S85       1.0  0.12880  0.06317  0.12149  1.0000
  C   C202      1.0  0.14377  0.89648  0.15354  1.0000
  H   H323      1.0  0.33999  0.04303  0.29422  1.0000
  H   H324      1.0  0.31695  0.86579  0.27595  1.0000
  H   H325      1.0  0.39386  0.67419  0.09993  1.0000
  H   H326      1.0  0.45913  0.05090  0.29450  1.0000
  H   H327      1.0  0.49326  0.65443  0.27419  1.0000
  H   H328      1.0  0.20174  0.13522  0.15797  1.0000
  H   H329      1.0  0.39765  0.94879  0.28785  1.0000
  H   H330      1.0  0.15642  0.98579  0.11969  1.0000
  C   C203      1.0  0.25027  0.63687  0.07893  1.0000
  C   C204      1.0  0.16717  0.90417  0.27453  1.0000
  H   H331      1.0  0.20053  0.83809  0.29247  1.0000
  H   H332      1.0  0.25275  0.71735  0.28300  1.0000
  H   H333      1.0  0.24072  0.64884  0.28811  1.0000
  C   C205      1.0  0.14304  0.71546  0.27025  1.0000
  H   H334      1.0  0.13565  0.92466  0.14531  1.0000
  C   C206      1.0  0.13500  0.77810  0.29594  1.0000
  H   H335      1.0  0.13679  0.80855  0.29344  1.0000
  H   H336      1.0  0.59323  0.94774  0.29941  1.0000
  N   N21       1.0  0.24354  0.68807  0.33272  1.0000
  H   H337      1.0  0.58737  0.79242  0.53314  1.0000
  Fe  Fe43      1.0  0.40497  0.86545  0.37836  1.0000
  S   S86       1.0  0.44065  0.88439  0.50914  1.0000
  C   C207      1.0  0.36205  0.65316  0.41872  1.0000
  S   S87       1.0  0.39789  0.83197  0.42921  1.0000
  H   H338      1.0  0.43304  0.74458  0.32476  1.0000
  C   C208      1.0  0.34352  0.83960  0.32217  1.0000
  C   C209      1.0  0.35447  0.80538  0.33812  1.0000
  C   C210      1.0  0.34903  0.77119  0.32007  1.0000
  H   H339      1.0  0.36783  0.80510  0.36424  1.0000
  H   H340      1.0  0.35818  0.74496  0.33255  1.0000
  H   H341      1.0  0.43830  0.80557  0.48924  1.0000
  C   C211      1.0  0.35446  0.69313  0.51658  1.0000
  H   H342      1.0  0.42153  0.65355  0.41137  1.0000
  H   H343      1.0  0.20972  0.72908  0.30480  1.0000
  H   H344      1.0  0.23746  0.71817  0.38296  1.0000
  H   H345      1.0  0.36851  0.76246  0.41770  1.0000
  H   H346      1.0  0.51866  0.68482  0.32840  1.0000
  H   H347      1.0  0.50854  0.82196  0.52336  1.0000
  H   H348      1.0  0.53267  0.79957  0.36682  1.0000
  S   S88       1.0  0.53748  0.87905  0.34882  1.0000
  C   C212      1.0  0.17515  0.07171  0.31486  1.0000
  C   C213      1.0  0.39917  0.71016  0.41374  1.0000
  H   H349      1.0  0.30813  0.73202  0.42842  1.0000
  C   C214      1.0  0.36704  0.73213  0.41825  1.0000
  C   C215      1.0  0.33023  0.67531  0.42440  1.0000
  H   H350      1.0  0.28785  0.65638  0.35755  1.0000
  N   N22       1.0  0.35597  0.65678  0.53649  1.0000
  C   C216      1.0  0.28353  0.68076  0.33913  1.0000
  S   S89       1.0  0.44670  0.82553  0.35439  1.0000
  S   S90       1.0  0.28752  0.65428  0.43396  1.0000
  S   S91       1.0  0.35690  0.88216  0.34270  1.0000
  Fe  Fe44      1.0  0.44466  0.86664  0.45095  1.0000
  S   S92       1.0  0.44284  0.73128  0.40847  1.0000
  H   H351      1.0  0.42694  0.74780  0.52421  1.0000
  Fe  Fe45      1.0  0.44316  0.79484  0.40722  1.0000
  C   C217      1.0  0.33273  0.71478  0.42410  1.0000
  H   H352      1.0  0.54562  0.76632  0.54192  1.0000
  C   C218      1.0  0.39661  0.67063  0.41411  1.0000
  C   C219      1.0  0.22452  0.69457  0.36758  1.0000
  H   H353      1.0  0.29738  0.70556  0.35174  1.0000
  Fe  Fe46      1.0  0.26444  0.12624  0.42354  1.0000
  C   C220      1.0  0.43225  0.80797  0.51766  1.0000
  H   H354      1.0  0.40995  0.64161  0.51599  1.0000
  H   H355      1.0  0.41646  0.69712  0.32750  1.0000
  H   H356      1.0  0.54937  0.84948  0.51574  1.0000
  C   C221      1.0  0.43169  0.84340  0.53456  1.0000
  H   H357      1.0  0.19681  0.65978  0.30836  1.0000
  H   H358      1.0  0.22001  0.89574  0.32559  1.0000
  H   H359      1.0  0.37081  0.69169  0.49112  1.0000
  C   C222      1.0  0.52922  0.84056  0.53680  1.0000
  H   H360      1.0  0.36613  0.71662  0.53307  1.0000
  H   H361      1.0  0.49455  0.72406  0.34905  1.0000
  C   C223      1.0  0.24168  0.06043  0.31664  1.0000
  S   S93       1.0  0.48994  0.82711  0.43278  1.0000
  Fe  Fe47      1.0  0.28300  0.06827  0.48102  1.0000
  H   H362      1.0  0.19454  0.70158  0.36343  1.0000
  S   S94       1.0  0.26757  0.01407  0.50793  1.0000
  Fe  Fe48      1.0  0.34310  0.09597  0.43131  1.0000
  S   S95       1.0  0.39870  0.07953  0.40903  1.0000
  C   C224      1.0  0.35979  0.92619  0.44769  1.0000
  H   H363      1.0  0.25277  0.74712  0.32223  1.0000
  H   H364      1.0  0.36622  0.92444  0.41826  1.0000
  S   S96       1.0  0.33933  0.09193  0.49152  1.0000
  S   S97       1.0  0.28865  0.06772  0.42079  1.0000
  C   C225      1.0  0.35616  0.96579  0.50077  1.0000
  H   H365      1.0  0.45817  0.06800  0.35938  1.0000
  H   H366      1.0  0.41140  0.97745  0.42721  1.0000
  H   H367      1.0  0.15535  0.11737  0.34867  1.0000
  H   H368      1.0  0.37790  0.90553  0.46230  1.0000
  C   C226      1.0  0.39523  0.64545  0.54222  1.0000
  H   H369      1.0  0.29836  0.67432  0.31344  1.0000
  C   C227      1.0  0.24589  0.09084  0.34050  1.0000
  C   C228      1.0  0.21469  0.11101  0.35238  1.0000
  H   H370      1.0  0.47646  0.67721  0.35292  1.0000
  C   C229      1.0  0.42588  0.77503  0.53761  1.0000
  C   C230      1.0  0.43148  0.71735  0.30973  1.0000
  H   H371      1.0  0.34592  0.99107  0.41231  1.0000
  C   C231      1.0  0.39846  0.06620  0.36340  1.0000
  C   C232      1.0  0.36512  0.05941  0.34497  1.0000
  S   S98       1.0  0.25356  0.12447  0.48326  1.0000
  C   C233      1.0  0.43233  0.06275  0.34519  1.0000
  H   H372      1.0  0.33887  0.06211  0.35881  1.0000
  H   H373      1.0  0.14773  0.06394  0.30545  1.0000
  C   C234      1.0  0.17940  0.10199  0.33905  1.0000
  H   H374      1.0  0.27332  0.09847  0.34992  1.0000
  C   C235      1.0  0.34030  0.99126  0.44195  1.0000
  H   H375      1.0  0.35853  0.99493  0.51202  1.0000
  N   N23       1.0  0.36512  0.96492  0.46173  1.0000
  H   H376      1.0  0.22599  0.66894  0.38514  1.0000
  H   H377      1.0  0.51408  0.86644  0.54602  1.0000
  H   H378      1.0  0.42386  0.95700  0.47040  1.0000
  H   H379      1.0  0.40889  0.00566  0.46727  1.0000
  H   H380      1.0  0.43044  0.92552  0.31736  1.0000
  C   C236      1.0  0.40408  0.97665  0.45646  1.0000
  H   H381      1.0  0.37507  0.94679  0.51659  1.0000
  H   H382      1.0  0.32709  0.95652  0.50574  1.0000
  H   H383      1.0  0.33053  0.91683  0.45110  1.0000
  S   S99       1.0  0.44732  0.90462  0.40206  1.0000
  H   H384      1.0  0.56023  0.74259  0.33773  1.0000
  H   H385      1.0  0.31049  0.98408  0.44596  1.0000
  H   H386      1.0  0.34436  0.02068  0.45156  1.0000
  H   H387      1.0  0.32542  0.70113  0.50907  1.0000
  C   C237      1.0  0.43291  0.05289  0.30848  1.0000
  Fe  Fe49      1.0  0.48865  0.86184  0.38196  1.0000
  C   C238      1.0  0.55497  0.83843  0.32756  1.0000
  C   C239      1.0  0.54856  0.80247  0.34222  1.0000
  C   C240      1.0  0.56386  0.77020  0.32567  1.0000
  C   C241      1.0  0.49067  0.69704  0.33412  1.0000
  C   C242      1.0  0.22685  0.65509  0.31433  1.0000
  H   H388      1.0  0.26584  0.04435  0.30810  1.0000
  C   C243      1.0  0.23941  0.72199  0.30967  1.0000
  C   C244      1.0  0.36576  0.04867  0.30840  1.0000
  H   H389      1.0  0.22758  0.93900  0.30131  1.0000
  C   C245      1.0  0.20631  0.05060  0.30418  1.0000
  H   H390      1.0  0.61914  0.90806  0.34818  1.0000
  H   H391      1.0  0.46765  0.13196  0.40401  1.0000
  N   N24       1.0  0.46892  0.70287  0.30050  1.0000
  H   H392      1.0  0.15603  0.89159  0.29989  1.0000
  H   H393      1.0  0.12441  0.66919  0.30335  1.0000
  C   C246      1.0  0.12744  0.69956  0.30125  1.0000
  S   S100      1.0  0.43995  0.63950  0.75355  1.0000
  C   C247      1.0  0.42505  0.84568  0.57182  1.0000
  S   S101      1.0  0.25928  0.84242  0.72968  1.0000
  Fe  Fe50      1.0  0.43688  0.73765  0.65497  1.0000
  H   H394      1.0  0.41283  0.81437  0.62051  1.0000
  H   H395      1.0  0.42475  0.87299  0.58502  1.0000
  H   H396      1.0  0.56327  0.87266  0.59424  1.0000
  H   H397      1.0  0.60868  0.85905  0.74793  1.0000
  C   C248      1.0  0.25256  0.82888  0.77458  1.0000
  C   C249      1.0  0.31781  0.10447  0.76161  1.0000
  H   H398      1.0  0.24802  0.76926  0.76339  1.0000
  S   S102      1.0  0.40377  0.72767  0.70517  1.0000
  C   C250      1.0  0.31960  0.90590  0.66787  1.0000
  H   H399      1.0  0.31948  0.90050  0.63819  1.0000
  C   C251      1.0  0.41869  0.81253  0.59193  1.0000
  C   C252      1.0  0.33744  0.66132  0.57189  1.0000
  Fe  Fe51      1.0  0.21754  0.96580  0.78057  1.0000
  C   C253      1.0  0.60131  0.88495  0.66724  1.0000
  C   C254      1.0  0.44410  0.85207  0.77481  1.0000
  S   S103      1.0  0.40950  0.81973  0.76314  1.0000
  S   S104      1.0  0.41250  0.73516  0.59910  1.0000
  H   H400      1.0  0.35014  0.03697  0.77427  1.0000
  Fe  Fe52      1.0  0.43568  0.77630  0.72757  1.0000
  H   H401      1.0  0.31773  0.93714  0.67193  1.0000
  H   H402      1.0  0.25729  0.95902  0.56361  1.0000
  N   N25       1.0  0.62195  0.82657  0.79561  1.0000
  Fe  Fe53      1.0  0.45293  0.69305  0.72339  1.0000
  H   H403      1.0  0.29379  0.89333  0.67902  1.0000
  H   H404      1.0  0.15393  0.87298  0.69721  1.0000
  C   C255      1.0  0.41919  0.77717  0.57476  1.0000
  H   H405      1.0  0.34164  0.12292  0.76894  1.0000
  H   H406      1.0  0.15693  0.81798  0.77118  1.0000
  H   H407      1.0  0.56137  0.05636  0.75061  1.0000
  H   H408      1.0  0.59117  0.83209  0.60610  1.0000
  C   C256      1.0  0.12481  0.86604  0.69476  1.0000
  Fe  Fe54      1.0  0.24546  0.98240  0.70481  1.0000
  S   S105      1.0  0.19536  0.00243  0.73554  1.0000
  S   S106      1.0  0.28332  0.02400  0.67786  1.0000
  Fe  Fe55      1.0  0.23718  0.90162  0.72979  1.0000
  S   S107      1.0  0.18663  0.91429  0.76295  1.0000
  Fe  Fe56      1.0  0.16933  0.94877  0.71499  1.0000
  H   H409      1.0  0.35016  0.92920  0.72978  1.0000
  H   H410      1.0  0.13500  0.80578  0.69267  1.0000
  S   S108      1.0  0.21731  0.93189  0.68017  1.0000
  S   S109      1.0  0.26984  0.95026  0.75142  1.0000
  C   C257      1.0  0.59313  0.98894  0.73401  1.0000
  C   C258      1.0  0.26616  0.98509  0.57624  1.0000
  C   C259      1.0  0.13788  0.82297  0.79443  1.0000
  C   C260      1.0  0.49987  0.90339  0.79354  1.0000
  H   H411      1.0  0.32810  0.88449  0.73822  1.0000
  H   H412      1.0  0.28337  0.03835  0.75448  1.0000
  C   C261      1.0  0.35215  0.89821  0.72476  1.0000
  H   H413      1.0  0.41064  0.66733  0.55780  1.0000
  C   C262      1.0  0.28060  0.02085  0.63050  1.0000
  C   C263      1.0  0.26986  0.98707  0.61395  1.0000
  C   C264      1.0  0.28882  0.05243  0.60911  1.0000
  H   H414      1.0  0.26448  0.96235  0.63003  1.0000
  H   H415      1.0  0.29735  0.07858  0.62178  1.0000
  H   H416      1.0  0.36399  0.71500  0.77899  1.0000
  H   H417      1.0  0.38701  0.93752  0.67293  1.0000
  C   C265      1.0  0.35369  0.84807  0.68033  1.0000
  N   N26       1.0  0.35303  0.88958  0.68560  1.0000
  H   H418      1.0  0.41242  0.89455  0.68254  1.0000
  H   H419      1.0  0.37763  0.88773  0.73874  1.0000
  C   C266      1.0  0.24632  0.79111  0.78385  1.0000
  H   H420      1.0  0.29029  0.07530  0.55497  1.0000
  C   C267      1.0  0.27725  0.05395  0.77994  1.0000
  C   C268      1.0  0.27324  0.01693  0.55494  1.0000
  H   H421      1.0  0.58279  0.06104  0.79432  1.0000
  C   C269      1.0  0.38673  0.90619  0.66950  1.0000
  C   C270      1.0  0.28490  0.05056  0.57131  1.0000
  H   H422      1.0  0.53341  0.79585  0.61843  1.0000
  H   H423      1.0  0.35317  0.84044  0.65111  1.0000
  C   C271      1.0  0.56621  0.78603  0.55412  1.0000
  C   C272      1.0  0.57614  0.84623  0.58336  1.0000
  H   H424      1.0  0.37898  0.83495  0.69266  1.0000
  H   H425      1.0  0.38836  0.90006  0.63999  1.0000
  H   H426      1.0  0.32929  0.83443  0.69326  1.0000
  Fe  Fe57      1.0  0.50849  0.75068  0.69590  1.0000
  S   S110      1.0  0.56951  0.76330  0.69316  1.0000
  H   H427      1.0  0.48650  0.82433  0.74327  1.0000
  H   H428      1.0  0.54295  0.89817  0.67176  1.0000
  C   C273      1.0  0.43593  0.88248  0.79769  1.0000
  H   H429      1.0  0.25492  0.88616  0.79420  1.0000
  N   N27       1.0  0.60601  0.01671  0.76118  1.0000
  H   H430      1.0  0.59731  0.85482  0.56315  1.0000
  S   S111      1.0  0.48370  0.69857  0.67097  1.0000
  C   C274      1.0  0.58125  0.81058  0.68493  1.0000
  S   S112      1.0  0.48241  0.74134  0.74990  1.0000
  H   H431      1.0  0.53537  0.87010  0.75903  1.0000
  N   N28       1.0  0.30892  0.07771  0.79110  1.0000
  S   S113      1.0  0.46403  0.79014  0.67549  1.0000
  H   H432      1.0  0.58100  0.00318  0.70972  1.0000
  H   H433      1.0  0.49841  0.79207  0.58387  1.0000
  C   C275      1.0  0.47998  0.84766  0.76094  1.0000
  H   H434      1.0  0.52558  0.83294  0.68876  1.0000
  C   C276      1.0  0.55417  0.83920  0.68320  1.0000
  C   C277      1.0  0.52022  0.81098  0.59511  1.0000
  C   C278      1.0  0.57419  0.04012  0.77337  1.0000
  H   H435      1.0  0.55202  0.02234  0.78545  1.0000
  H   H436      1.0  0.16563  0.75258  0.79382  1.0000
  C   C279      1.0  0.56410  0.87629  0.67394  1.0000
  C   C280      1.0  0.50778  0.87345  0.77008  1.0000
  H   H437      1.0  0.51303  0.66789  0.77137  1.0000
  N   N29       1.0  0.54794  0.82098  0.56734  1.0000
  H   H438      1.0  0.59957  0.88295  0.78977  1.0000
  C   C281      1.0  0.61853  0.81957  0.67927  1.0000
  H   H439      1.0  0.58051  0.77056  0.57663  1.0000
  H   H440      1.0  0.61633  0.97053  0.72444  1.0000
  H   H441      1.0  0.57446  0.80293  0.76835  1.0000
  H   H442      1.0  0.50596  0.83662  0.60599  1.0000
  C   C282      1.0  0.50332  0.65085  0.79368  1.0000
  H   H443      1.0  0.36397  0.76222  0.79703  1.0000
  C   C283      1.0  0.62229  0.99645  0.79260  1.0000
  H   H444      1.0  0.57141  0.97005  0.74530  1.0000
  H   H445      1.0  0.25161  0.07117  0.77523  1.0000
  H   H446      1.0  0.32529  0.08916  0.73624  1.0000
  C   C284      1.0  0.61913  0.86306  0.77605  1.0000
  S   S114      1.0  0.61342  0.93024  0.65228  1.0000
  H   H447      1.0  0.35147  0.68315  0.58878  1.0000
  H   H448      1.0  0.29371  0.12330  0.75519  1.0000
  H   H449      1.0  0.42959  0.70664  0.79695  1.0000
  H   H450      1.0  0.30791  0.67035  0.56846  1.0000
  C   C285      1.0  0.58506  0.80839  0.79628  1.0000
  C   C286      1.0  0.34154  0.05315  0.79872  1.0000
  Fe  Fe58      1.0  0.23481  0.66314  0.86143  1.0000
  S   S115      1.0  0.27570  0.70970  0.86847  1.0000
  H   H451      1.0  0.60036  0.00321  0.02436  1.0000
  S   S116      1.0  0.24902  0.71498  0.95342  1.0000
  Fe  Fe59      1.0  0.23078  0.73857  0.89981  1.0000
  S   S117      1.0  0.21907  0.79991  0.88991  1.0000
  S   S118      1.0  0.35132  0.67954  0.93366  1.0000
  S   S119      1.0  0.18822  0.69437  0.88859  1.0000
  H   H452      1.0  0.41594  0.09727  0.96463  1.0000
  H   H453      1.0  0.33544  0.03215  0.82041  1.0000
  H   H454      1.0  0.43009  0.75403  0.81464  1.0000
  H   H455      1.0  0.39752  0.66872  0.86363  1.0000
  H   H456      1.0  0.61495  0.85188  0.84816  1.0000
  C   C287      1.0  0.42849  0.08796  0.99073  1.0000
  H   H457      1.0  0.44077  0.03993  0.04596  1.0000
  H   H458      1.0  0.39747  0.73374  0.88870  1.0000
  Fe  Fe60      1.0  0.29049  0.68203  0.92097  1.0000
  C   C288      1.0  0.23620  0.78194  0.81943  1.0000
  C   C289      1.0  0.23232  0.81049  0.84552  1.0000
  C   C290      1.0  0.23854  0.84804  0.83593  1.0000
  H   H459      1.0  0.24654  0.96482  0.96289  1.0000
  H   H460      1.0  0.22975  0.75301  0.82603  1.0000
  C   C291      1.0  0.38442  0.03752  0.99796  1.0000
  N   N30       1.0  0.38523  0.71942  0.83335  1.0000
  H   H461      1.0  0.45050  0.09984  0.83081  1.0000
  C   C292      1.0  0.37893  0.74276  0.86597  1.0000
  H   H462      1.0  0.37455  0.65698  0.02038  1.0000
  C   C293      1.0  0.42403  0.72395  0.82143  1.0000
  H   H463      1.0  0.37126  0.04438  0.97141  1.0000
  H   H464      1.0  0.15507  0.83396  0.81723  1.0000
  H   H465      1.0  0.23467  0.87040  0.85526  1.0000
  H   H466      1.0  0.28382  0.91493  0.93382  1.0000
  H   H467      1.0  0.34992  0.74022  0.87584  1.0000
  S   S120      1.0  0.47317  0.02307  0.82494  1.0000
  H   H468      1.0  0.20219  0.69809  0.02476  1.0000
  Fe  Fe61      1.0  0.51200  0.97754  0.84429  1.0000
  C   C294      1.0  0.37860  0.67909  0.84175  1.0000
  H   H469      1.0  0.45051  0.06682  0.98421  1.0000
  H   H470      1.0  0.29135  0.07945  0.84651  1.0000
  C   C295      1.0  0.18020  0.04399  0.82670  1.0000
  H   H471      1.0  0.44414  0.71454  0.84270  1.0000
  S   S121      1.0  0.17519  0.63825  0.97998  1.0000
  H   H472      1.0  0.24677  0.89956  0.98900  1.0000
  H   H473      1.0  0.61645  0.65159  0.92596  1.0000
  H   H474      1.0  0.45749  0.93154  0.82491  1.0000
  H   H475      1.0  0.42246  0.64460  0.92488  1.0000
  Fe  Fe62      1.0  0.51714  0.00866  0.92006  1.0000
  H   H476      1.0  0.13101  0.08658  0.97765  1.0000
  H   H477      1.0  0.12933  0.09758  0.93017  1.0000
  H   H478      1.0  0.16144  0.76763  0.84019  1.0000
  S   S122      1.0  0.52846  0.11520  0.82738  1.0000
  S   S123      1.0  0.55236  0.01665  0.87079  1.0000
  H   H479      1.0  0.22372  0.86200  0.96509  1.0000
  S   S124      1.0  0.22389  0.98147  0.83930  1.0000
  S   S125      1.0  0.38221  0.01702  0.88420  1.0000
  Fe  Fe63      1.0  0.44472  0.01611  0.87841  1.0000
  Fe  Fe64      1.0  0.51101  0.06183  0.85544  1.0000
  C   C296      1.0  0.33170  0.06874  0.91045  1.0000
  C   C297      1.0  0.36689  0.06271  0.89533  1.0000
  H   H480      1.0  0.31277  0.04528  0.91335  1.0000
  C   C298      1.0  0.20781  0.02741  0.84837  1.0000
  S   S126      1.0  0.13219  0.94230  0.99690  1.0000
  C   C299      1.0  0.21256  0.67144  0.03544  1.0000
  C   C300      1.0  0.21119  0.08504  0.88402  1.0000
  C   C301      1.0  0.22328  0.04791  0.87708  1.0000
  S   S127      1.0  0.53535  0.93415  0.80637  1.0000
  H   H481      1.0  0.59601  0.04871  0.96959  1.0000
  H   H482      1.0  0.24499  0.03532  0.89363  1.0000
  H   H483      1.0  0.19164  0.87492  0.90736  1.0000
  C   C302      1.0  0.16764  0.08086  0.83403  1.0000
  S   S128      1.0  0.22422  0.63942  0.80603  1.0000
  N   N31       1.0  0.22411  0.91541  0.93703  1.0000
  C   C303      1.0  0.39693  0.64080  0.03475  1.0000
  C   C304      1.0  0.19185  0.90565  0.91398  1.0000
  S   S129      1.0  0.54023  0.99256  0.97449  1.0000
  C   C305      1.0  0.46386  0.90819  0.80707  1.0000
  H   H484      1.0  0.29523  0.10919  0.93642  1.0000
  H   H485      1.0  0.51108  0.11576  0.02945  1.0000
  N   N32       1.0  0.40033  0.07164  0.01503  1.0000
  H   H486      1.0  0.19676  0.96399  0.96007  1.0000
  C   C306      1.0  0.39096  0.09308  0.89131  1.0000
  H   H487      1.0  0.22338  0.97365  0.92035  1.0000
  H   H488      1.0  0.38402  0.77328  0.86045  1.0000
  H   H489      1.0  0.19205  0.92164  0.88794  1.0000
  H   H490      1.0  0.16514  0.91233  0.92778  1.0000
  C   C307      1.0  0.13669  0.97716  0.03015  1.0000
  H   H491      1.0  0.41740  0.08882  0.87875  1.0000
  C   C308      1.0  0.29893  0.09901  0.82414  1.0000
  H   H492      1.0  0.22339  0.10081  0.90603  1.0000
  C   C309      1.0  0.45391  0.12471  0.81450  1.0000
  H   H493      1.0  0.26164  0.87581  0.91196  1.0000
  Fe  Fe65      1.0  0.21057  0.66750  0.93924  1.0000
  C   C310      1.0  0.32180  0.10482  0.92343  1.0000
  C   C311      1.0  0.18304  0.10135  0.86271  1.0000
  H   H494      1.0  0.60145  0.97803  0.80591  1.0000
  H   H495      1.0  0.55329  0.65820  0.82537  1.0000
  H   H496      1.0  0.42034  0.66052  0.03980  1.0000
  C   C312      1.0  0.37059  0.09997  0.02141  1.0000
  H   H497      1.0  0.40818  0.88601  0.80844  1.0000
  H   H498      1.0  0.19700  0.89874  0.98626  1.0000
  H   H499      1.0  0.32247  0.11665  0.83389  1.0000
  S   S130      1.0  0.48010  0.05831  0.90804  1.0000
  C   C313      1.0  0.25901  0.90670  0.91766  1.0000
  H   H500      1.0  0.35666  0.10855  0.99564  1.0000
  C   C314      1.0  0.22292  0.89300  0.97086  1.0000
  H   H501      1.0  0.52559  0.07351  0.97746  1.0000
  C   C315      1.0  0.52311  0.06180  0.00442  1.0000
  C   C316      1.0  0.22272  0.95628  0.94552  1.0000
  H   H502      1.0  0.27457  0.11808  0.81940  1.0000
  H   H503      1.0  0.34967  0.67446  0.85118  1.0000
  H   H504      1.0  0.33011  0.72883  0.81202  1.0000
  H   H505      1.0  0.26032  0.92216  0.89133  1.0000
  H   H506      1.0  0.61242  0.07060  0.03033  1.0000
  C   C317      1.0  0.51517  0.08569  0.03382  1.0000
  C   C318      1.0  0.12606  0.01451  0.02279  1.0000
  H   H507      1.0  0.58620  0.78066  0.81063  1.0000
  H   H508      1.0  0.16796  0.02811  0.80481  1.0000
  H   H509      1.0  0.56410  0.82658  0.81019  1.0000
  S   S131      1.0  0.47958  0.96585  0.89467  1.0000
  C   C319      1.0  0.52830  0.02294  0.01013  1.0000
  H   H510      1.0  0.40627  0.01569  0.99267  1.0000
  H   H511      1.0  0.44214  0.11300  0.00314  1.0000
  C   C320      1.0  0.52613  0.64527  0.82419  1.0000
  H   H512      1.0  0.36290  0.02443  0.01538  1.0000
  H   H513      1.0  0.38326  0.66083  0.81758  1.0000
  H   H514      1.0  0.14595  0.09361  0.81756  1.0000
  C   C321      1.0  0.14541  0.75863  0.81586  1.0000
  C   C322      1.0  0.38156  0.12878  0.90473  1.0000
  H   H515      1.0  0.13161  0.73149  0.82276  1.0000
  H   H516      1.0  0.38187  0.12622  0.03388  1.0000
  C   C323      1.0  0.20253  0.63739  0.01902  1.0000
  H   H517      1.0  0.34884  0.08879  0.03977  1.0000
  C   C324      1.0  0.52624  0.00817  0.04522  1.0000
  H   H518      1.0  0.58550  0.63896  0.00178  1.0000
  C   C325      1.0  0.35971  0.73190  0.80407  1.0000
  C   C326      1.0  0.24948  0.85706  0.80087  1.0000
  H   H519      1.0  0.39518  0.13335  0.80625  1.0000
  H   H520      1.0  0.36589  0.06984  0.80807  1.0000
  H   H521      1.0  0.27079  0.03246  0.80096  1.0000
  C   C327      1.0  0.34741  0.13445  0.92164  1.0000
  H   H522      1.0  0.53069  0.97817  0.04979  1.0000
  H   H523      1.0  0.91790  0.55520  0.08902  1.0000
  C   C328      1.0  0.89528  0.50632  0.28671  1.0000
  Fe  Fe66      1.0  0.68771  0.24247  0.17888  1.0000
  S   S132      1.0  0.73724  0.28069  0.18103  1.0000
  S   S133      1.0  0.65691  0.23018  0.12779  1.0000
  Fe  Fe67      1.0  0.68243  0.23535  0.25988  1.0000
  S   S134      1.0  0.73094  0.27298  0.26932  1.0000
  H   H524      1.0  0.77866  0.53922  0.20023  1.0000
  Fe  Fe68      1.0  0.70601  0.30928  0.22594  1.0000
  H   H525      1.0  0.81152  0.59119  0.17083  1.0000
  C   C329      1.0  0.67601  0.19068  0.10631  1.0000
  S   S135      1.0  0.65482  0.27412  0.21998  1.0000
  S   S136      1.0  0.71064  0.19962  0.21811  1.0000
  H   H526      1.0  0.82637  0.61087  0.21323  1.0000
  C   C330      1.0  0.92936  0.57309  0.06696  1.0000
  C   C331      1.0  0.68545  0.19306  0.06975  1.0000
  C   C332      1.0  0.09175  0.45447  0.18932  1.0000
  S   S137      1.0  0.70481  0.37247  0.23241  1.0000
  C   C333      1.0  0.68224  0.15700  0.12550  1.0000
  Fe  Fe69      1.0  0.75750  0.24071  0.22425  1.0000
  H   H527      1.0  0.07970  0.48029  0.17878  1.0000
  H   H528      1.0  0.05889  0.25200  0.28246  1.0000
  C   C334      1.0  0.66250  0.38963  0.24927  1.0000
  H   H529      1.0  0.64773  0.40457  0.09580  1.0000
  S   S138      1.0  0.67066  0.56231  0.25919  1.0000
  C   C335      1.0  0.04222  0.58239  0.05095  1.0000
  H   H530      1.0  0.66691  0.45668  0.13742  1.0000
  C   C336      1.0  0.62940  0.39386  0.11771  1.0000
  H   H531      1.0  0.09398  0.63432  0.14835  1.0000
  H   H532      1.0  0.68058  0.21911  0.05491  1.0000
  C   C337      1.0  0.70255  0.16228  0.05263  1.0000
  C   C338      1.0  0.65641  0.42867  0.25078  1.0000
  C   C339      1.0  0.11578  0.59060  0.26602  1.0000
  H   H533      1.0  0.67871  0.44796  0.24447  1.0000
  H   H534      1.0  0.67421  0.15494  0.15359  1.0000
  C   C340      1.0  0.63382  0.36504  0.25868  1.0000
  H   H535      1.0  0.66588  0.42315  0.17399  1.0000
  C   C341      1.0  0.05608  0.50679  0.06943  1.0000
  H   H536      1.0  0.74297  0.58274  0.15942  1.0000
  H   H537      1.0  0.11360  0.61032  0.08908  1.0000
  H   H538      1.0  0.94442  0.34721  0.23672  1.0000
  H   H539      1.0  0.73323  0.63038  0.17367  1.0000
  H   H540      1.0  0.79503  0.55590  0.24315  1.0000
  H   H541      1.0  0.71059  0.59162  0.19547  1.0000
  S   S139      1.0  0.02138  0.60261  0.11927  1.0000
  H   H542      1.0  0.62955  0.18507  0.20281  1.0000
  H   H543      1.0  0.80292  0.29868  0.24790  1.0000
  H   H544      1.0  0.95818  0.58071  0.07506  1.0000
  C   C342      1.0  0.95990  0.37254  0.24617  1.0000
  H   H545      1.0  0.91284  0.59987  0.06582  1.0000
  H   H546      1.0  0.06840  0.37499  0.23583  1.0000
  H   H547      1.0  0.82510  0.34088  0.29658  1.0000
  C   C343      1.0  0.80318  0.61044  0.19320  1.0000
  H   H548      1.0  0.06141  0.47751  0.07664  1.0000
  H   H549      1.0  0.63971  0.46657  0.17706  1.0000
  S   S140      1.0  0.81566  0.21955  0.23439  1.0000
  N   N33       1.0  0.76809  0.59833  0.21019  1.0000
  C   C344      1.0  0.77214  0.55880  0.22293  1.0000
  C   C345      1.0  0.09669  0.59426  0.29871  1.0000
  C   C346      1.0  0.83604  0.25087  0.26537  1.0000
  C   C347      1.0  0.82305  0.28821  0.26741  1.0000
  H   H550      1.0  0.73278  0.61576  0.25404  1.0000
  C   C348      1.0  0.73742  0.60080  0.18345  1.0000
  C   C349      1.0  0.06988  0.42919  0.20896  1.0000
  H   H551      1.0  0.81455  0.13812  0.21636  1.0000
  H   H552      1.0  0.74614  0.54865  0.23579  1.0000
  C   C350      1.0  0.08529  0.39485  0.22099  1.0000
  Fe  Fe70      1.0  0.00650  0.57414  0.17149  1.0000
  S   S141      1.0  0.96703  0.52541  0.17601  1.0000
  Fe  Fe71      1.0  0.02151  0.57793  0.25167  1.0000
  S   S142      1.0  0.98434  0.52940  0.26378  1.0000
  Fe  Fe72      1.0  0.00961  0.50215  0.21500  1.0000
  S   S143      1.0  0.02356  0.44024  0.21949  1.0000
  Fe  Fe73      1.0  0.94493  0.55666  0.22433  1.0000
  S   S144      1.0  0.88449  0.56402  0.23839  1.0000
  S   S145      1.0  0.05097  0.54831  0.20650  1.0000
  S   S146      1.0  0.98027  0.60792  0.21613  1.0000
  C   C351      1.0  0.03714  0.57029  0.08669  1.0000
  H   H553      1.0  0.10192  0.59733  0.24085  1.0000
  C   C352      1.0  0.04403  0.53246  0.09594  1.0000
  H   H554      1.0  0.89340  0.36582  0.27759  1.0000
  H   H555      1.0  0.04014  0.52290  0.12350  1.0000
  C   C353      1.0  0.86322  0.23805  0.28987  1.0000
  H   H556      1.0  0.95311  0.39637  0.22739  1.0000
  H   H557      1.0  0.99016  0.36643  0.24320  1.0000
  C   C354      1.0  0.87490  0.53901  0.27826  1.0000
  C   C355      1.0  0.91021  0.39047  0.28645  1.0000
  H   H558      1.0  0.91462  0.49471  0.26734  1.0000
  H   H559      1.0  0.64562  0.37232  0.13345  1.0000
  H   H560      1.0  0.90200  0.41512  0.26928  1.0000
  N   N34       1.0  0.95048  0.38224  0.28397  1.0000
  H   H561      1.0  0.00220  0.41077  0.29337  1.0000
  C   C356      1.0  0.97168  0.41589  0.29539  1.0000
  H   H562      1.0  0.83258  0.57816  0.29632  1.0000
  H   H563      1.0  0.78170  0.62148  0.26241  1.0000
  S   S147      1.0  0.04926  0.60589  0.29871  1.0000
  H   H564      1.0  0.87355  0.20924  0.28821  1.0000
  H   H565      1.0  0.96505  0.44082  0.27796  1.0000
  H   H566      1.0  0.93931  0.49831  0.05538  1.0000
  H   H567      1.0  0.07792  0.17712  0.29685  1.0000
  H   H568      1.0  0.10152  0.56524  0.13972  1.0000
  H   H569      1.0  0.76736  0.17893  0.28089  1.0000
  C   C357      1.0  0.64860  0.44372  0.15814  1.0000
  H   H570      1.0  0.63870  0.33512  0.25958  1.0000
  C   C358      1.0  0.83587  0.31222  0.29480  1.0000
  H   H571      1.0  0.79992  0.16107  0.17532  1.0000
  C   C359      1.0  0.75967  0.62332  0.24121  1.0000
  C   C360      1.0  0.12274  0.38626  0.21422  1.0000
  H   H572      1.0  0.72129  0.17085  0.29751  1.0000
  C   C361      1.0  0.84835  0.55279  0.30267  1.0000
  H   H573      1.0  0.99639  0.63004  0.35656  1.0000
  H   H574      1.0  0.90185  0.39696  0.31479  1.0000
  C   C362      1.0  0.71688  0.55990  0.31867  1.0000
  H   H575      1.0  0.65586  0.48520  0.32147  1.0000
  H   H576      1.0  0.62803  0.59374  0.31726  1.0000
  C   C363      1.0  0.11427  0.26353  0.30156  1.0000
  H   H577      1.0  0.66123  0.50623  0.40197  1.0000
  C   C364      1.0  0.92021  0.15227  0.42093  1.0000
  H   H578      1.0  0.99033  0.34292  0.30650  1.0000
  C   C365      1.0  0.75889  0.21818  0.34208  1.0000
  C   C366      1.0  0.64285  0.24906  0.33702  1.0000
  N   N35       1.0  0.76312  0.17668  0.33881  1.0000
  C   C367      1.0  0.92293  0.57496  0.37906  1.0000
  H   H579      1.0  0.70985  0.16583  0.36272  1.0000
  H   H580      1.0  0.76703  0.22818  0.36953  1.0000
  H   H581      1.0  0.72953  0.22730  0.33734  1.0000
  H   H582      1.0  0.11381  0.41643  0.33536  1.0000
  S   S148      1.0  0.70709  0.58880  0.42427  1.0000
  C   C368      1.0  0.89072  0.48861  0.32028  1.0000
  C   C369      1.0  0.07262  0.14946  0.31036  1.0000
  C   C370      1.0  0.63622  0.49135  0.39139  1.0000
  C   C371      1.0  0.72481  0.56493  0.35564  1.0000
  C   C372      1.0  0.69762  0.57999  0.37858  1.0000
  C   C373      1.0  0.66260  0.58966  0.36472  1.0000
  C   C374      1.0  0.65486  0.58511  0.32787  1.0000
  S   S149      1.0  0.85898  0.61302  0.52149  1.0000
  H   H583      1.0  0.75194  0.55741  0.36633  1.0000
  H   H584      1.0  0.69626  0.48033  0.34976  1.0000
  C   C375      1.0  0.11535  0.58754  0.33144  1.0000
  H   H585      1.0  0.10702  0.47938  0.30384  1.0000
  H   H586      1.0  0.03847  0.29626  0.53843  1.0000
  C   C376      1.0  0.66698  0.43056  0.39674  1.0000
  Fe  Fe74      1.0  0.75876  0.55983  0.44469  1.0000
  C   C377      1.0  0.07555  0.26557  0.30311  1.0000
  H   H587      1.0  0.93153  0.54861  0.36475  1.0000
  H   H588      1.0  0.96547  0.42376  0.32392  1.0000
  H   H589      1.0  0.95360  0.35651  0.33663  1.0000
  C   C378      1.0  0.91739  0.25917  0.54104  1.0000
  S   S150      1.0  0.76649  0.44790  0.52935  1.0000
  H   H590      1.0  0.64128  0.60063  0.38249  1.0000
  H   H591      1.0  0.90756  0.46425  0.32739  1.0000
  S   S151      1.0  0.76840  0.49781  0.43646  1.0000
  S   S152      1.0  0.76902  0.55759  0.50458  1.0000
  Fe  Fe75      1.0  0.94767  0.30605  0.46711  1.0000
  S   S153      1.0  0.99805  0.27017  0.45640  1.0000
  S   S154      1.0  0.93483  0.33156  0.52112  1.0000
  Fe  Fe76      1.0  0.92163  0.30481  0.38946  1.0000
  S   S155      1.0  0.96922  0.26869  0.37112  1.0000
  S   S156      1.0  0.87731  0.32988  0.35414  1.0000
  Fe  Fe77      1.0  0.95929  0.23592  0.42209  1.0000
  C   C379      1.0  0.65162  0.28609  0.32688  1.0000
  Fe  Fe78      1.0  0.00386  0.30599  0.40662  1.0000
  S   S157      1.0  0.05890  0.33045  0.39166  1.0000
  S   S158      1.0  0.90794  0.26881  0.43713  1.0000
  S   S159      1.0  0.95711  0.34513  0.42053  1.0000
  H   H592      1.0  0.09955  0.13898  0.32144  1.0000
  N   N36       1.0  0.04429  0.15313  0.33906  1.0000
  H   H593      1.0  0.82063  0.33403  0.46862  1.0000
  C   C380      1.0  0.98177  0.60523  0.36825  1.0000
  C   C381      1.0  0.07994  0.30502  0.35668  1.0000
  C   C382      1.0  0.05841  0.28648  0.33063  1.0000
  H   H594      1.0  0.67881  0.43998  0.32553  1.0000
  C   C383      1.0  0.84730  0.34661  0.45963  1.0000
  H   H595      1.0  0.90146  0.61461  0.31993  1.0000
  H   H596      1.0  0.02866  0.28923  0.33088  1.0000
  C   C384      1.0  0.85597  0.15528  0.44037  1.0000
  S   S160      1.0  0.96431  0.17270  0.41863  1.0000
  C   C385      1.0  0.86215  0.29917  0.31997  1.0000
  C   C386      1.0  0.87613  0.26215  0.31736  1.0000
  H   H597      1.0  0.85055  0.34026  0.43025  1.0000
  H   H598      1.0  0.89633  0.25183  0.33683  1.0000
  H   H599      1.0  0.03636  0.18416  0.38853  1.0000
  H   H600      1.0  0.89814  0.19428  0.45723  1.0000
  H   H601      1.0  0.64971  0.42284  0.42057  1.0000
  H   H602      1.0  0.81722  0.43726  0.45136  1.0000
  C   C387      1.0  0.89203  0.16981  0.44091  1.0000
  H   H603      1.0  0.87010  0.33178  0.47448  1.0000
  C   C388      1.0  0.80258  0.16620  0.34447  1.0000
  H   H604      1.0  0.73776  0.54780  0.30110  1.0000
  H   H605      1.0  0.06157  0.20904  0.35438  1.0000
  C   C389      1.0  0.64329  0.31654  0.34974  1.0000
  H   H606      1.0  0.83412  0.16941  0.45534  1.0000
  C   C390      1.0  0.11870  0.30319  0.35489  1.0000
  N   N37       1.0  0.94103  0.60867  0.36356  1.0000
  H   H607      1.0  0.88684  0.39839  0.42359  1.0000
  H   H608      1.0  0.92166  0.25136  0.51309  1.0000
  H   H609      1.0  0.82062  0.17907  0.32348  1.0000
  H   H610      1.0  0.10067  0.59047  0.35681  1.0000
  C   C391      1.0  0.68178  0.56992  0.30483  1.0000
  Fe  Fe79      1.0  0.78448  0.49692  0.49521  1.0000
  H   H611      1.0  0.98671  0.16917  0.34362  1.0000
  C   C392      1.0  0.88341  0.40356  0.45316  1.0000
  N   N38       1.0  0.64653  0.45627  0.37190  1.0000
  S   S161      1.0  0.81685  0.57677  0.43018  1.0000
  H   H612      1.0  0.88451  0.43476  0.45720  1.0000
  H   H613      1.0  0.69294  0.44373  0.40710  1.0000
  S   S162      1.0  0.86307  0.48228  0.38823  1.0000
  H   H614      1.0  0.81850  0.38345  0.51682  1.0000
  C   C393      1.0  0.93195  0.61168  0.32454  1.0000
  S   S163      1.0  0.84467  0.50860  0.48592  1.0000
  H   H615      1.0  0.86831  0.38132  0.52114  1.0000
  C   C394      1.0  0.84495  0.39480  0.50585  1.0000
  C   C395      1.0  0.81672  0.40619  0.44729  1.0000
  H   H616      1.0  0.81284  0.17596  0.37134  1.0000
  C   C396      1.0  0.92495  0.59378  0.48860  1.0000
  H   H617      1.0  0.97774  0.58000  0.46407  1.0000
  H   H618      1.0  0.91427  0.56533  0.48644  1.0000
  C   C397      1.0  0.86515  0.50296  0.34519  1.0000
  C   C398      1.0  0.84330  0.53459  0.33611  1.0000
  H   H619      1.0  0.99725  0.27061  0.54952  1.0000
  C   C399      1.0  0.05709  0.18065  0.36648  1.0000
  H   H620      1.0  0.82323  0.54555  0.35516  1.0000
  H   H621      1.0  0.78944  0.39598  0.45736  1.0000
  H   H622      1.0  0.77679  0.23322  0.32226  1.0000
  C   C400      1.0  0.90340  0.62225  0.50469  1.0000
  H   H623      1.0  0.90771  0.39088  0.46763  1.0000
  C   C401      1.0  0.62539  0.31012  0.38261  1.0000
  N   N39       1.0  0.84809  0.38778  0.46651  1.0000
  H   H624      1.0  0.67463  0.40350  0.38307  1.0000
  Fe  Fe80      1.0  0.82805  0.56957  0.48960  1.0000
  H   H625      1.0  0.89214  0.57728  0.37715  1.0000
  H   H626      1.0  0.98982  0.60353  0.39736  1.0000
  H   H627      1.0  0.74826  0.16618  0.39420  1.0000
  C   C402      1.0  0.73977  0.15802  0.36627  1.0000
  C   C403      1.0  0.96080  0.60208  0.47605  1.0000
  H   H628      1.0  0.99300  0.57958  0.35450  1.0000
  H   H629      1.0  0.84526  0.42563  0.51202  1.0000
  Fe  Fe81      1.0  0.82768  0.51414  0.42768  1.0000
  H   H630      1.0  0.81807  0.40110  0.41754  1.0000
  C   C404      1.0  0.00887  0.16643  0.32281  1.0000
  H   H631      1.0  0.94150  0.58620  0.30943  1.0000
  C   C405      1.0  0.67043  0.46584  0.34080  1.0000
  H   H632      1.0  0.99870  0.14619  0.30190  1.0000
  H   H633      1.0  0.93004  0.57129  0.40822  1.0000
  C   C406      1.0  0.96016  0.35000  0.30788  1.0000
  H   H634      1.0  0.66408  0.29156  0.30104  1.0000
  C   C407      1.0  0.75124  0.16440  0.30234  1.0000
  H   H635      1.0  0.64948  0.34510  0.34123  1.0000
  C   C408      1.0  0.62588  0.24246  0.37040  1.0000
  H   H636      1.0  0.08378  0.17139  0.37918  1.0000
  S   S164      1.0  0.65319  0.21128  0.30782  1.0000
  H   H637      1.0  0.01201  0.19457  0.30964  1.0000
  H   H638      1.0  0.94421  0.32421  0.30045  1.0000
  H   H639      1.0  0.76620  0.30955  0.69613  1.0000
  S   S165      1.0  0.75292  0.30263  0.77313  1.0000
  S   S166      1.0  0.10815  0.40323  0.67546  1.0000
  H   H640      1.0  0.91982  0.61164  0.62953  1.0000
  C   C409      1.0  0.78130  0.32047  0.67204  1.0000
  H   H641      1.0  0.65040  0.36459  0.72768  1.0000
  H   H642      1.0  0.01990  0.26030  0.64752  1.0000
  Fe  Fe82      1.0  0.74482  0.36578  0.77353  1.0000
  H   H643      1.0  0.77793  0.29940  0.64992  1.0000
  H   H644      1.0  0.76708  0.34710  0.66338  1.0000
  Fe  Fe83      1.0  0.76815  0.43702  0.73389  1.0000
  S   S167      1.0  0.72941  0.47408  0.76562  1.0000
  Fe  Fe84      1.0  0.68821  0.42735  0.75851  1.0000
  H   H645      1.0  0.81970  0.49565  0.56658  1.0000
  S   S168      1.0  0.72498  0.39310  0.72206  1.0000
  C   C410      1.0  0.76997  0.43341  0.63785  1.0000
  C   C411      1.0  0.76105  0.42987  0.60101  1.0000
  H   H646      1.0  0.75563  0.41646  0.65742  1.0000
  H   H647      1.0  0.73984  0.41018  0.59252  1.0000
  C   C412      1.0  0.97056  0.33698  0.78294  1.0000
  S   S169      1.0  0.79110  0.40680  0.78268  1.0000
  H   H648      1.0  0.82874  0.52964  0.77715  1.0000
  C   C413      1.0  0.77864  0.45254  0.57525  1.0000
  H   H649      1.0  0.11890  0.41882  0.75169  1.0000
  Fe  Fe85      1.0  0.99232  0.23364  0.72859  1.0000
  S   S170      1.0  0.95047  0.27094  0.70072  1.0000
  S   S171      1.0  0.05406  0.24089  0.72233  1.0000
  Fe  Fe86      1.0  0.93328  0.18568  0.76400  1.0000
  S   S172      1.0  0.88613  0.21897  0.73970  1.0000
  H   H650      1.0  0.08449  0.31112  0.58584  1.0000
  Fe  Fe87      1.0  0.92010  0.21730  0.68906  1.0000
  S   S173      1.0  0.89472  0.20538  0.63473  1.0000
  Fe  Fe88      1.0  0.92052  0.26940  0.75363  1.0000
  S   S174      1.0  0.96470  0.17949  0.71212  1.0000
  S   S175      1.0  0.96485  0.23634  0.78292  1.0000
  H   H651      1.0  0.06882  0.47534  0.71392  1.0000
  C   C414      1.0  0.82418  0.35403  0.71069  1.0000
  C   C415      1.0  0.90824  0.23126  0.56642  1.0000
  S   S176      1.0  0.89664  0.32210  0.77807  1.0000
  C   C416      1.0  0.93494  0.34737  0.79436  1.0000
  H   H652      1.0  0.86976  0.57598  0.66241  1.0000
  H   H653      1.0  0.81155  0.34251  0.73582  1.0000
  H   H654      1.0  0.05846  0.27845  0.79819  1.0000
  C   C417      1.0  0.90800  0.27846  0.61383  1.0000
  C   C418      1.0  0.90401  0.24081  0.60292  1.0000
  H   H655      1.0  0.03581  0.37548  0.69353  1.0000
  C   C419      1.0  0.05553  0.35228  0.69587  1.0000
  H   H656      1.0  0.90417  0.28604  0.64177  1.0000
  H   H657      1.0  0.02923  0.34634  0.78841  1.0000
  H   H658      1.0  0.09957  0.32664  0.77165  1.0000
  C   C420      1.0  0.06869  0.28626  0.70965  1.0000
  H   H659      1.0  0.03756  0.47917  0.77444  1.0000
  H   H660      1.0  0.82681  0.37014  0.63981  1.0000
  H   H661      1.0  0.83811  0.26962  0.66869  1.0000
  H   H662      1.0  0.86826  0.29492  0.69913  1.0000
  H   H663      1.0  0.06857  0.22916  0.61127  1.0000
  H   H664      1.0  0.82291  0.59410  0.66193  1.0000
  H   H665      1.0  0.84219  0.57352  0.62173  1.0000
  H   H666      1.0  0.83777  0.32291  0.62477  1.0000
  H   H667      1.0  0.91080  0.46865  0.79818  1.0000
  C   C421      1.0  0.05494  0.24069  0.58636  1.0000
  C   C422      1.0  0.09314  0.35826  0.68857  1.0000
  H   H668      1.0  0.99793  0.15764  0.79567  1.0000
  H   H669      1.0  0.82447  0.27797  0.71488  1.0000
  H   H670      1.0  0.97410  0.31505  0.76304  1.0000
  C   C423      1.0  0.79721  0.45888  0.64911  1.0000
  N   N40       1.0  0.82096  0.32694  0.68044  1.0000
  H   H671      1.0  0.06423  0.52043  0.78582  1.0000
  H   H672      1.0  0.99229  0.29797  0.62831  1.0000
  H   H673      1.0  0.86956  0.34790  0.65372  1.0000
  C   C424      1.0  0.83874  0.29072  0.69110  1.0000
  C   C425      1.0  0.09545  0.43151  0.76706  1.0000
  C   C426      1.0  0.88286  0.47808  0.78844  1.0000
  H   H674      1.0  0.07795  0.29479  0.63130  1.0000
  H   H675      1.0  0.04945  0.33251  0.61379  1.0000
  C   C427      1.0  0.06310  0.30509  0.60669  1.0000
  C   C428      1.0  0.04341  0.31639  0.70666  1.0000
  H   H676      1.0  0.01455  0.31227  0.71280  1.0000
  H   H677      1.0  0.91987  0.33557  0.59696  1.0000
  C   C429      1.0  0.91655  0.30648  0.58840  1.0000
  S   S177      1.0  0.80914  0.46306  0.69524  1.0000
  C   C430      1.0  0.84879  0.59152  0.64567  1.0000
  C   C431      1.0  0.83960  0.34261  0.64821  1.0000
  C   C432      1.0  0.00729  0.27114  0.62186  1.0000
  H   H678      1.0  0.00278  0.31838  0.56497  1.0000
  H   H679      1.0  0.85375  0.36023  0.71730  1.0000
  H   H680      1.0  0.81019  0.38140  0.70417  1.0000
  H   H681      1.0  0.88663  0.49466  0.76309  1.0000
  H   H682      1.0  0.98613  0.25019  0.61297  1.0000
  H   H683      1.0  0.83684  0.50044  0.63173  1.0000
  N   N41       1.0  0.03580  0.27704  0.59377  1.0000
  H   H684      1.0  0.09745  0.42097  0.79539  1.0000
  H   H685      1.0  0.86695  0.45222  0.78114  1.0000
  N   N42       1.0  0.09639  0.47332  0.76573  1.0000
  H   H686      1.0  0.74353  0.22535  0.79551  1.0000
  C   C433      1.0  0.00184  0.35465  0.79745  1.0000
  C   C434      1.0  0.81552  0.48093  0.62323  1.0000
  H   H687      1.0  0.06924  0.42033  0.75511  1.0000
  C   C435      1.0  0.80592  0.47815  0.58637  1.0000
  C   C436      1.0  0.10633  0.29228  0.70228  1.0000
  H   H688      1.0  0.05989  0.63498  0.78292  1.0000
  C   C437      1.0  0.06446  0.48888  0.78605  1.0000
  C   C438      1.0  0.89692  0.62420  0.61298  1.0000
  C   C439      1.0  0.09422  0.48618  0.72767  1.0000
  C   C440      1.0  0.01785  0.29117  0.56023  1.0000
  H   H689      1.0  0.90526  0.20211  0.55789  1.0000
  H   H690      1.0  0.11843  0.47572  0.71179  1.0000
  H   H691      1.0  0.80883  0.48760  0.79579  1.0000
  H   H692      1.0  0.82611  0.63111  0.58808  1.0000
  C   C441      1.0  0.11859  0.32829  0.69198  1.0000
  H   H693      1.0  0.11692  0.25694  0.77177  1.0000
  H   H694      1.0  0.89231  0.60518  0.58942  1.0000
  C   C442      1.0  0.03161  0.62948  0.79113  1.0000
  H   H695      1.0  0.09386  0.51764  0.72572  1.0000
  N   N43       1.0  0.86258  0.62905  0.63440  1.0000
  H   H696      1.0  0.03503  0.21894  0.57651  1.0000
  S   S178      1.0  0.62769  0.44009  0.74921  1.0000
  H   H697      1.0  0.07676  0.24400  0.56535  1.0000
  C   C443      1.0  0.92150  0.29678  0.55205  1.0000
  C   C444      1.0  0.11395  0.32897  0.79826  1.0000
  C   C445      1.0  0.74207  0.30553  0.84639  1.0000
  H   H698      1.0  0.06443  0.17804  0.93694  1.0000
  H   H699      1.0  0.73184  0.19666  0.85583  1.0000
  C   C446      1.0  0.73537  0.28933  0.88036  1.0000
  C   C447      1.0  0.89004  0.54418  0.02173  1.0000
  Fe  Fe89      1.0  0.74062  0.16975  0.93526  1.0000
  C   C448      1.0  0.73203  0.25005  0.88393  1.0000
  C   C449      1.0  0.73509  0.22694  0.85334  1.0000
  C   C450      1.0  0.96202  0.39416  0.83455  1.0000
  H   H700      1.0  0.86187  0.27814  0.85916  1.0000
  H   H701      1.0  0.73337  0.30724  0.90406  1.0000
  N   N44       1.0  0.86324  0.50056  0.81630  1.0000
  H   H702      1.0  0.74561  0.33578  0.84410  1.0000
  C   C451      1.0  0.05324  0.55647  0.02423  1.0000
  C   C452      1.0  0.90492  0.63134  0.91509  1.0000
  C   C453      1.0  0.74151  0.24319  0.81923  1.0000
  H   H703      1.0  0.65489  0.59150  0.01968  1.0000
  C   C454      1.0  0.65720  0.61767  0.00298  1.0000
  S   S179      1.0  0.72475  0.23080  0.92705  1.0000
  H   H704      1.0  0.88577  0.46755  0.86045  1.0000
  H   H705      1.0  0.92850  0.60415  0.99961  1.0000
  H   H706      1.0  0.80742  0.19200  0.83657  1.0000
  C   C455      1.0  0.69107  0.55495  0.84911  1.0000
  C   C456      1.0  0.82638  0.51244  0.80228  1.0000
  N   N45       1.0  0.92882  0.55318  0.03178  1.0000
  H   H707      1.0  0.91270  0.52678  0.83705  1.0000
  S   S180      1.0  0.76511  0.46986  0.86458  1.0000
  C   C457      1.0  0.74346  0.58069  0.88189  1.0000
  C   C458      1.0  0.74265  0.51398  0.86613  1.0000
  C   C459      1.0  0.70807  0.51911  0.84933  1.0000
  C   C460      1.0  0.76016  0.54467  0.88274  1.0000
  H   H708      1.0  0.65932  0.30505  0.82899  1.0000
  H   H709      1.0  0.87646  0.52658  0.04279  1.0000
  H   H710      1.0  0.63467  0.27897  0.86289  1.0000
  H   H711      1.0  0.78706  0.54077  0.89535  1.0000
  H   H712      1.0  0.07148  0.25502  0.83951  1.0000
  C   C461      1.0  0.70878  0.58581  0.86520  1.0000
  S   S181      1.0  0.78277  0.15708  0.97876  1.0000
  C   C462      1.0  0.93053  0.37654  0.81968  1.0000
  H   H713      1.0  0.87062  0.55223  0.84604  1.0000
  S   S182      1.0  0.70448  0.39655  0.80926  1.0000
  C   C463      1.0  0.98817  0.59763  0.83039  1.0000
  C   C464      1.0  0.64049  0.58337  0.94885  1.0000
  H   H714      1.0  0.84173  0.45149  0.84351  1.0000
  H   H715      1.0  0.66438  0.55893  0.83627  1.0000
  H   H716      1.0  0.81089  0.52957  0.82261  1.0000
  C   C465      1.0  0.83771  0.18715  0.84096  1.0000
  H   H717      1.0  0.90915  0.20879  0.84152  1.0000
  H   H718      1.0  0.88881  0.52805  0.99587  1.0000
  C   C466      1.0  0.83594  0.21941  0.89852  1.0000
  C   C467      1.0  0.84331  0.61084  0.93167  1.0000
  H   H719      1.0  0.84400  0.49324  0.87093  1.0000
  H   H720      1.0  0.94642  0.56291  0.97726  1.0000
  H   H721      1.0  0.90789  0.23209  0.88472  1.0000
  C   C468      1.0  0.84917  0.25437  0.84382  1.0000
  C   C469      1.0  0.07349  0.28223  0.82442  1.0000
  N   N46       1.0  0.85430  0.21777  0.86281  1.0000
  H   H722      1.0  0.03727  0.61175  0.04380  1.0000
  H   H723      1.0  0.85102  0.18503  0.81387  1.0000
  H   H724      1.0  0.11734  0.19021  0.97732  1.0000
  H   H725      1.0  0.63054  0.50329  0.80452  1.0000
  C   C470      1.0  0.89442  0.20991  0.86793  1.0000
  H   H726      1.0  0.68662  0.62032  0.99422  1.0000
  H   H727      1.0  0.84139  0.15919  0.85453  1.0000
  H   H728      1.0  0.71095  0.16490  0.02472  1.0000
  H   H729      1.0  0.83968  0.19238  0.91374  1.0000
  H   H730      1.0  0.93018  0.60922  0.82022  1.0000
  H   H731      1.0  0.10006  0.35222  0.81355  1.0000
  C   C471      1.0  0.63996  0.30797  0.85232  1.0000
  H   H732      1.0  0.66970  0.58420  0.93901  1.0000
  Fe  Fe90      1.0  0.04200  0.49323  0.94780  1.0000
  S   S183      1.0  0.99585  0.45378  0.93280  1.0000
  S   S184      1.0  0.07295  0.48562  0.00027  1.0000
  Fe  Fe91      1.0  0.03701  0.53555  0.87661  1.0000
  S   S185      1.0  0.99047  0.50008  0.85545  1.0000
  Fe  Fe92      1.0  0.74879  0.44032  0.81351  1.0000
  Fe  Fe93      1.0  0.96780  0.50647  0.91154  1.0000
  S   S186      1.0  0.90708  0.51670  0.92163  1.0000
  Fe  Fe94      1.0  0.02309  0.45155  0.87837  1.0000
  C   C472      1.0  0.07493  0.14874  0.93253  1.0000
  S   S187      1.0  0.01184  0.54623  0.93104  1.0000
  S   S188      1.0  0.07159  0.48633  0.89512  1.0000
  H   H733      1.0  0.94522  0.58703  0.90593  1.0000
  H   H734      1.0  0.83645  0.55048  0.93707  1.0000
  S   S189      1.0  0.03751  0.40195  0.84352  1.0000
  H   H735      1.0  0.95130  0.50220  0.00828  1.0000
  C   C473      1.0  0.94515  0.57774  0.00371  1.0000
  H   H736      1.0  0.06523  0.47952  0.81480  1.0000
  H   H737      1.0  0.05958  0.16033  0.00219  1.0000
  H   H738      1.0  0.75774  0.60447  0.89363  1.0000
  C   C474      1.0  0.99767  0.38263  0.82379  1.0000
  C   C475      1.0  0.85547  0.57300  0.93043  1.0000
  C   C476      1.0  0.89224  0.56425  0.92125  1.0000
  C   C477      1.0  0.74488  0.28253  0.81575  1.0000
  H   H739      1.0  0.69434  0.49535  0.83676  1.0000
  H   H740      1.0  0.95873  0.41579  0.85501  1.0000
  C   C478      1.0  0.06008  0.51861  0.03344  1.0000
  H   H741      1.0  0.80551  0.22462  0.89574  1.0000
  H   H742      1.0  0.81919  0.26138  0.83991  1.0000
  H   H743      1.0  0.05709  0.56595  0.99666  1.0000
  C   C479      1.0  0.95841  0.61461  0.81180  1.0000
  H   H744      1.0  0.97403  0.58604  0.01085  1.0000
  H   H745      1.0  0.81496  0.61728  0.93903  1.0000
  C   C480      1.0  0.85854  0.47716  0.84916  1.0000
  H   H746      1.0  0.84735  0.24253  0.91560  1.0000
  C   C481      1.0  0.91685  0.59346  0.91315  1.0000
  C   C482      1.0  0.02475  0.60440  0.81970  1.0000
  S   S190      1.0  0.06152  0.58022  0.84125  1.0000
  C   C483      1.0  0.95081  0.51771  0.03457  1.0000
  H   H747      1.0  0.65497  0.32382  0.87388  1.0000
  H   H748      1.0  0.98274  0.57946  0.85318  1.0000
  H   H749      1.0  0.90297  0.38456  0.82864  1.0000
  H   H750      1.0  0.10062  0.56376  0.91563  1.0000
  H   H751      1.0  0.89920  0.18203  0.88151  1.0000
  H   H752      1.0  0.88979  0.55262  0.80118  1.0000
  N   N47       1.0  0.63161  0.61665  0.97156  1.0000
  H   H753      1.0  0.87298  0.57034  0.01780  1.0000
  H   H754      1.0  0.86220  0.25399  0.81654  1.0000
  H   H755      1.0  0.09184  0.14876  0.90728  1.0000
  H   H756      1.0  0.11786  0.32003  0.87046  1.0000
  H   H757      1.0  0.05822  0.30436  0.84005  1.0000
  H   H758      1.0  0.62830  0.38303  0.84819  1.0000
  C   C484      1.0  0.88510  0.53454  0.82541  1.0000
  H   H759      1.0  0.63687  0.55644  0.96412  1.0000
  S   S191      1.0  0.68693  0.63036  0.86435  1.0000
  N   N48       1.0  0.11267  0.29290  0.81855  1.0000
  H   H760      1.0  0.98016  0.52347  0.04221  1.0000
  H   H761      1.0  0.63170  0.36383  0.80319  1.0000
  S   S192      1.0  0.91994  0.13761  0.80114  1.0000
  N   N49       1.0  0.79018  0.10099  0.17681  1.0000
  S   S193      1.0  0.68493  0.80605  0.27983  1.0000
  Fe  Fe95      1.0  0.11554  0.03353  0.17357  1.0000
  C   C485      1.0  0.68619  0.07281  0.28993  1.0000
  Fe  Fe96      1.0  0.72993  0.74099  0.20812  1.0000
  S   S194      1.0  0.75885  0.79221  0.22995  1.0000
  S   S195      1.0  0.76135  0.70614  0.16746  1.0000
  Fe  Fe97      1.0  0.66167  0.75382  0.25426  1.0000
  H   H762      1.0  0.77118  0.07277  0.12851  1.0000
  Fe  Fe98      1.0  0.70323  0.82046  0.22377  1.0000
  H   H763      1.0  0.70367  0.88562  0.12533  1.0000
  S   S196      1.0  0.67567  0.77082  0.19740  1.0000
  S   S197      1.0  0.71327  0.71885  0.26258  1.0000
  H   H764      1.0  0.79087  0.69956  0.09555  1.0000
  H   H765      1.0  0.68683  0.91273  0.27287  1.0000
  C   C486      1.0  0.73952  0.70518  0.12497  1.0000
  C   C487      1.0  0.70091  0.70886  0.12226  1.0000
  C   C488      1.0  0.76096  0.70242  0.09349  1.0000
  H   H766      1.0  0.68413  0.70983  0.14642  1.0000
  C   C489      1.0  0.70865  0.87362  0.09788  1.0000
  H   H767      1.0  0.73469  0.78505  0.12457  1.0000
  H   H768      1.0  0.66741  0.78863  0.11186  1.0000
  H   H769      1.0  0.71241  0.78568  0.06085  1.0000
  C   C490      1.0  0.98720  0.99846  0.28030  1.0000
  H   H770      1.0  0.03982  0.93550  0.14071  1.0000
  C   C491      1.0  0.68385  0.71114  0.08815  1.0000
  C   C492      1.0  0.64191  0.93121  0.19148  1.0000
  H   H771      1.0  0.65398  0.71463  0.08618  1.0000
  H   H772      1.0  0.80074  0.63952  0.18184  1.0000
  N   N50       1.0  0.70681  0.83181  0.09830  1.0000
  C   C493      1.0  0.70926  0.12876  0.07180  1.0000
  H   H773      1.0  0.66380  0.83105  0.13843  1.0000
  H   H774      1.0  0.65655  0.05800  0.05020  1.0000
  S   S198      1.0  0.69821  0.87971  0.20210  1.0000
  H   H775      1.0  0.02798  0.66951  0.24812  1.0000
  C   C494      1.0  0.73557  0.81651  0.12321  1.0000
  C   C495      1.0  0.66967  0.82004  0.11079  1.0000
  S   S199      1.0  0.73211  0.09107  0.05063  1.0000
  H   H776      1.0  0.79086  0.04094  0.18678  1.0000
  S   S200      1.0  0.74362  0.03382  0.25822  1.0000
  C   C496      1.0  0.71332  0.81711  0.06138  1.0000
  H   H777      1.0  0.66340  0.95245  0.19058  1.0000
  H   H778      1.0  0.11398  0.82279  0.20483  1.0000
  C   C497      1.0  0.04739  0.97925  0.08155  1.0000
  C   C498      1.0  0.69749  0.04918  0.26163  1.0000
  C   C499      1.0  0.67174  0.03751  0.23559  1.0000
  H   H779      1.0  0.00834  0.90230  0.12103  1.0000
  H   H780      1.0  0.68043  0.01914  0.21373  1.0000
  C   C500      1.0  0.06581  0.91360  0.07618  1.0000
  S   S201      1.0  0.01954  0.06684  0.26544  1.0000
  H   H781      1.0  0.81680  0.09275  0.12526  1.0000
  H   H782      1.0  0.02324  0.79036  0.25524  1.0000
  C   C501      1.0  0.12157  0.87612  0.17753  1.0000
  C   C502      1.0  0.65150  0.89312  0.19680  1.0000
  H   H783      1.0  0.00513  0.69134  0.28592  1.0000
  C   C503      1.0  0.78865  0.09715  0.13694  1.0000
  H   H784      1.0  0.73167  0.82727  0.15127  1.0000
  H   H785      1.0  0.98347  0.75697  0.21008  1.0000
  H   H786      1.0  0.05281  0.76333  0.28501  1.0000
  H   H787      1.0  0.63087  0.83645  0.20183  1.0000
  N   N51       1.0  0.02385  0.73029  0.24508  1.0000
  C   C504      1.0  0.74388  0.70498  0.05927  1.0000
  C   C505      1.0  0.63447  0.04875  0.23825  1.0000
  C   C506      1.0  0.01854  0.93189  0.11898  1.0000
  H   H788      1.0  0.80923  0.74472  0.27401  1.0000
  H   H789      1.0  0.75753  0.65344  0.23244  1.0000
  H   H790      1.0  0.76402  0.82448  0.11454  1.0000
  C   C507      1.0  0.98493  0.03784  0.28374  1.0000
  C   C508      1.0  0.05398  0.73274  0.21813  1.0000
  C   C509      1.0  0.80745  0.06669  0.19287  1.0000
  S   S202      1.0  0.11798  0.06445  0.22631  1.0000
  H   H791      1.0  0.87547  0.72661  0.26664  1.0000
  C   C510      1.0  0.81248  0.13451  0.18646  1.0000
  C   C511      1.0  0.00543  0.93423  0.05470  1.0000
  H   H792      1.0  0.99492  0.95132  0.12522  1.0000
  H   H793      1.0  0.05345  0.70839  0.19904  1.0000
  H   H794      1.0  0.05451  0.69392  0.28156  1.0000
  H   H795      1.0  0.96413  0.72878  0.24560  1.0000
  H   H796      1.0  0.83612  0.06192  0.18257  1.0000
  C   C512      1.0  0.98756  0.73055  0.22612  1.0000
  C   C513      1.0  0.02798  0.69478  0.26601  1.0000
  C   C514      1.0  0.02590  0.76297  0.27000  1.0000
  H   H797      1.0  0.05196  0.75934  0.20201  1.0000
  S   S203      1.0  0.08281  0.89780  0.19773  1.0000
  H   H798      1.0  0.70266  0.09946  0.12253  1.0000
  H   H799      1.0  0.80924  0.06886  0.22293  1.0000
  H   H800      1.0  0.73465  0.08057  0.18506  1.0000
  Fe  Fe99      1.0  0.73772  0.77254  0.28366  1.0000
  H   H801      1.0  0.05713  0.88348  0.07756  1.0000
  S   S204      1.0  0.06017  0.00701  0.18413  1.0000
  S   S205      1.0  0.09447  0.98339  0.26480  1.0000
  H   H802      1.0  0.06933  0.98442  0.10229  1.0000
  Fe  Fe100     1.0  0.09378  0.95945  0.20845  1.0000
  H   H803      1.0  0.68727  0.88608  0.07941  1.0000
  Fe  Fe101     1.0  0.06549  0.03342  0.23919  1.0000
  C   C515      1.0  0.70534  0.70984  0.05670  1.0000
  H   H804      1.0  0.06372  0.12916  0.28902  1.0000
  H   H805      1.0  0.75228  0.10935  0.22100  1.0000
  H   H806      1.0  0.08168  0.73241  0.23147  1.0000
  N   N52       1.0  0.03426  0.93973  0.08286  1.0000
  H   H807      1.0  0.01024  0.98558  0.26611  1.0000
  H   H808      1.0  0.98506  0.70603  0.20737  1.0000
  H   H809      1.0  0.77656  0.12296  0.12389  1.0000
  H   H810      1.0  0.99474  0.90476  0.05474  1.0000
  C   C516      1.0  0.69833  0.12574  0.10800  1.0000
  H   H811      1.0  0.84131  0.13228  0.17585  1.0000
  C   C517      1.0  0.75210  0.10573  0.19105  1.0000
  H   H812      1.0  0.73640  0.88355  0.08892  1.0000
  C   C518      1.0  0.86525  0.73503  0.29296  1.0000
  H   H813      1.0  0.08839  0.91749  0.09653  1.0000
  H   H814      1.0  0.00345  0.76205  0.29060  1.0000
  H   H815      1.0  0.98125  0.95370  0.05859  1.0000
  H   H816      1.0  0.64723  0.83076  0.09253  1.0000
  C   C519      1.0  0.68694  0.93775  0.29116  1.0000
  H   H817      1.0  0.69215  0.96314  0.27405  1.0000
  C   C520      1.0  0.95943  0.97557  0.29514  1.0000
  H   H818      1.0  0.02438  0.99980  0.08664  1.0000
  H   H819      1.0  0.96127  0.94512  0.29236  1.0000
  C   C521      1.0  0.64901  0.08491  0.29199  1.0000
  C   C522      1.0  0.82778  0.74534  0.29709  1.0000
  H   H820      1.0  0.74102  0.82553  0.05095  1.0000
  C   C523      1.0  0.62368  0.86583  0.19801  1.0000
  H   H821      1.0  0.73806  0.13096  0.17902  1.0000
  H   H822      1.0  0.62354  0.97156  0.26835  1.0000
  H   H823      1.0  0.05937  0.98611  0.05464  1.0000
  C   C524      1.0  0.62303  0.07266  0.26626  1.0000
  H   H824      1.0  0.75519  0.13334  0.29873  1.0000
  H   H825      1.0  0.67627  0.97226  0.35519  1.0000
  H   H826      1.0  0.74209  0.12663  0.36451  1.0000
  C   C525      1.0  0.78522  0.04525  0.49188  1.0000
  H   H827      1.0  0.90104  0.68047  0.52092  1.0000
  C   C526      1.0  0.65479  0.68288  0.39527  1.0000
  H   H828      1.0  0.85728  0.03820  0.51077  1.0000
  H   H829      1.0  0.98041  0.83155  0.54616  1.0000
  C   C527      1.0  0.84821  0.12272  0.42037  1.0000
  N   N53       1.0  0.68565  0.70477  0.37961  1.0000
  H   H830      1.0  0.01732  0.11798  0.37846  1.0000
  C   C528      1.0  0.92914  0.99198  0.31312  1.0000
  H   H831      1.0  0.66869  0.90318  0.35382  1.0000
  S   S206      1.0  0.76862  0.77184  0.33645  1.0000
  H   H832      1.0  0.90511  0.81133  0.41066  1.0000
  C   C529      1.0  0.70849  0.67984  0.35633  1.0000
  H   H833      1.0  0.64032  0.10367  0.31359  1.0000
  H   H834      1.0  0.69296  0.73927  0.42701  1.0000
  H   H835      1.0  0.94541  0.63680  0.31205  1.0000
  H   H836      1.0  0.76131  0.06327  0.48304  1.0000
  S   S207      1.0  0.78810  0.96421  0.32652  1.0000
  C   C530      1.0  0.78455  0.93876  0.46736  1.0000
  S   S208      1.0  0.74371  0.03420  0.36618  1.0000
  H   H837      1.0  0.93455  0.10506  0.38662  1.0000
  C   C531      1.0  0.65311  0.97476  0.33512  1.0000
  H   H838      1.0  0.92599  0.89355  0.42562  1.0000
  C   C532      1.0  0.73489  0.94207  0.52540  1.0000
  C   C533      1.0  0.74635  0.93909  0.46048  1.0000
  S   S209      1.0  0.73008  0.94038  0.41551  1.0000
  Fe  Fe102     1.0  0.79978  0.05559  0.38208  1.0000
  H   H839      1.0  0.02817  0.71202  0.51030  1.0000
  C   C534      1.0  0.77324  0.94286  0.53197  1.0000
  H   H840      1.0  0.73171  0.69571  0.34368  1.0000
  C   C535      1.0  0.83686  0.03755  0.53334  1.0000
  H   H841      1.0  0.69181  0.94009  0.48438  1.0000
  H   H842      1.0  0.88548  0.84130  0.44480  1.0000
  C   C536      1.0  0.79800  0.94049  0.50295  1.0000
  C   C537      1.0  0.72145  0.93993  0.48958  1.0000
  H   H843      1.0  0.65215  0.75535  0.37408  1.0000
  C   C538      1.0  0.97420  0.63918  0.47798  1.0000
  Fe  Fe103     1.0  0.76997  0.02323  0.31236  1.0000
  H   H844      1.0  0.83483  0.10192  0.49568  1.0000
  C   C539      1.0  0.92700  0.03137  0.31678  1.0000
  Fe  Fe104     1.0  0.76701  0.97756  0.38204  1.0000
  H   H845      1.0  0.70609  0.08223  0.30992  1.0000
  S   S210      1.0  0.80263  0.10602  0.41852  1.0000
  H   H846      1.0  0.69259  0.75385  0.34594  1.0000
  Fe  Fe105     1.0  0.98467  0.78612  0.43253  1.0000
  S   S211      1.0  0.04042  0.75992  0.44393  1.0000
  S   S212      1.0  0.96166  0.82944  0.47059  1.0000
  Fe  Fe106     1.0  0.97176  0.73958  0.36505  1.0000
  S   S213      1.0  0.02632  0.70938  0.37026  1.0000
  S   S214      1.0  0.93661  0.72509  0.31679  1.0000
  Fe  Fe107     1.0  0.01241  0.70554  0.42923  1.0000
  Fe  Fe108     1.0  0.04906  0.76651  0.38420  1.0000
  N   N54       1.0  0.65162  0.94126  0.31121  1.0000
  S   S215      1.0  0.95575  0.73122  0.42297  1.0000
  S   S216      1.0  0.99531  0.79731  0.37382  1.0000
  C   C540      1.0  0.94324  0.80558  0.50783  1.0000
  H   H847      1.0  0.66542  0.65896  0.41220  1.0000
  H   H848      1.0  0.85555  0.81856  0.41268  1.0000
  C   C541      1.0  0.64604  0.90685  0.33334  1.0000
  H   H849      1.0  0.90421  0.04419  0.33132  1.0000
  H   H850      1.0  0.77447  0.01623  0.49642  1.0000
  H   H851      1.0  0.65310  0.72552  0.33485  1.0000
  H   H852      1.0  0.85717  0.91805  0.38135  1.0000
  H   H853      1.0  0.06471  0.10478  0.36890  1.0000
  C   C542      1.0  0.88954  0.73636  0.32265  1.0000
  C   C543      1.0  0.87610  0.74689  0.35665  1.0000
  C   C544      1.0  0.83857  0.75658  0.36090  1.0000
  C   C545      1.0  0.81461  0.75665  0.33100  1.0000
  H   H854      1.0  0.89446  0.74751  0.37971  1.0000
  H   H855      1.0  0.90291  0.77490  0.47632  1.0000
  C   C546      1.0  0.95241  0.66754  0.49383  1.0000
  C   C547      1.0  0.91457  0.77956  0.50297  1.0000
  H   H856      1.0  0.96249  0.69623  0.49562  1.0000
  C   C548      1.0  0.67020  0.73628  0.35772  1.0000
  H   H857      1.0  0.90484  0.83193  0.34649  1.0000
  H   H858      1.0  0.82801  0.88019  0.39598  1.0000
  H   H859      1.0  0.82804  0.76425  0.38728  1.0000
  H   H860      1.0  0.85541  0.83944  0.34807  1.0000
  H   H861      1.0  0.73284  0.73645  0.39808  1.0000
  C   C549      1.0  0.91756  0.65877  0.50804  1.0000
  H   H862      1.0  0.10380  0.71038  0.35362  1.0000
  C   C550      1.0  0.88277  0.85297  0.35341  1.0000
  H   H863      1.0  0.93329  0.64151  0.41197  1.0000
  C   C551      1.0  0.85599  0.89301  0.39956  1.0000
  H   H864      1.0  0.72100  0.69680  0.42614  1.0000
  H   H865      1.0  0.88536  0.87727  0.33430  1.0000
  H   H866      1.0  0.79012  0.11811  0.51034  1.0000
  H   H867      1.0  0.85820  0.90352  0.42786  1.0000
  S   S217      1.0  0.10045  0.79161  0.36011  1.0000
  S   S218      1.0  0.01738  0.65042  0.45924  1.0000
  H   H868      1.0  0.87758  0.74055  0.52905  1.0000
  N   N55       1.0  0.88605  0.86559  0.39146  1.0000
  C   C552      1.0  0.70910  0.72002  0.40908  1.0000
  H   H869      1.0  0.02853  0.09453  0.33688  1.0000
  C   C553      1.0  0.88284  0.83267  0.41592  1.0000
  C   C554      1.0  0.90056  0.75974  0.53275  1.0000
  H   H870      1.0  0.63675  0.67076  0.37364  1.0000
  H   H871      1.0  0.92607  0.90872  0.37915  1.0000
  H   H872      1.0  0.80682  0.13499  0.34336  1.0000
  Fe  Fe109     1.0  0.84081  0.99207  0.34464  1.0000
  S   S219      1.0  0.82407  0.05041  0.32638  1.0000
  S   S220      1.0  0.89444  0.96261  0.33084  1.0000
  H   H873      1.0  0.82767  0.94066  0.50790  1.0000
  S   S221      1.0  0.82161  0.99985  0.40184  1.0000
  H   H874      1.0  0.00445  0.74895  0.53422  1.0000
  H   H875      1.0  0.72106  0.65610  0.37218  1.0000
  H   H876      1.0  0.94586  0.86376  0.39164  1.0000
  H   H877      1.0  0.94125  0.66868  0.37179  1.0000
  H   H878      1.0  0.69159  0.66720  0.33412  1.0000
  C   C555      1.0  0.95809  0.81152  0.54241  1.0000
  N   N56       1.0  0.80338  0.06046  0.52472  1.0000
  C   C556      1.0  0.87666  0.10417  0.40155  1.0000
  H   H879      1.0  0.87097  0.07861  0.38656  1.0000
  C   C557      1.0  0.92252  0.88373  0.39717  1.0000
  H   H880      1.0  0.80494  0.04379  0.46883  1.0000
  C   C558      1.0  0.95488  0.05428  0.30211  1.0000
  H   H881      1.0  0.80373  0.93706  0.44514  1.0000
  C   C559      1.0  0.92750  0.64294  0.38239  1.0000
  C   C560      1.0  0.91272  0.11898  0.40181  1.0000
  H   H882      1.0  0.89699  0.64701  0.37873  1.0000
  C   C561      1.0  0.11548  0.72287  0.32955  1.0000
  C   C562      1.0  0.11880  0.76214  0.32669  1.0000
  C   C563      1.0  0.03854  0.11599  0.35662  1.0000
  C   C564      1.0  0.03041  0.73168  0.53371  1.0000
  H   H883      1.0  0.65748  0.00120  0.31929  1.0000
  H   H884      1.0  0.95312  0.08471  0.30502  1.0000
  H   H885      1.0  0.62682  0.97834  0.35057  1.0000
  H   H886      1.0  0.05384  0.75123  0.52816  1.0000
  C   C565      1.0  0.81442  0.10011  0.51817  1.0000
  H   H887      1.0  0.63683  0.70086  0.41277  1.0000
  H   H888      1.0  0.71102  0.93431  0.30994  1.0000
  H   H889      1.0  0.82969  0.00743  0.53813  1.0000
  H   H890      1.0  0.82756  0.11285  0.54260  1.0000
  H   H891      1.0  0.64562  0.88094  0.31620  1.0000
  H   H892      1.0  0.06718  0.66601  0.54216  1.0000
  H   H893      1.0  0.71562  0.94386  0.54775  1.0000
  H   H894      1.0  0.75154  0.07581  0.54970  1.0000
  N   N57       1.0  0.03611  0.71067  0.56793  1.0000
  C   C566      1.0  0.75963  0.79952  0.77018  1.0000
  H   H895      1.0  0.65738  0.86321  0.66664  1.0000
  C   C567      1.0  0.75686  0.83604  0.75554  1.0000
  H   H896      1.0  0.00001  0.66498  0.55317  1.0000
  H   H897      1.0  0.63969  0.79762  0.68073  1.0000
  H   H898      1.0  0.76729  0.77595  0.75299  1.0000
  C   C568      1.0  0.01850  0.86496  0.78382  1.0000
  H   H899      1.0  0.11443  0.76741  0.75020  1.0000
  S   S222      1.0  0.76576  0.84310  0.70948  1.0000
  H   H900      1.0  0.04218  0.97363  0.73585  1.0000
  C   C569      1.0  0.96514  0.63894  0.78272  1.0000
  Fe  Fe110     1.0  0.74272  0.89807  0.68835  1.0000
  H   H901      1.0  0.80807  0.65384  0.62773  1.0000
  C   C570      1.0  0.72305  0.00346  0.78741  1.0000
  H   H902      1.0  0.72491  0.97681  0.77325  1.0000
  S   S223      1.0  0.74252  0.03757  0.72355  1.0000
  S   S224      1.0  0.70658  0.98802  0.63867  1.0000
  C   C571      1.0  0.06979  0.68663  0.56489  1.0000
  S   S225      1.0  0.69781  0.93447  0.71231  1.0000
  Fe  Fe111     1.0  0.67528  0.93626  0.65576  1.0000
  Fe  Fe112     1.0  0.73241  0.98334  0.69388  1.0000
  C   C572      1.0  0.73085  0.03732  0.76940  1.0000
  S   S226      1.0  0.71731  0.89565  0.63293  1.0000
  H   H903      1.0  0.63912  0.79421  0.74922  1.0000
  S   S227      1.0  0.77977  0.94684  0.67597  1.0000
  H   H904      1.0  0.04557  0.72281  0.62431  1.0000
  H   H905      1.0  0.74497  0.89474  0.76661  1.0000
  Fe  Fe113     1.0  0.75126  0.94701  0.62191  1.0000
  H   H906      1.0  0.62304  0.05765  0.72151  1.0000
  H   H907      1.0  0.73552  0.09788  0.77424  1.0000
  S   S228      1.0  0.79137  0.94959  0.57565  1.0000
  H   H908      1.0  0.84604  0.92504  0.63531  1.0000
  C   C573      1.0  0.00349  0.68655  0.57487  1.0000
  C   C574      1.0  0.07641  0.81864  0.68858  1.0000
  Fe  Fe114     1.0  0.00189  0.76108  0.69429  1.0000
  S   S229      1.0  0.95878  0.80137  0.67253  1.0000
  S   S230      1.0  0.06308  0.77070  0.68625  1.0000
  Fe  Fe115     1.0  0.94397  0.70930  0.72705  1.0000
  S   S231      1.0  0.89659  0.74582  0.70830  1.0000
  C   C575      1.0  0.83390  0.64839  0.61209  1.0000
  Fe  Fe116     1.0  0.92845  0.74893  0.65647  1.0000
  S   S232      1.0  0.89979  0.73772  0.60359  1.0000
  Fe  Fe117     1.0  0.93211  0.79381  0.72658  1.0000
  S   S233      1.0  0.97348  0.70872  0.67384  1.0000
  S   S234      1.0  0.97727  0.75691  0.74979  1.0000
  H   H909      1.0  0.65857  0.02441  0.73472  1.0000
  H   H910      1.0  0.85031  0.83446  0.68695  1.0000
  C   C576      1.0  0.87835  0.83617  0.61925  1.0000
  H   H911      1.0  0.65289  0.77429  0.79195  1.0000
  C   C577      1.0  0.05304  0.00244  0.74180  1.0000
  C   C578      1.0  0.94521  0.79035  0.57187  1.0000
  H   H912      1.0  0.88753  0.86799  0.68479  1.0000
  H   H913      1.0  0.03955  0.90784  0.68859  1.0000
  H   H914      1.0  0.95770  0.79417  0.59811  1.0000
  C   C579      1.0  0.91639  0.76445  0.56709  1.0000
  H   H915      1.0  0.81035  0.85886  0.59656  1.0000
  C   C580      1.0  0.08537  0.04216  0.78452  1.0000
  H   H916      1.0  0.86637  0.76666  0.78347  1.0000
  H   H917      1.0  0.90814  0.84221  0.62459  1.0000
  H   H918      1.0  0.02090  0.84115  0.68460  1.0000
  C   C581      1.0  0.95129  0.86049  0.78147  1.0000
  H   H919      1.0  0.87243  0.80731  0.62972  1.0000
  H   H920      1.0  0.04528  0.85946  0.77161  1.0000
  C   C582      1.0  0.04977  0.84766  0.68750  1.0000
  C   C583      1.0  0.00175  0.64694  0.77272  1.0000
  H   H921      1.0  0.98806  0.83898  0.74051  1.0000
  H   H922      1.0  0.09491  0.70399  0.55961  1.0000
  C   C584      1.0  0.98607  0.85346  0.76610  1.0000
  N   N58       1.0  0.06889  0.00444  0.77873  1.0000
  H   H923      1.0  0.00706  0.66593  0.75035  1.0000
  H   H924      1.0  0.78992  0.07000  0.58073  1.0000
  C   C585      1.0  0.11407  0.82795  0.69207  1.0000
  H   H925      1.0  0.89344  0.90965  0.63058  1.0000
  S   S235      1.0  0.91147  0.84177  0.76077  1.0000
  C   C586      1.0  0.62858  0.85677  0.67101  1.0000
  H   H926      1.0  0.88120  0.68058  0.65892  1.0000
  H   H927      1.0  0.85109  0.04803  0.55818  1.0000
  H   H928      1.0  0.90668  0.65178  0.60199  1.0000
  C   C587      1.0  0.63449  0.04129  0.74486  1.0000
  N   N59       1.0  0.85395  0.86466  0.63633  1.0000
  S   S236      1.0  0.92737  0.65843  0.75884  1.0000
  H   H929      1.0  0.87445  0.83550  0.58931  1.0000
  H   H930      1.0  0.84554  0.65665  0.68363  1.0000
  H   H931      1.0  0.80645  0.82801  0.63541  1.0000
  C   C588      1.0  0.86420  0.90276  0.62336  1.0000
  C   C589      1.0  0.85832  0.86271  0.67617  1.0000
  C   C590      1.0  0.09789  0.97490  0.78347  1.0000
  H   H932      1.0  0.89233  0.63860  0.68436  1.0000
  H   H933      1.0  0.02990  0.02318  0.73798  1.0000
  H   H934      1.0  0.01583  0.75617  0.60136  1.0000
  H   H935      1.0  0.64551  0.06201  0.76488  1.0000
  H   H936      1.0  0.64665  0.87714  0.77425  1.0000
  H   H937      1.0  0.07442  0.00870  0.72099  1.0000
  H   H938      1.0  0.07499  0.67020  0.59019  1.0000
  H   H939      1.0  0.67653  0.81494  0.77455  1.0000
  H   H940      1.0  0.84027  0.88390  0.69001  1.0000
  C   C591      1.0  0.81496  0.85675  0.62634  1.0000
  C   C592      1.0  0.72957  0.07165  0.78820  1.0000
  C   C593      1.0  0.04079  0.73773  0.59809  1.0000
  H   H941      1.0  0.86122  0.90507  0.59339  1.0000
  C   C594      1.0  0.06044  0.88565  0.68968  1.0000
  C   C595      1.0  0.87075  0.65218  0.66677  1.0000
  H   H942      1.0  0.12123  0.97913  0.76440  1.0000
  H   H943      1.0  0.06500  0.75665  0.59380  1.0000
  C   C596      1.0  0.74659  0.86642  0.77765  1.0000
  C   C597      1.0  0.77716  0.05890  0.55538  1.0000
  C   C598      1.0  0.09794  0.89496  0.69334  1.0000
  H   H944      1.0  0.84647  0.00761  0.79031  1.0000
  H   H945      1.0  0.97731  0.70364  0.57593  1.0000
  H   H946      1.0  0.79573  0.87722  0.63929  1.0000
  H   H947      1.0  0.08060  0.74812  0.78047  1.0000
  H   H948      1.0  0.00634  0.67115  0.60104  1.0000
  H   H949      1.0  0.11801  0.84590  0.78636  1.0000
  H   H950      1.0  0.10800  0.04778  0.76484  1.0000
  H   H951      1.0  0.06417  0.06512  0.78168  1.0000
  H   H952      1.0  0.84395  0.67610  0.60167  1.0000
  H   H953      1.0  0.64606  0.97812  0.78437  1.0000
  H   H954      1.0  0.76841  0.02925  0.56099  1.0000
  C   C599      1.0  0.64880  0.80143  0.77702  1.0000
  H   H955      1.0  0.07562  0.79582  0.76432  1.0000
  C   C600      1.0  0.09625  0.77421  0.77367  1.0000
  H   H956      1.0  0.08666  0.94605  0.77834  1.0000
  S   S237      1.0  0.11052  0.94284  0.69613  1.0000
  C   C601      1.0  0.62559  0.04122  0.96457  1.0000
  H   H957      1.0  0.78780  0.04957  0.86319  1.0000
  C   C602      1.0  0.94892  0.88010  0.81434  1.0000
  H   H958      1.0  0.90876  0.81279  0.83914  1.0000
  H   H959      1.0  0.09024  0.07593  0.95115  1.0000
  H   H960      1.0  0.01649  0.93992  0.02712  1.0000
  Fe  Fe118     1.0  0.71948  0.67432  0.89426  1.0000
  H   H961      1.0  0.81826  0.98139  0.82154  1.0000
  Fe  Fe119     1.0  0.72013  0.71498  0.96592  1.0000
  S   S238      1.0  0.76823  0.75165  0.95077  1.0000
  S   S239      1.0  0.68356  0.71783  0.01491  1.0000
  Fe  Fe120     1.0  0.73923  0.75796  0.89715  1.0000
  S   S240      1.0  0.73133  0.81682  0.87484  1.0000
  S   S241      1.0  0.68921  0.72571  0.91418  1.0000
  S   S242      1.0  0.74705  0.66108  0.94740  1.0000
  H   H962      1.0  0.82528  0.75926  0.80991  1.0000
  C   C603      1.0  0.74175  0.82371  0.82904  1.0000
  H   H963      1.0  0.82499  0.08623  0.81989  1.0000
  S   S243      1.0  0.76708  0.13209  0.89362  1.0000
  H   H964      1.0  0.85508  0.70534  0.84250  1.0000
  H   H965      1.0  0.69786  0.04935  0.97779  1.0000
  H   H966      1.0  0.75299  0.76497  0.81778  1.0000
  H   H967      1.0  0.69180  0.82748  0.04190  1.0000
  S   S244      1.0  0.76682  0.70749  0.87156  1.0000
  H   H968      1.0  0.05059  0.00049  0.83334  1.0000
  C   C604      1.0  0.01636  0.88319  0.81730  1.0000
  Fe  Fe121     1.0  0.74478  0.10977  0.99399  1.0000
  H   H969      1.0  0.70774  0.97787  0.83824  1.0000
  H   H970      1.0  0.01662  0.01986  0.80283  1.0000
  H   H971      1.0  0.05048  0.13040  0.92724  1.0000
  S   S245      1.0  0.77177  0.06757  0.95758  1.0000
  H   H972      1.0  0.80584  0.00657  0.88254  1.0000
  S   S246      1.0  0.86724  0.11421  0.92744  1.0000
  H   H973      1.0  0.07896  0.77013  0.84507  1.0000
  H   H974      1.0  0.68841  0.00031  0.97159  1.0000
  C   C605      1.0  0.63482  0.83345  0.83312  1.0000
  H   H975      1.0  0.92706  0.77415  0.81335  1.0000
  C   C606      1.0  0.71352  0.00407  0.82418  1.0000
  S   S247      1.0  0.70001  0.12628  0.95442  1.0000
  H   H976      1.0  0.85215  0.80439  0.87611  1.0000
  Fe  Fe122     1.0  0.80610  0.11607  0.93868  1.0000
  C   C607      1.0  0.68499  0.02444  0.99070  1.0000
  C   C608      1.0  0.71208  0.03849  0.84288  1.0000
  Fe  Fe123     1.0  0.73003  0.08722  0.91669  1.0000
  H   H977      1.0  0.65455  0.09023  0.01277  1.0000
  H   H978      1.0  0.89745  0.01227  0.83588  1.0000
  C   C609      1.0  0.96020  0.11919  0.82172  1.0000
  S   S248      1.0  0.70164  0.03897  0.88902  1.0000
  C   C610      1.0  0.85263  0.77372  0.80954  1.0000
  H   H979      1.0  0.66234  0.84761  0.83359  1.0000
  H   H980      1.0  0.71835  0.09895  0.83909  1.0000
  C   C611      1.0  0.62924  0.99777  0.01531  1.0000
  H   H981      1.0  0.73157  0.88388  0.83158  1.0000
  S   S249      1.0  0.85423  0.68784  0.92781  1.0000
  C   C612      1.0  0.88185  0.72078  0.84026  1.0000
  N   N60       1.0  0.84144  0.03269  0.84315  1.0000
  H   H982      1.0  0.82472  0.05133  0.89595  1.0000
  Fe  Fe124     1.0  0.79241  0.69853  0.92652  1.0000
  H   H983      1.0  0.92426  0.65385  0.90935  1.0000
  H   H984      1.0  0.89961  0.71118  0.86336  1.0000
  C   C613      1.0  0.75172  0.79330  0.80685  1.0000
  H   H985      1.0  0.84719  0.80484  0.80932  1.0000
  H   H986      1.0  0.11803  0.02247  0.99565  1.0000
  H   H987      1.0  0.11630  0.07000  0.04532  1.0000
  H   H988      1.0  0.07087  0.81676  0.82741  1.0000
  C   C614      1.0  0.02697  0.11948  0.83195  1.0000
  C   C615      1.0  0.72011  0.07225  0.82490  1.0000
  H   H989      1.0  0.63017  0.67730  0.96598  1.0000
  C   C616      1.0  0.63575  0.65137  0.94971  1.0000
  H   H990      1.0  0.07810  0.91833  0.04897  1.0000
  H   H991      1.0  0.63812  0.80650  0.84857  1.0000
  H   H992      1.0  0.66434  0.65340  0.93883  1.0000
  H   H993      1.0  0.08866  0.12359  0.02048  1.0000
  N   N61       1.0  0.87595  0.76228  0.84085  1.0000
  H   H994      1.0  0.04994  0.11161  0.99179  1.0000
  C   C617      1.0  0.85711  0.77327  0.87479  1.0000
  H   H995      1.0  0.89564  0.71139  0.81483  1.0000
  C   C618      1.0  0.85022  0.07125  0.83032  1.0000
  H   H996      1.0  0.93010  0.07762  0.85207  1.0000
  Fe  Fe125     1.0  0.08680  0.95712  0.95756  1.0000
  S   S250      1.0  0.04271  0.91408  0.94657  1.0000
  H   H997      1.0  0.94320  0.09113  0.92381  1.0000
  Fe  Fe126     1.0  0.05322  0.01455  0.90528  1.0000
  S   S251      1.0  0.00608  0.97654  0.89025  1.0000
  H   H998      1.0  0.97974  0.90494  0.85850  1.0000
  Fe  Fe127     1.0  0.00393  0.96407  0.94963  1.0000
  S   S252      1.0  0.95013  0.96553  0.97967  1.0000
  Fe  Fe128     1.0  0.04974  0.93128  0.88850  1.0000
  C   C619      1.0  0.95707  0.08898  0.84589  1.0000
  S   S253      1.0  0.04752  0.00592  0.96518  1.0000
  C   C620      1.0  0.98155  0.89118  0.83245  1.0000
  C   C621      1.0  0.89062  0.07474  0.94594  1.0000
  H   H999      1.0  0.86219  0.08883  0.85244  1.0000
  H   H1000     1.0  0.76058  0.70410  0.03498  1.0000
  S   S254      1.0  0.05772  0.89439  0.83999  1.0000
  H   H1001     1.0  0.62599  0.01700  0.94528  1.0000
  C   C622      1.0  0.92834  0.06959  0.93854  1.0000
  H   H1002     1.0  0.87379  0.76478  0.89902  1.0000
  S   S255      1.0  0.09733  0.97004  0.89935  1.0000
  C   C623      1.0  0.89029  0.01413  0.97731  1.0000
  C   C624      1.0  0.92762  0.00827  0.96840  1.0000
  N   N62       1.0  0.64543  0.03190  0.99866  1.0000
  H   H1003     1.0  0.87549  0.99275  0.99236  1.0000
  H   H1004     1.0  0.97573  0.03260  0.94337  1.0000
  C   C625      1.0  0.87188  0.04740  0.96619  1.0000
  H   H1005     1.0  0.92205  0.88558  0.82636  1.0000
  C   C626      1.0  0.98872  0.07389  0.86287  1.0000
  N   N63       1.0  0.11815  0.78802  0.80483  1.0000
  S   S256      1.0  0.06322  0.07015  0.87757  1.0000
  H   H1006     1.0  0.87005  0.98487  0.86687  1.0000
  C   C627      1.0  0.87563  0.01410  0.85709  1.0000
  C   C628      1.0  0.64206  0.06407  0.02409  1.0000
  H   H1007     1.0  0.84333  0.05173  0.97346  1.0000
  H   H1008     1.0  0.98581  0.05120  0.88200  1.0000
  H   H1009     1.0  0.63838  0.06572  0.95047  1.0000
  C   C629      1.0  0.81372  0.03511  0.87248  1.0000
  C   C630      1.0  0.02365  0.08906  0.85607  1.0000
  C   C631      1.0  0.09298  0.79618  0.83540  1.0000
  C   C632      1.0  0.73921  0.86027  0.81442  1.0000
  C   C633      1.0  0.94675  0.03640  0.94960  1.0000
  C   C634      1.0  0.99524  0.13441  0.81454  1.0000
  H   H1010     1.0  0.70125  0.01826  0.01578  1.0000
  H   H1011     1.0  0.93064  0.77339  0.86191  1.0000
  H   H1012     1.0  0.82964  0.75934  0.87728  1.0000
  H   H1013     1.0  0.88762  0.03007  0.88031  1.0000
  C   C635      1.0  0.91224  0.78145  0.83880  1.0000
  H   H1014     1.0  0.62819  0.97376  0.99583  1.0000
  C   C636      1.0  0.11255  0.09702  0.95550  1.0000
  H   H1015     1.0  0.65099  0.64227  0.02085  1.0000
  H   H1016     1.0  0.63259  0.01659  0.81352  1.0000
  C   C637      1.0  0.82610  0.01041  0.81277  1.0000
  H   H1017     1.0  0.10965  0.97496  0.81143  1.0000
  H   H1018     1.0  0.10832  0.80867  0.85874  1.0000
  H   H1019     1.0  0.05405  0.13135  0.82656  1.0000
  H   H1020     1.0  0.09747  0.04449  0.81221  1.0000
  H   H1021     1.0  0.87096  0.07062  0.80802  1.0000
  C   C638      1.0  0.86811  0.64013  0.92435  1.0000
  H   H1022     1.0  0.64531  0.98853  0.03961  1.0000
  C   C639      1.0  0.07266  0.13242  0.99599  1.0000
  N   N64       1.0  0.09688  0.13481  0.96387  1.0000
  C   C640      1.0  0.03922  0.99830  0.80545  1.0000
  H   H1023     1.0  0.02677  0.96966  0.80252  1.0000
  H   H1024     1.0  0.80072  0.02418  0.80127  1.0000
