data_image0
_chemical_formula_structural       FeS2FeSCFeSFeS3CHSN2CHNCH3C7H5CHSFeH2CNH11C2H4NC2H2C2HC2H2C2HCH4C3SH8C2H2CHCH5C2H2NHCHCHC2H8SH4NCHCH2CH2C2H7CFeS2FeS2FeSFeS3HC4SC2H4C2H4C6H4C2H5CH4C2H2NHFeCHCH2CH2NHSHNH2CH3CH3C2H3C3H2CH5CHCH2C2H4SCHFeCHS2CH2SFeSHCHCH4C3H3CHCSHC3NH5CS2FeS2FeNSFeSFeHS2H2C3HFeSH4C6H7NC4HCH12CSHC3H3FeS2HFeS2CFeHC2H5C2H3CHSH2C2HCHS2HCSC4SH2CHC2H2CFeHN2CHCFeH2SHSH4FeH5SCH3CH3CFeS2FeS2HFeS3CHFeSH3SHSH2C6H3C7H4C2H2NCHCNFeSHCHCS2NH5FeCHCH3CHC2SHFeH4CH3C4HSHC2HC3HCHFeCH2SCHC2HCHCH2CFeC2FeHSH2S2HC2HC2H2C2HC2HFeSHSHC2HCH3CHFeSFeS2FeHCHS2FeHSFeHFeCHS2C6H3FeHNCHCH2C6H7NCSCHCHCH6SCH5SHCHCNHCSC2SHCH5FeH3FeSFeS2Fe2HS3HFeS3C2HC5FeH2CSCSHC4H3SH2FeHCH2CNSCSC4H4CHSCSHCHCH3Fe2SHCSCH2CHSCHSC2H5C6H5CNHCSH3CHSHNSNC4H4CH9C2H2CH4CHCH2FeH5CHSCFeHCH5SFeH2CNH4CH2CHCHCH2NCH3CHCHCSCFeC2H2NH6CS2H2SHSFeSH2SFeSFe2SCH2C6HCH5C3HFeH2CNHSHCHCHC2HSCH2SCH2SH2SH2CH5NHFeH2SNHCH3CHC2H2SCSHC4HCH2CHFeCHCH2CHCFeSH2CSFeS2CN2SC2HC7H2FeH2SH2FeCHSH2SCHSH3CH5CHC2HC2H2CH6CHC2H2SCFeH2SHFeSHSC3FeHCH3SC3H3NFeCHNHFeCHSH3NC4H12CH3CHFeCH3CHCS2H3CSC2HSH
_chemical_formula_sum              "Fe72 S144 C360 H576 N36"
_cell_length_a       41.3984
_cell_length_b       40.2805
_cell_length_c       55.1081
_cell_angle_alpha    88.4697
_cell_angle_beta     91.9737
_cell_angle_gamma    118.597

_space_group_name_H-M_alt    "P 1"
_space_group_IT_number       1

loop_
  _space_group_symop_operation_xyz
  'x, y, z'

loop_
  _atom_site_type_symbol
  _atom_site_label
  _atom_site_symmetry_multiplicity
  _atom_site_fract_x
  _atom_site_fract_y
  _atom_site_fract_z
  _atom_site_occupancy
  Fe  Fe1       1.0  0.20160  0.16741  0.14473  1.0000
  S   S1        1.0  0.19184  0.15769  0.10481  1.0000
  S   S2        1.0  0.15566  0.16147  0.16800  1.0000
  Fe  Fe2       1.0  0.27973  0.17842  0.14366  1.0000
  S   S3        1.0  0.27650  0.16993  0.10335  1.0000
  C   C1        1.0  0.46941  0.36547  0.15563  1.0000
  Fe  Fe3       1.0  0.24890  0.20623  0.10196  1.0000
  S   S4        1.0  0.25889  0.25246  0.07482  1.0000
  Fe  Fe4       1.0  0.21975  0.12229  0.10996  1.0000
  S   S5        1.0  0.19780  0.06614  0.09176  1.0000
  S   S6        1.0  0.25681  0.21902  0.14186  1.0000
  S   S7        1.0  0.22499  0.12781  0.15029  1.0000
  C   C2        1.0  0.06195  0.05329  0.13686  1.0000
  H   H1        1.0  0.46844  0.39183  0.15030  1.0000
  S   S8        1.0  0.32608  0.17831  0.16645  1.0000
  N   N1        1.0  0.50692  0.37357  0.16358  1.0000
  N   N2        1.0  0.03532  0.02337  0.12062  1.0000
  C   C3        1.0  0.16117  0.02874  0.10682  1.0000
  H   H2        1.0  0.24929  0.26793  0.21157  1.0000
  N   N3        1.0  0.14681  0.21127  0.03866  1.0000
  C   C4        1.0  0.14987  0.03431  0.12929  1.0000
  H   H3        1.0  0.43523  0.24887  0.21865  1.0000
  H   H4        1.0  0.16218  0.06210  0.13701  1.0000
  H   H5        1.0  0.11494  0.21337  0.09945  1.0000
  C   C5        1.0  0.06912  0.17419  0.12053  1.0000
  C   C6        1.0  0.05849  0.15053  0.14109  1.0000
  C   C7        1.0  0.08518  0.14727  0.15598  1.0000
  C   C8        1.0  0.12243  0.16682  0.14997  1.0000
  C   C9        1.0  0.13297  0.19026  0.12935  1.0000
  C   C10       1.0  0.10645  0.19426  0.11487  1.0000
  C   C11       1.0  0.25618  0.20404  0.03980  1.0000
  H   H6        1.0  0.07690  0.12932  0.17201  1.0000
  H   H7        1.0  0.16173  0.20615  0.12489  1.0000
  H   H8        1.0  0.25435  0.18494  0.05447  1.0000
  H   H9        1.0  0.28383  0.25601  0.24552  1.0000
  H   H10       1.0  0.14408  0.18416  0.07325  1.0000
  C   C12       1.0  0.38741  0.21824  0.19525  1.0000
  H   H11       1.0  0.21497  0.22184  0.24394  1.0000
  S   S9        1.0  0.03668  0.17919  0.10134  1.0000
  Fe  Fe5       1.0  0.49224  0.32644  0.24282  1.0000
  H   H12       1.0  0.48735  0.32321  0.18562  1.0000
  H   H13       1.0  0.02983  0.13509  0.14569  1.0000
  C   C13       1.0  0.28293  0.23254  0.23481  1.0000
  N   N4        1.0  0.24994  0.21543  0.21858  1.0000
  H   H14       1.0  0.28368  0.21132  0.24786  1.0000
  H   H15       1.0  0.45934  0.34612  0.13983  1.0000
  H   H16       1.0  0.08339  0.04632  0.14418  1.0000
  H   H17       1.0  0.22569  0.23245  0.18895  1.0000
  H   H18       1.0  0.27522  0.25744  0.19053  1.0000
  H   H19       1.0  0.09744  0.20140  0.05649  1.0000
  H   H20       1.0  0.21499  0.17719  0.24593  1.0000
  H   H21       1.0  0.02040  0.06176  0.10173  1.0000
  H   H22       1.0  0.27497  0.19571  0.19309  1.0000
  H   H23       1.0  0.13717  0.15493  0.04740  1.0000
  H   H24       1.0  0.22544  0.17097  0.19250  1.0000
  C   C14       1.0  0.21629  0.19960  0.23311  1.0000
  C   C15       1.0  0.25030  0.18482  0.20461  1.0000
  H   H25       1.0  0.19868  0.25861  0.04899  1.0000
  H   H26       1.0  0.31919  0.09478  0.16202  1.0000
  H   H27       1.0  0.19099  0.18661  0.22120  1.0000
  H   H28       1.0  0.16102  0.25172  0.06723  1.0000
  N   N5        1.0  0.27336  0.05353  0.14093  1.0000
  C   C16       1.0  0.28079  0.07964  0.11998  1.0000
  C   C17       1.0  0.38010  0.28358  0.19532  1.0000
  H   H29       1.0  0.30874  0.24436  0.22431  1.0000
  H   H30       1.0  0.25073  0.16250  0.21675  1.0000
  C   C18       1.0  0.25007  0.24461  0.20167  1.0000
  C   C19       1.0  0.28899  0.07569  0.16332  1.0000
  H   H31       1.0  0.39023  0.19288  0.19542  1.0000
  C   C20       1.0  0.29046  0.02927  0.13712  1.0000
  C   C21       1.0  0.23317  0.02962  0.14324  1.0000
  H   H32       1.0  0.07641  0.08104  0.12719  1.0000
  H   H33       1.0  0.37721  0.30889  0.19534  1.0000
  C   C22       1.0  0.35481  0.25205  0.18191  1.0000
  C   C23       1.0  0.41297  0.24994  0.20840  1.0000
  H   H34       1.0  0.21952  0.04706  0.14643  1.0000
  C   C24       1.0  0.16876  0.24986  0.04838  1.0000
  H   H35       1.0  0.04805  0.05722  0.15261  1.0000
  H   H36       1.0  0.26795  0.09802  0.12226  1.0000
  H   H37       1.0  0.27643  0.09410  0.16678  1.0000
  H   H38       1.0  0.33273  0.25321  0.17153  1.0000
  C   C25       1.0  0.25985  0.23952  0.04481  1.0000
  C   C26       1.0  0.40919  0.28258  0.20864  1.0000
  C   C27       1.0  0.35823  0.21915  0.18202  1.0000
  S   S10       1.0  0.44002  0.32259  0.22541  1.0000
  H   H39       1.0  0.49779  0.31779  0.15517  1.0000
  H   H40       1.0  0.09015  0.17196  0.03069  1.0000
  H   H41       1.0  0.06950  0.04584  0.08944  1.0000
  H   H42       1.0  0.26919  0.06402  0.10272  1.0000
  H   H43       1.0  0.32080  0.04645  0.13525  1.0000
  H   H44       1.0  0.27916  0.01223  0.12033  1.0000
  H   H45       1.0  0.18241  0.19178  0.05538  1.0000
  H   H46       1.0  0.31080  0.09855  0.11776  1.0000
  C   C28       1.0  0.10736  0.20087  0.03804  1.0000
  C   C29       1.0  0.15276  0.18427  0.05435  1.0000
  H   H47       1.0  0.28431  0.05702  0.17953  1.0000
  H   H48       1.0  0.44944  0.35156  0.17049  1.0000
  C   C30       1.0  0.05477  0.01900  0.09994  1.0000
  H   H49       1.0  0.22026  0.01326  0.12639  1.0000
  C   C31       1.0  0.50667  0.33779  0.17059  1.0000
  H   H50       1.0  0.49954  0.38630  0.19991  1.0000
  H   H51       1.0  0.16512  0.27110  0.03695  1.0000
  H   H52       1.0  0.26549  0.29177  0.02945  1.0000
  H   H53       1.0  0.49100  0.42727  0.39092  1.0000
  H   H54       1.0  0.48489  0.46732  0.42249  1.0000
  C   C32       1.0  0.47631  0.38499  0.44669  1.0000
  C   C33       1.0  0.49328  0.40950  0.40597  1.0000
  H   H55       1.0  0.41689  0.39337  0.43629  1.0000
  H   H56       1.0  0.46604  0.35546  0.44048  1.0000
  N   N6        1.0  0.47255  0.40919  0.42739  1.0000
  H   H57       1.0  0.46139  0.38431  0.46329  1.0000
  C   C34       1.0  0.43325  0.39401  0.42048  1.0000
  H   H58       1.0  0.48335  0.38046  0.39891  1.0000
  C   C35       1.0  0.48725  0.44813  0.43648  1.0000
  H   H59       1.0  0.42135  0.36463  0.41360  1.0000
  C   C36       1.0  0.13516  0.48991  0.50792  1.0000
  C   C37       1.0  0.49523  0.49126  0.52297  1.0000
  H   H60       1.0  0.42937  0.41160  0.40595  1.0000
  H   H61       1.0  0.47259  0.44884  0.45289  1.0000
  H   H62       1.0  0.46817  0.47162  0.51592  1.0000
  H   H63       1.0  0.50707  0.31352  0.37245  1.0000
  H   H64       1.0  0.10537  0.47366  0.51209  1.0000
  H   H65       1.0  0.50553  0.39579  0.45236  1.0000
  H   H66       1.0  0.13924  0.47935  0.49045  1.0000
  H   H67       1.0  0.15062  0.48313  0.52242  1.0000
  S   S11       1.0  0.50329  0.31116  0.28083  1.0000
  H   H68       1.0  0.32806  0.44644  0.76473  1.0000
  H   H69       1.0  0.30486  0.38223  0.74870  1.0000
  H   H70       1.0  0.45762  0.49075  0.61493  1.0000
  H   H71       1.0  0.25754  0.44052  0.73960  1.0000
  N   N7        1.0  0.30001  0.42734  0.73022  1.0000
  C   C38       1.0  0.32866  0.45673  0.74573  1.0000
  H   H72       1.0  0.35670  0.46578  0.73897  1.0000
  C   C39       1.0  0.47988  0.49036  0.60432  1.0000
  H   H73       1.0  0.26160  0.40637  0.75930  1.0000
  H   H74       1.0  0.32477  0.48216  0.74635  1.0000
  C   C40       1.0  0.26340  0.41625  0.74004  1.0000
  H   H75       1.0  0.33357  0.40158  0.72277  1.0000
  H   H76       1.0  0.24110  0.39312  0.72933  1.0000
  C   C41       1.0  0.30608  0.39406  0.73001  1.0000
  C   C42       1.0  0.30202  0.44250  0.70524  1.0000
  H   H77       1.0  0.29695  0.46733  0.70483  1.0000
  H   H78       1.0  0.32965  0.45221  0.69747  1.0000
  H   H79       1.0  0.28492  0.37116  0.71852  1.0000
  H   H80       1.0  0.47793  0.46555  0.65003  1.0000
  H   H81       1.0  0.28119  0.42098  0.69285  1.0000
  H   H82       1.0  0.46803  0.46296  0.59465  1.0000
  H   H83       1.0  0.48841  0.43756  0.63007  1.0000
  C   C43       1.0  0.49979  0.46582  0.63862  1.0000
  Fe  Fe6       1.0  0.13961  0.21429  0.94379  1.0000
  S   S12       1.0  0.14293  0.23545  0.90541  1.0000
  S   S13       1.0  0.09078  0.19069  0.96828  1.0000
  Fe  Fe7       1.0  0.21604  0.22078  0.94347  1.0000
  S   S14       1.0  0.22659  0.24273  0.90500  1.0000
  S   S15       1.0  0.24963  0.20106  0.96653  1.0000
  Fe  Fe8       1.0  0.20100  0.27840  0.91577  1.0000
  S   S16       1.0  0.22234  0.34102  0.90866  1.0000
  Fe  Fe9       1.0  0.16806  0.19836  0.89776  1.0000
  S   S17       1.0  0.14635  0.15516  0.86822  1.0000
  S   S18       1.0  0.19542  0.25995  0.95515  1.0000
  S   S19       1.0  0.15973  0.17368  0.93516  1.0000
  H   H84       1.0  0.06517  0.06073  0.86847  1.0000
  C   C44       1.0  0.18948  0.38847  0.83410  1.0000
  C   C45       1.0  0.24665  0.36386  0.88230  1.0000
  C   C46       1.0  0.24735  0.34359  0.86228  1.0000
  C   C47       1.0  0.26422  0.36291  0.84077  1.0000
  S   S20       1.0  0.29833  0.42575  0.81129  1.0000
  C   C48       1.0  0.28035  0.42272  0.85937  1.0000
  C   C49       1.0  0.26363  0.40347  0.88085  1.0000
  H   H85       1.0  0.23437  0.31304  0.86324  1.0000
  H   H86       1.0  0.15176  0.03860  0.85473  1.0000
  H   H87       1.0  0.26357  0.41931  0.89639  1.0000
  H   H88       1.0  0.05619  0.12243  0.91258  1.0000
  C   C50       1.0  0.04546  0.18202  0.92877  1.0000
  C   C51       1.0  0.04997  0.16693  0.95097  1.0000
  H   H89       1.0  0.02907  0.22404  0.00630  1.0000
  H   H90       1.0  0.16619  0.07868  0.98048  1.0000
  H   H91       1.0  0.06703  0.20879  0.92227  1.0000
  H   H92       1.0  0.02376  0.06352  0.93789  1.0000
  C   C52       1.0  0.20169  0.08065  0.87197  1.0000
  C   C53       1.0  0.16645  0.06716  0.86153  1.0000
  C   C54       1.0  0.15030  0.09080  0.85947  1.0000
  C   C55       1.0  0.16862  0.12742  0.86882  1.0000
  C   C56       1.0  0.20385  0.14090  0.87934  1.0000
  C   C57       1.0  0.22075  0.11784  0.88034  1.0000
  H   H93       1.0  0.19898  0.37661  0.84950  1.0000
  H   H94       1.0  0.12341  0.08050  0.85087  1.0000
  H   H95       1.0  0.21832  0.16930  0.88635  1.0000
  H   H96       1.0  0.24823  0.12857  0.88809  1.0000
  C   C58       1.0  0.25978  0.25271  0.00149  1.0000
  C   C59       1.0  0.25560  0.21699  0.99650  1.0000
  H   H97       1.0  0.02497  0.12087  0.97665  1.0000
  H   H98       1.0  0.26129  0.27164  0.98675  1.0000
  H   H99       1.0  0.15278  0.04223  0.94292  1.0000
  H   H100      1.0  0.15513  0.44992  0.82771  1.0000
  H   H101      1.0  0.07082  0.11958  0.88296  1.0000
  C   C60       1.0  0.16392  0.42924  0.82188  1.0000
  H   H102      1.0  0.04567  0.01863  0.88689  1.0000
  H   H103      1.0  0.18766  0.21651  0.01362  1.0000
  H   H104      1.0  0.25226  0.16576  0.01198  1.0000
  H   H105      1.0  0.08712  0.05060  0.92097  1.0000
  C   C61       1.0  0.20976  0.44796  0.85423  1.0000
  C   C62       1.0  0.14871  0.39657  0.86068  1.0000
  H   H106      1.0  0.03450  0.18236  0.00601  1.0000
  H   H107      1.0  0.23274  0.46216  0.84140  1.0000
  N   N8        1.0  0.04993  0.06795  0.90402  1.0000
  H   H108      1.0  0.15860  0.38587  0.87658  1.0000
  Fe  Fe10      1.0  0.31054  0.48666  0.80646  1.0000
  C   C63       1.0  0.19142  0.10120  0.97194  1.0000
  H   H109      1.0  0.16651  0.36418  0.82463  1.0000
  C   C64       1.0  0.23964  0.11608  0.94343  1.0000
  H   H110      1.0  0.22041  0.43898  0.87049  1.0000
  H   H111      1.0  0.26426  0.34705  0.82525  1.0000
  C   C65       1.0  0.28032  0.40250  0.83915  1.0000
  H   H112      1.0  0.29329  0.45321  0.85852  1.0000
  H   H113      1.0  0.14174  0.18185  0.00549  1.0000
  N   N9        1.0  0.20641  0.08526  0.95446  1.0000
  H   H114      1.0  0.10881  0.09329  0.90309  1.0000
  S   S21       1.0  0.22053  0.05006  0.87649  1.0000
  H   H115      1.0  0.09114  0.09407  0.93221  1.0000
  N   N10       1.0  0.17793  0.41554  0.84271  1.0000
  H   H116      1.0  0.13997  0.40566  0.81260  1.0000
  H   H117      1.0  0.21184  0.11635  0.98671  1.0000
  C   C66       1.0  0.01508  0.19355  0.00155  1.0000
  H   H118      1.0  0.18562  0.44415  0.80819  1.0000
  H   H119      1.0  0.23324  0.13683  0.93355  1.0000
  H   H120      1.0  0.02251  0.09809  0.88903  1.0000
  C   C67       1.0  0.25471  0.19306  0.01568  1.0000
  H   H121      1.0  0.12422  0.37193  0.85264  1.0000
  H   H122      1.0  0.20246  0.46974  0.86008  1.0000
  H   H123      1.0  0.21267  0.40225  0.82131  1.0000
  C   C68       1.0  0.21606  0.05829  0.96717  1.0000
  C   C69       1.0  0.04400  0.04486  0.88227  1.0000
  H   H124      1.0  0.18867  0.05232  0.92207  1.0000
  H   H125      1.0  0.13954  0.41631  0.86766  1.0000
  H   H126      1.0  0.22647  0.04491  0.95434  1.0000
  C   C70       1.0  0.08584  0.07682  0.91564  1.0000
  C   C71       1.0  0.17844  0.06538  0.93522  1.0000
  C   C72       1.0  0.04978  0.10348  0.89681  1.0000
  H   H127      1.0  0.26119  0.13227  0.95744  1.0000
  H   H128      1.0  0.17122  0.08504  0.92474  1.0000
  C   C73       1.0  0.15846  0.21014  0.01380  1.0000
  H   H129      1.0  0.00931  0.17449  0.89785  1.0000
  H   H130      1.0  0.23763  0.07249  0.98154  1.0000
  H   H131      1.0  0.25171  0.10495  0.93019  1.0000
  H   H132      1.0  0.18441  0.12210  0.96297  1.0000
  H   H133      1.0  0.19169  0.03499  0.97605  1.0000
  C   C74       1.0  0.26228  0.26412  0.02565  1.0000
  H   H134      1.0  0.15561  0.23115  0.00165  1.0000
  C   C75       1.0  0.02025  0.04671  0.92137  1.0000
  H   H135      1.0  0.27497  0.02542  0.86381  1.0000
  H   H136      1.0  0.28118  0.02368  0.83184  1.0000
  C   C76       1.0  0.01268  0.16271  0.91504  1.0000
  C   C77       1.0  0.02160  0.13265  0.95948  1.0000
  H   H137      1.0  0.01967  0.01980  0.92732  1.0000
  H   H138      1.0  0.01658  0.03642  0.87352  1.0000
  H   H139      1.0  0.01040  0.19176  0.98148  1.0000
  H   H140      1.0  0.10217  0.22069  0.02614  1.0000
  S   S22       1.0  0.27110  0.49244  0.78009  1.0000
  C   C78       1.0  0.14412  0.99259  0.09673  1.0000
  H   H141      1.0  0.07881  0.91498  0.04690  1.0000
  Fe  Fe11      1.0  0.02765  0.88750  0.12149  1.0000
  C   C79       1.0  0.10518  0.96761  0.13178  1.0000
  H   H142      1.0  0.10294  0.93422  0.10124  1.0000
  S   S23       1.0  0.02633  0.90612  0.08303  1.0000
  S   S24       1.0  0.06908  0.93041  0.14715  1.0000
  C   C80       1.0  0.11588  0.96213  0.10907  1.0000
  H   H143      1.0  0.03528  0.99677  0.08727  1.0000
  H   H144      1.0  0.15274  0.98802  0.07937  1.0000
  S   S25       1.0  0.03757  0.83349  0.04082  1.0000
  Fe  Fe12      1.0  0.01605  0.84801  0.07377  1.0000
  S   S26       1.0  0.02206  0.83085  0.11213  1.0000
  H   H145      1.0  0.11439  0.00791  0.15959  1.0000
  C   C81       1.0  0.01694  0.98715  0.13421  1.0000
  H   H146      1.0  0.03724  0.97931  0.14257  1.0000
  C   C82       1.0  0.12261  0.00363  0.14202  1.0000
  H   H147      1.0  0.28534  0.00913  0.15258  1.0000
  H   H148      1.0  0.07545  0.01028  0.10620  1.0000
  H   H149      1.0  0.22630  0.00902  0.15859  1.0000
  H   H150      1.0  0.08953  0.62411  0.47282  1.0000
  C   C83       1.0  0.02562  0.54311  0.49966  1.0000
  C   C84       1.0  0.07692  0.60224  0.48656  1.0000
  C   C85       1.0  0.04158  0.57183  0.48223  1.0000
  H   H151      1.0  0.02695  0.57038  0.46528  1.0000
  H   H152      1.0  0.20423  0.54724  0.51585  1.0000
  H   H153      1.0  0.19302  0.54191  0.48383  1.0000
  C   C86       1.0  0.12647  0.53909  0.48745  1.0000
  H   H154      1.0  0.13564  0.57000  0.48600  1.0000
  C   C87       1.0  0.09617  0.60434  0.50843  1.0000
  S   S27       1.0  0.14134  0.64146  0.51241  1.0000
  H   H155      1.0  0.32724  0.60522  0.52331  1.0000
  C   C88       1.0  0.18730  0.55148  0.50114  1.0000
  C   C89       1.0  0.04472  0.54534  0.52161  1.0000
  C   C90       1.0  0.07968  0.57619  0.52615  1.0000
  N   N11       1.0  0.14770  0.53097  0.50663  1.0000
  H   H156      1.0  0.50146  0.89498  0.52121  1.0000
  H   H157      1.0  0.19732  0.58246  0.49933  1.0000
  H   H158      1.0  0.50751  0.87092  0.49619  1.0000
  H   H159      1.0  0.09653  0.52481  0.49135  1.0000
  H   H160      1.0  0.12976  0.52967  0.46935  1.0000
  C   C91       1.0  0.32049  0.55679  0.57606  1.0000
  S   S28       1.0  0.29564  0.76836  0.71198  1.0000
  S   S29       1.0  0.42278  0.51803  0.65477  1.0000
  Fe  Fe13      1.0  0.19719  0.65919  0.59874  1.0000
  S   S30       1.0  0.20846  0.69776  0.56631  1.0000
  S   S31       1.0  0.17618  0.67090  0.63283  1.0000
  Fe  Fe14      1.0  0.21442  0.60493  0.57243  1.0000
  N   N12       1.0  0.45234  0.66006  0.70583  1.0000
  S   S32       1.0  0.22065  0.55265  0.57577  1.0000
  Fe  Fe15      1.0  0.25726  0.68866  0.56205  1.0000
  S   S33       1.0  0.31197  0.73426  0.54977  1.0000
  Fe  Fe16      1.0  0.17697  0.64422  0.54516  1.0000
  H   H161      1.0  0.41478  0.73555  0.60718  1.0000
  S   S34       1.0  0.24883  0.65438  0.59616  1.0000
  S   S35       1.0  0.16146  0.60608  0.57802  1.0000
  H   H162      1.0  0.48483  0.91367  0.72905  1.0000
  H   H163      1.0  0.31190  0.87262  0.61216  1.0000
  C   C92       1.0  0.49037  0.68080  0.71588  1.0000
  C   C93       1.0  0.26527  0.56275  0.56801  1.0000
  C   C94       1.0  0.28502  0.54922  0.58254  1.0000
  H   H164      1.0  0.22298  0.79911  0.63679  1.0000
  Fe  Fe17      1.0  0.27664  0.76616  0.75013  1.0000
  S   S36       1.0  0.32406  0.55188  0.72437  1.0000
  H   H165      1.0  0.31693  0.84700  0.66468  1.0000
  H   H166      1.0  0.27502  0.76933  0.62033  1.0000
  H   H167      1.0  0.09392  0.57811  0.54329  1.0000
  H   H168      1.0  0.31060  0.73139  0.60252  1.0000
  C   C95       1.0  0.26195  0.73686  0.69168  1.0000
  C   C96       1.0  0.22455  0.72369  0.69554  1.0000
  C   C97       1.0  0.19825  0.70239  0.67765  1.0000
  C   C98       1.0  0.20925  0.69409  0.65589  1.0000
  C   C99       1.0  0.24656  0.70626  0.65237  1.0000
  C   C100      1.0  0.27285  0.72752  0.67025  1.0000
  H   H169      1.0  0.21590  0.73093  0.71189  1.0000
  H   H170      1.0  0.16940  0.69298  0.68047  1.0000
  H   H171      1.0  0.25531  0.70006  0.63569  1.0000
  H   H172      1.0  0.30174  0.73730  0.66728  1.0000
  H   H173      1.0  0.45633  0.61018  0.69770  1.0000
  H   H174      1.0  0.48800  0.51293  0.59019  1.0000
  H   H175      1.0  0.26288  0.85453  0.61112  1.0000
  N   N13       1.0  0.28151  0.82208  0.63334  1.0000
  C   C101      1.0  0.27779  0.79671  0.61330  1.0000
  C   C102      1.0  0.24790  0.80437  0.64790  1.0000
  C   C103      1.0  0.28660  0.85853  0.62316  1.0000
  C   C104      1.0  0.31378  0.82880  0.64898  1.0000
  H   H176      1.0  0.25302  0.78994  0.60158  1.0000
  C   C105      1.0  0.40203  0.52801  0.69972  1.0000
  H   H177      1.0  0.44070  0.75011  0.57993  1.0000
  H   H178      1.0  0.27297  0.53305  0.59886  1.0000
  H   H179      1.0  0.24307  0.77658  0.65542  1.0000
  H   H180      1.0  0.33973  0.84275  0.63871  1.0000
  H   H181      1.0  0.24998  0.82216  0.66360  1.0000
  H   H182      1.0  0.28940  0.87832  0.63780  1.0000
  H   H183      1.0  0.38613  0.53751  0.73477  1.0000
  H   H184      1.0  0.30220  0.80961  0.60147  1.0000
  H   H185      1.0  0.31142  0.80195  0.65664  1.0000
  H   H186      1.0  0.44006  0.88458  0.77341  1.0000
  H   H187      1.0  0.32632  0.54993  0.67309  1.0000
  H   H188      1.0  0.33565  0.54628  0.58730  1.0000
  C   C106      1.0  0.33559  0.57671  0.55457  1.0000
  S   S37       1.0  0.28302  0.72725  0.77743  1.0000
  H   H189      1.0  0.48538  0.83978  0.73902  1.0000
  C   C107      1.0  0.33233  0.75855  0.59675  1.0000
  C   C108      1.0  0.33825  0.76723  0.57198  1.0000
  C   C109      1.0  0.42650  0.64129  0.72579  1.0000
  H   H190      1.0  0.39867  0.75263  0.58163  1.0000
  H   H191      1.0  0.43840  0.68751  0.57624  1.0000
  H   H192      1.0  0.35098  0.77805  0.63328  1.0000
  Fe  Fe18      1.0  0.46782  0.89118  0.61326  1.0000
  S   S38       1.0  0.41187  0.85330  0.62833  1.0000
  S   S39       1.0  0.48572  0.89255  0.57520  1.0000
  H   H193      1.0  0.14154  0.69986  0.77555  1.0000
  Fe  Fe19      1.0  0.41816  0.58487  0.57433  1.0000
  S   S40       1.0  0.41413  0.59639  0.61335  1.0000
  S   S41       1.0  0.48852  0.69287  0.63093  1.0000
  C   C110      1.0  0.35327  0.54400  0.70578  1.0000
  Fe  Fe20      1.0  0.43572  0.55574  0.62157  1.0000
  H   H194      1.0  0.03231  0.52329  0.53524  1.0000
  C   C111      1.0  0.38343  0.82020  0.60672  1.0000
  C   C112      1.0  0.38869  0.82899  0.58200  1.0000
  H   H195      1.0  0.36393  0.53575  0.64561  1.0000
  H   H196      1.0  0.42159  0.61557  0.68035  1.0000
  H   H197      1.0  0.47424  0.89444  0.67415  1.0000
  H   H198      1.0  0.40938  0.85660  0.57617  1.0000
  H   H199      1.0  0.33786  0.64782  0.58151  1.0000
  C   C113      1.0  0.38099  0.53665  0.71537  1.0000
  C   C114      1.0  0.44975  0.63129  0.68861  1.0000
  H   H200      1.0  0.45138  0.81290  0.71619  1.0000
  H   H201      1.0  0.33826  0.69236  0.58273  1.0000
  H   H202      1.0  0.44567  0.84605  0.73436  1.0000
  C   C115      1.0  0.41093  0.67504  0.58462  1.0000
  H   H203      1.0  0.49881  0.66146  0.72553  1.0000
  S   S42       1.0  0.30423  0.81769  0.77352  1.0000
  H   H204      1.0  0.39530  0.64521  0.57856  1.0000
  H   H205      1.0  0.50159  0.83683  0.68588  1.0000
  C   C116      1.0  0.28097  0.58369  0.54695  1.0000
  C   C117      1.0  0.35415  0.67743  0.58805  1.0000
  H   H206      1.0  0.10454  0.75089  0.77321  1.0000
  C   C118      1.0  0.34768  0.54418  0.68061  1.0000
  H   H207      1.0  0.43247  0.62028  0.73564  1.0000
  S   S43       1.0  0.47624  0.63146  0.57033  1.0000
  S   S44       1.0  0.37898  0.58517  0.54518  1.0000
  H   H208      1.0  0.39745  0.62591  0.71889  1.0000
  C   C119      1.0  0.31572  0.59000  0.54002  1.0000
  S   S45       1.0  0.22718  0.63876  0.53796  1.0000
  C   C120      1.0  0.38784  0.69769  0.55091  1.0000
  C   C121      1.0  0.50468  0.90838  0.71891  1.0000
  C   C122      1.0  0.41224  0.73537  0.58701  1.0000
  C   C123      1.0  0.36649  0.80239  0.56467  1.0000
  S   S46       1.0  0.43376  0.53926  0.58262  1.0000
  H   H209      1.0  0.41532  0.67469  0.60465  1.0000
  H   H210      1.0  0.37093  0.80926  0.54553  1.0000
  C   C124      1.0  0.46625  0.84113  0.72481  1.0000
  H   H211      1.0  0.47559  0.52313  0.54304  1.0000
  C   C125      1.0  0.46008  0.87159  0.68790  1.0000
  C   C126      1.0  0.44277  0.68695  0.69296  1.0000
  H   H212      1.0  0.41432  0.67226  0.68502  1.0000
  H   H213      1.0  0.41531  0.71232  0.54245  1.0000
  C   C127      1.0  0.35513  0.78498  0.61413  1.0000
  Fe  Fe21      1.0  0.32108  0.54167  0.76479  1.0000
  H   H214      1.0  0.35553  0.67630  0.60822  1.0000
  N   N14       1.0  0.48628  0.87134  0.70675  1.0000
  N   N15       1.0  0.39129  0.69642  0.57767  1.0000
  C   C128      1.0  0.39616  0.52801  0.67448  1.0000
  H   H215      1.0  0.44615  0.84439  0.67792  1.0000
  C   C129      1.0  0.36907  0.53629  0.66501  1.0000
  Fe  Fe22      1.0  0.49182  0.58680  0.58164  1.0000
  H   H216      1.0  0.48295  0.65586  0.76961  1.0000
  H   H217      1.0  0.37232  0.71288  0.54503  1.0000
  S   S47       1.0  0.49749  0.95411  0.61680  1.0000
  H   H218      1.0  0.42820  0.66210  0.73938  1.0000
  S   S48       1.0  0.21974  0.75131  0.76139  1.0000
  H   H219      1.0  0.43828  0.87623  0.69591  1.0000
  H   H220      1.0  0.42329  0.52204  0.70710  1.0000
  H   H221      1.0  0.44445  0.70907  0.70541  1.0000
  H   H222      1.0  0.26593  0.59410  0.53559  1.0000
  Fe  Fe23      1.0  0.47316  0.63999  0.61001  1.0000
  H   H223      1.0  0.49330  0.70251  0.72919  1.0000
  H   H224      1.0  0.09297  0.68413  0.77336  1.0000
  H   H225      1.0  0.15307  0.76635  0.77448  1.0000
  H   H226      1.0  0.11254  0.52805  0.53535  1.0000
  H   H227      1.0  0.46177  0.70158  0.67776  1.0000
  S   S49       1.0  0.49460  0.60034  0.62119  1.0000
  C   C130      1.0  0.49936  0.52040  0.53838  1.0000
  H   H228      1.0  0.46918  0.64442  0.67345  1.0000
  H   H229      1.0  0.15828  0.53894  0.54511  1.0000
  H   H230      1.0  0.37293  0.66868  0.54329  1.0000
  C   C131      1.0  0.50600  0.73578  0.61459  1.0000
  H   H231      1.0  0.50778  0.71275  0.58014  1.0000
  H   H232      1.0  0.50527  0.53488  0.64314  1.0000
  H   H233      1.0  0.15027  0.57421  0.52960  1.0000
  C   C132      1.0  0.14193  0.54355  0.53022  1.0000
  Fe  Fe24      1.0  0.12899  0.95004  0.92864  1.0000
  S   S50       1.0  0.09589  0.89639  0.90783  1.0000
  S   S51       1.0  0.12432  0.96684  0.96647  1.0000
  Fe  Fe25      1.0  0.17428  0.99246  0.88501  1.0000
  S   S52       1.0  0.14550  0.94340  0.85989  1.0000
  S   S53       1.0  0.04287  0.92829  0.85860  1.0000
  H   H234      1.0  0.09202  0.73721  0.82757  1.0000
  Fe  Fe26      1.0  0.14983  0.90909  0.89150  1.0000
  S   S54       1.0  0.16980  0.86594  0.88971  1.0000
  S   S55       1.0  0.12266  0.98703  0.90009  1.0000
  S   S56       1.0  0.18313  0.95941  0.91520  1.0000
  C   C133      1.0  0.22790  0.59372  0.79736  1.0000
  H   H235      1.0  0.30037  0.62374  0.86384  1.0000
  Fe  Fe27      1.0  0.30648  0.77747  0.80175  1.0000
  S   S57       1.0  0.25249  0.76385  0.81776  1.0000
  H   H236      1.0  0.30491  0.65929  0.80023  1.0000
  H   H237      1.0  0.13341  0.78241  0.79669  1.0000
  H   H238      1.0  0.32772  0.62020  0.84063  1.0000
  S   S58       1.0  0.22060  0.83659  0.78916  1.0000
  H   H239      1.0  0.23591  0.99970  0.84415  1.0000
  S   S59       1.0  0.18160  0.66220  0.80343  1.0000
  H   H240      1.0  0.23567  0.64635  0.78116  1.0000
  H   H241      1.0  0.31161  0.95747  0.85966  1.0000
  C   C134      1.0  0.06883  0.86256  0.99711  1.0000
  C   C135      1.0  0.20727  0.56420  0.81354  1.0000
  C   C136      1.0  0.09951  0.93779  0.01152  1.0000
  C   C137      1.0  0.19138  0.62434  0.80644  1.0000
  C   C138      1.0  0.17023  0.59427  0.82206  1.0000
  C   C139      1.0  0.17821  0.56438  0.82565  1.0000
  H   H242      1.0  0.30147  0.71065  0.83817  1.0000
  H   H243      1.0  0.42677  0.61213  0.79170  1.0000
  H   H244      1.0  0.14795  0.59436  0.83170  1.0000
  C   C140      1.0  0.01559  0.93343  0.88016  1.0000
  C   C141      1.0  0.18216  0.85627  0.86158  1.0000
  C   C142      1.0  0.17122  0.86672  0.83971  1.0000
  C   C143      1.0  0.18287  0.86010  0.81757  1.0000
  C   C144      1.0  0.20560  0.84317  0.81720  1.0000
  C   C145      1.0  0.21624  0.83239  0.83905  1.0000
  C   C146      1.0  0.20435  0.83874  0.86118  1.0000
  H   H245      1.0  0.15372  0.87979  0.83984  1.0000
  H   H246      1.0  0.17447  0.86841  0.80067  1.0000
  H   H247      1.0  0.23403  0.81964  0.83898  1.0000
  H   H248      1.0  0.21291  0.83062  0.87809  1.0000
  C   C147      1.0  0.08752  0.89191  0.98029  1.0000
  C   C148      1.0  0.10254  0.92956  0.98742  1.0000
  H   H249      1.0  0.02184  0.92345  0.01336  1.0000
  H   H250      1.0  0.09012  0.88533  0.96182  1.0000
  N   N16       1.0  0.12197  0.72464  0.80152  1.0000
  C   C149      1.0  0.47464  0.66588  0.78494  1.0000
  H   H251      1.0  0.31879  0.00068  0.87318  1.0000
  C   C150      1.0  0.12836  0.75742  0.78578  1.0000
  N   N17       1.0  0.26894  0.97233  0.85165  1.0000
  Fe  Fe28      1.0  0.22859  0.71693  0.79083  1.0000
  S   S60       1.0  0.31677  0.58364  0.78857  1.0000
  H   H252      1.0  0.05683  0.83343  0.99146  1.0000
  C   C151      1.0  0.25566  0.94862  0.82974  1.0000
  H   H253      1.0  0.32554  0.99937  0.84123  1.0000
  C   C152      1.0  0.30704  0.62943  0.84430  1.0000
  S   S61       1.0  0.35340  0.78390  0.82634  1.0000
  S   S62       1.0  0.21732  0.52701  0.81958  1.0000
  N   N18       1.0  0.32090  0.66980  0.83798  1.0000
  H   H254      1.0  0.28171  0.61098  0.83359  1.0000
  H   H255      1.0  0.16203  0.54155  0.83806  1.0000
  H   H256      1.0  0.25716  0.92185  0.83236  1.0000
  H   H257      1.0  0.03906  0.91642  0.91027  1.0000
  H   H258      1.0  0.37860  0.84431  0.79054  1.0000
  Fe  Fe29      1.0  0.09407  0.93469  0.87799  1.0000
  C   C153      1.0  0.30798  0.98298  0.85665  1.0000
  H   H259      1.0  0.11152  0.96689  0.01720  1.0000
  C   C154      1.0  0.24682  0.95083  0.87261  1.0000
  H   H260      1.0  0.15807  0.75799  0.83060  1.0000
  H   H261      1.0  0.21713  0.94176  0.86926  1.0000
  H   H262      1.0  0.25550  0.96795  0.88943  1.0000
  C   C155      1.0  0.15415  0.73511  0.81804  1.0000
  H   H263      1.0  0.26644  0.66324  0.83264  1.0000
  C   C156      1.0  0.32965  0.67613  0.81192  1.0000
  C   C157      1.0  0.22001  0.62386  0.79386  1.0000
  S   S63       1.0  0.30669  0.52458  0.83395  1.0000
  H   H264      1.0  0.35107  0.66813  0.80747  1.0000
  Fe  Fe30      1.0  0.27074  0.53359  0.80625  1.0000
  H   H265      1.0  0.36580  0.72373  0.84823  1.0000
  H   H266      1.0  0.06395  0.70510  0.80415  1.0000
  H   H267      1.0  0.08372  0.68914  0.82830  1.0000
  H   H268      1.0  0.37670  0.68556  0.84894  1.0000
  C   C158      1.0  0.26519  0.00678  0.84764  1.0000
  H   H269      1.0  0.24970  0.59322  0.78742  1.0000
  H   H270      1.0  0.27217  0.96353  0.81362  1.0000
  H   H271      1.0  0.22647  0.94072  0.82520  1.0000
  C   C159      1.0  0.08888  0.71350  0.81601  1.0000
  C   C160      1.0  0.35465  0.69307  0.85256  1.0000
  C   C161      1.0  0.39647  0.81183  0.81347  1.0000
  C   C162      1.0  0.42634  0.80651  0.82096  1.0000
  H   H272      1.0  0.42276  0.78514  0.83447  1.0000
  S   S64       1.0  0.39490  0.62220  0.83494  1.0000
  H   H273      1.0  0.44722  0.70042  0.84173  1.0000
  C   C163      1.0  0.45457  0.69081  0.82572  1.0000
  C   C164      1.0  0.46100  0.82881  0.81092  1.0000
  H   H274      1.0  0.48389  0.82461  0.81680  1.0000
  C   C165      1.0  0.43317  0.65339  0.81811  1.0000
  C   C166      1.0  0.44293  0.64107  0.79748  1.0000
  C   C167      1.0  0.40136  0.83966  0.79609  1.0000
  H   H275      1.0  0.11190  0.66738  0.79764  1.0000
  C   C168      1.0  0.46602  0.85706  0.79384  1.0000
  H   H276      1.0  0.15162  0.71050  0.82916  1.0000
  Fe  Fe31      1.0  0.35325  0.57178  0.81419  1.0000
  C   C169      1.0  0.06485  0.87075  0.02104  1.0000
  H   H277      1.0  0.17968  0.74562  0.80759  1.0000
  H   H278      1.0  0.34937  0.68915  0.87235  1.0000
  S   S65       1.0  0.36117  0.53318  0.78905  1.0000
  C   C170      1.0  0.01954  0.92583  0.90465  1.0000
  H   H279      1.0  0.28569  0.67698  0.86272  1.0000
  C   C171      1.0  0.43621  0.86254  0.78648  1.0000
  C   C172      1.0  0.48570  0.71591  0.81275  1.0000
  H   H280      1.0  0.24910  0.92471  0.87640  1.0000
  C   C173      1.0  0.29238  0.68061  0.84314  1.0000
  H   H281      1.0  0.34042  0.70648  0.80671  1.0000
  C   C174      1.0  0.11670  0.69262  0.78633  1.0000
  H   H282      1.0  0.00916  0.88838  0.97638  1.0000
  H   H283      1.0  0.50212  0.74465  0.81879  1.0000
  C   C175      1.0  0.49599  0.70338  0.79247  1.0000
  Fe  Fe32      1.0  0.24760  0.79942  0.78735  1.0000
  C   C176      1.0  0.08087  0.90843  0.02834  1.0000
  C   C177      1.0  0.64102  0.44071  0.20653  1.0000
  Fe  Fe33      1.0  0.57264  0.36406  0.22968  1.0000
  H   H284      1.0  0.73914  0.16429  0.16131  1.0000
  S   S66       1.0  0.61355  0.39253  0.20023  1.0000
  H   H285      1.0  0.91177  0.04961  0.18242  1.0000
  H   H286      1.0  0.67993  0.16489  0.16747  1.0000
  S   S67       1.0  0.52651  0.30523  0.22474  1.0000
  S   S68       1.0  0.53792  0.38639  0.24536  1.0000
  H   H287      1.0  0.68636  0.33723  0.20692  1.0000
  C   C178      1.0  0.59485  0.26433  0.23245  1.0000
  C   C179      1.0  0.62378  0.26634  0.21886  1.0000
  H   H288      1.0  0.59691  0.44746  0.22106  1.0000
  C   C180      1.0  0.70213  0.36843  0.20916  1.0000
  C   C181      1.0  0.62586  0.46092  0.21737  1.0000
  H   H289      1.0  0.57557  0.27236  0.22416  1.0000
  H   H290      1.0  0.62666  0.27610  0.20018  1.0000
  C   C182      1.0  0.59034  0.25100  0.25646  1.0000
  C   C183      1.0  0.00750  0.03395  0.11139  1.0000
  H   H291      1.0  0.96129  0.16084  0.05112  1.0000
  C   C184      1.0  0.86317  0.07660  0.02958  1.0000
  C   C185      1.0  0.64915  0.25630  0.22947  1.0000
  H   H292      1.0  0.72662  0.37911  0.19751  1.0000
  Fe  Fe34      1.0  0.54194  0.29541  0.26259  1.0000
  S   S69       1.0  0.84040  0.50491  0.21364  1.0000
  H   H293      1.0  0.76000  0.19558  0.18646  1.0000
  S   S70       1.0  0.59104  0.35259  0.26595  1.0000
  H   H294      1.0  0.70061  0.19576  0.19281  1.0000
  C   C186      1.0  0.73525  0.41998  0.23692  1.0000
  C   C187      1.0  0.64494  0.24329  0.25355  1.0000
  H   H295      1.0  0.75988  0.36933  0.23312  1.0000
  C   C188      1.0  0.61527  0.24015  0.26693  1.0000
  H   H296      1.0  0.74394  0.36764  0.26325  1.0000
  H   H297      1.0  0.66404  0.23491  0.26179  1.0000
  H   H298      1.0  0.68430  0.38036  0.20198  1.0000
  C   C189      1.0  0.75255  0.25377  0.16777  1.0000
  H   H299      1.0  0.71917  0.43451  0.23116  1.0000
  Fe  Fe35      1.0  0.91687  0.06561  0.12327  1.0000
  S   S71       1.0  0.94500  0.09295  0.08868  1.0000
  Fe  Fe36      1.0  0.90815  0.13247  0.13881  1.0000
  S   S72       1.0  0.93621  0.16683  0.10555  1.0000
  S   S73       1.0  0.88357  0.14008  0.17316  1.0000
  Fe  Fe37      1.0  0.90284  0.11273  0.08510  1.0000
  H   H300      1.0  0.66218  0.33378  0.24845  1.0000
  C   C190      1.0  0.72509  0.21244  0.13365  1.0000
  H   H301      1.0  0.54676  0.40495  0.19148  1.0000
  S   S74       1.0  0.87133  0.08021  0.11761  1.0000
  S   S75       1.0  0.95229  0.11580  0.14609  1.0000
  Fe  Fe38      1.0  0.80584  0.26463  0.22763  1.0000
  H   H302      1.0  0.75837  0.25568  0.18762  1.0000
  S   S76       1.0  0.83615  0.26488  0.19409  1.0000
  Fe  Fe39      1.0  0.73332  0.26363  0.23544  1.0000
  H   H303      1.0  0.69021  0.44366  0.19235  1.0000
  Fe  Fe40      1.0  0.80146  0.31771  0.26475  1.0000
  C   C191      1.0  0.84391  0.04633  0.21696  1.0000
  H   H304      1.0  0.71857  0.32896  0.24303  1.0000
  S   S77       1.0  0.78859  0.30975  0.22501  1.0000
  S   S78       1.0  0.74938  0.21777  0.23596  1.0000
  C   C192      1.0  0.73480  0.36033  0.24398  1.0000
  C   C193      1.0  0.82982  0.40962  0.26494  1.0000
  C   C194      1.0  0.83946  0.41019  0.24081  1.0000
  C   C195      1.0  0.84305  0.43975  0.22513  1.0000
  C   C196      1.0  0.83743  0.46898  0.23364  1.0000
  C   C197      1.0  0.82809  0.46852  0.25785  1.0000
  H   H305      1.0  0.52013  0.42663  0.17999  1.0000
  H   H306      1.0  0.84469  0.38819  0.23427  1.0000
  H   H307      1.0  0.85034  0.44003  0.20642  1.0000
  Fe  Fe41      1.0  0.97678  0.14483  0.11103  1.0000
  H   H308      1.0  0.75141  0.22658  0.12372  1.0000
  N   N19       1.0  0.85923  0.03289  0.19805  1.0000
  C   C198      1.0  0.89922  0.05868  0.19656  1.0000
  H   H309      1.0  0.73680  0.26929  0.16368  1.0000
  C   C199      1.0  0.70124  0.49648  0.20829  1.0000
  H   H310      1.0  0.53382  0.41910  0.13787  1.0000
  H   H311      1.0  0.00036  0.20630  0.04656  1.0000
  C   C200      1.0  0.86997  0.17468  0.17823  1.0000
  C   C201      1.0  0.87617  0.20349  0.16133  1.0000
  C   C202      1.0  0.86568  0.23101  0.16647  1.0000
  C   C203      1.0  0.84883  0.22978  0.18843  1.0000
  C   C204      1.0  0.84205  0.20060  0.20513  1.0000
  C   C205      1.0  0.85275  0.17326  0.20006  1.0000
  H   H312      1.0  0.88949  0.20488  0.14450  1.0000
  H   H313      1.0  0.87102  0.25356  0.15348  1.0000
  H   H314      1.0  0.82908  0.19940  0.22208  1.0000
  H   H315      1.0  0.84793  0.15108  0.21324  1.0000
  H   H316      1.0  0.56137  0.39841  0.14936  1.0000
  H   H317      1.0  0.84849  0.07549  0.21262  1.0000
  H   H318      1.0  0.52488  0.37346  0.12744  1.0000
  N   N20       1.0  0.71295  0.37847  0.23488  1.0000
  C   C206      1.0  0.85070  0.04041  0.03966  1.0000
  S   S79       1.0  0.68645  0.26133  0.21246  1.0000
  C   C207      1.0  0.67852  0.45886  0.20129  1.0000
  H   H319      1.0  0.90511  0.08804  0.19186  1.0000
  C   C208      1.0  0.64816  0.49903  0.22319  1.0000
  H   H320      1.0  0.82383  0.49102  0.26459  1.0000
  C   C209      1.0  0.67950  0.36508  0.24936  1.0000
  H   H321      1.0  0.66211  0.37773  0.24254  1.0000
  H   H322      1.0  0.70963  0.18273  0.12727  1.0000
  H   H323      1.0  0.78085  0.20825  0.15751  1.0000
  H   H324      1.0  0.85708  0.04727  0.23505  1.0000
  H   H325      1.0  0.74518  0.42850  0.25593  1.0000
  H   H326      1.0  0.67955  0.20938  0.16864  1.0000
  S   S80       1.0  0.88060  0.11693  0.04796  1.0000
  C   C210      1.0  0.69643  0.19504  0.17273  1.0000
  H   H327      1.0  0.85155  0.03674  0.05916  1.0000
  H   H328      1.0  0.77968  0.26903  0.15885  1.0000
  H   H329      1.0  0.84507  0.06091  0.16919  1.0000
  H   H330      1.0  0.75990  0.43128  0.22534  1.0000
  H   H331      1.0  0.00572  0.16458  0.04734  1.0000
  S   S81       1.0  0.82398  0.27692  0.26691  1.0000
  H   H332      1.0  0.70875  0.22690  0.12822  1.0000
  C   C211      1.0  0.75378  0.19454  0.16659  1.0000
  H   H333      1.0  0.53457  0.34289  0.17683  1.0000
  C   C212      1.0  0.53283  0.39194  0.14363  1.0000
  N   N21       1.0  0.73194  0.21390  0.16019  1.0000
  H   H334      1.0  0.91384  0.05982  0.21408  1.0000
  C   C213      1.0  0.98730  0.17621  0.04096  1.0000
  S   S82       1.0  0.74434  0.27589  0.27509  1.0000
  C   C214      1.0  0.84094  0.03232  0.17443  1.0000
  C   C215      1.0  0.51887  0.39901  0.18465  1.0000
  S   S83       1.0  0.55398  0.24834  0.27349  1.0000
  H   H335      1.0  0.68639  0.37248  0.26884  1.0000
  C   C216      1.0  0.82380  0.43860  0.27336  1.0000
  H   H336      1.0  0.68922  0.49352  0.27052  1.0000
  H   H337      1.0  0.81373  0.02770  0.21857  1.0000
  H   H338      1.0  0.99116  0.03599  0.12639  1.0000
  H   H339      1.0  0.98777  0.01256  0.09848  1.0000
  H   H340      1.0  0.85195  0.02262  0.15965  1.0000
  Fe  Fe42      1.0  0.76550  0.23402  0.27500  1.0000
  H   H341      1.0  0.81077  0.01304  0.17489  1.0000
  H   H342      1.0  0.73043  0.51014  0.20491  1.0000
  H   H343      1.0  0.65634  0.50984  0.27403  1.0000
  Fe  Fe43      1.0  0.63800  0.46208  0.46114  1.0000
  S   S84       1.0  0.62378  0.45810  0.50056  1.0000
  Fe  Fe44      1.0  0.56953  0.38934  0.44772  1.0000
  S   S85       1.0  0.55011  0.37822  0.48592  1.0000
  S   S86       1.0  0.53547  0.34751  0.41888  1.0000
  Fe  Fe45      1.0  0.56596  0.43997  0.48639  1.0000
  Fe  Fe46      1.0  0.60890  0.39696  0.49645  1.0000
  H   H344      1.0  0.61182  0.22968  0.28547  1.0000
  S   S87       1.0  0.58194  0.44983  0.44722  1.0000
  S   S88       1.0  0.62687  0.40224  0.45810  1.0000
  S   S89       1.0  0.60836  0.14735  0.44305  1.0000
  H   H345      1.0  0.58320  0.21755  0.42285  1.0000
  Fe  Fe47      1.0  0.61635  0.19399  0.46774  1.0000
  S   S90       1.0  0.56888  0.20142  0.47920  1.0000
  S   S91       1.0  0.57538  0.41218  0.31182  1.0000
  S   S92       1.0  0.98161  0.50435  0.49495  1.0000
  C   C217      1.0  0.90493  0.48350  0.36452  1.0000
  C   C218      1.0  0.57828  0.05837  0.49510  1.0000
  H   H346      1.0  0.57384  0.07055  0.47841  1.0000
  C   C219      1.0  0.54717  0.36536  0.38919  1.0000
  C   C220      1.0  0.57476  0.40244  0.38512  1.0000
  C   C221      1.0  0.58310  0.41661  0.36132  1.0000
  C   C222      1.0  0.56447  0.39355  0.34146  1.0000
  C   C223      1.0  0.53727  0.35623  0.34557  1.0000
  Fe  Fe48      1.0  0.69932  0.22889  0.46876  1.0000
  H   H347      1.0  0.58975  0.42031  0.40026  1.0000
  H   H348      1.0  0.60420  0.44544  0.35836  1.0000
  C   C224      1.0  0.70773  0.49515  0.31804  1.0000
  S   S93       1.0  0.51921  0.45043  0.49717  1.0000
  C   C225      1.0  0.61168  0.31893  0.51061  1.0000
  S   S94       1.0  0.65605  0.18702  0.49304  1.0000
  H   H349      1.0  0.63339  0.30435  0.42074  1.0000
  C   C226      1.0  0.58515  0.24608  0.49201  1.0000
  C   C227      1.0  0.56248  0.26298  0.49180  1.0000
  C   C228      1.0  0.57600  0.29967  0.50065  1.0000
  C   C229      1.0  0.62106  0.26549  0.50165  1.0000
  H   H350      1.0  0.89106  0.49296  0.37749  1.0000
  H   H351      1.0  0.68217  0.33702  0.47130  1.0000
  H   H352      1.0  0.55851  0.31276  0.50023  1.0000
  S   S95       1.0  0.64988  0.20414  0.38302  1.0000
  H   H353      1.0  0.57301  0.31079  0.39213  1.0000
  H   H354      1.0  0.53466  0.24803  0.48444  1.0000
  Fe  Fe49      1.0  0.65229  0.14408  0.46651  1.0000
  H   H355      1.0  0.65585  0.21737  0.33194  1.0000
  C   C230      1.0  0.61362  0.06455  0.50165  1.0000
  H   H356      1.0  0.51816  0.23105  0.40997  1.0000
  H   H357      1.0  0.69855  0.39119  0.49955  1.0000
  C   C231      1.0  0.54843  0.03526  0.50972  1.0000
  N   N22       1.0  0.57696  0.26576  0.41144  1.0000
  S   S96       1.0  0.82982  0.50580  0.49116  1.0000
  C   C232      1.0  0.72886  0.50741  0.45655  1.0000
  S   S97       1.0  0.85925  0.49285  0.42459  1.0000
  C   C233      1.0  0.63399  0.30154  0.51150  1.0000
  C   C234      1.0  0.60553  0.29199  0.42857  1.0000
  C   C235      1.0  0.58426  0.23419  0.40614  1.0000
  C   C236      1.0  0.76096  0.49873  0.49178  1.0000
  H   H358      1.0  0.74596  0.42551  0.50388  1.0000
  H   H359      1.0  0.64125  0.48873  0.32701  1.0000
  H   H360      1.0  0.53905  0.23472  0.43958  1.0000
  H   H361      1.0  0.56376  0.21425  0.39283  1.0000
  C   C237      1.0  0.54047  0.25065  0.42246  1.0000
  H   H362      1.0  0.68706  0.46593  0.32342  1.0000
  S   S98       1.0  0.65991  0.24005  0.44593  1.0000
  C   C238      1.0  0.57760  0.28629  0.38866  1.0000
  S   S99       1.0  0.65092  0.09151  0.48285  1.0000
  H   H363      1.0  0.85887  0.48814  0.31348  1.0000
  C   C239      1.0  0.67544  0.20791  0.33759  1.0000
  H   H364      1.0  0.72785  0.49320  0.30604  1.0000
  C   C240      1.0  0.54816  0.12349  0.51757  1.0000
  H   H365      1.0  0.60031  0.31572  0.43335  1.0000
  H   H366      1.0  0.70050  0.40251  0.45598  1.0000
  H   H367      1.0  0.73497  0.40003  0.43816  1.0000
  Fe  Fe50      1.0  0.65559  0.19310  0.42276  1.0000
  Fe  Fe51      1.0  0.88129  0.45246  0.43107  1.0000
  S   S100      1.0  0.85152  0.39849  0.41011  1.0000
  H   H368      1.0  0.55582  0.26767  0.37548  1.0000
  C   C241      1.0  0.87480  0.49763  0.33082  1.0000
  S   S101      1.0  0.74982  0.27607  0.48560  1.0000
  C   C242      1.0  0.70267  0.18548  0.36908  1.0000
  H   H369      1.0  0.84908  0.26542  0.35816  1.0000
  H   H370      1.0  0.85161  0.41239  0.35747  1.0000
  C   C243      1.0  0.71176  0.34445  0.47165  1.0000
  H   H371      1.0  0.83914  0.31174  0.31550  1.0000
  S   S102      1.0  0.75534  0.19383  0.30663  1.0000
  C   C244      1.0  0.77468  0.39397  0.47621  1.0000
  H   H372      1.0  0.80069  0.23791  0.36367  1.0000
  S   S103      1.0  0.69928  0.18579  0.44385  1.0000
  C   C245      1.0  0.72363  0.19304  0.32747  1.0000
  C   C246      1.0  0.72531  0.18244  0.35176  1.0000
  H   H373      1.0  0.53186  0.09216  0.51736  1.0000
  H   H374      1.0  0.63882  0.25270  0.50173  1.0000
  H   H375      1.0  0.78238  0.38764  0.45846  1.0000
  H   H376      1.0  0.74450  0.17243  0.35727  1.0000
  H   H377      1.0  0.60450  0.29738  0.37959  1.0000
  C   C247      1.0  0.82432  0.36231  0.43036  1.0000
  C   C248      1.0  0.78905  0.33451  0.42315  1.0000
  C   C249      1.0  0.76653  0.30683  0.43983  1.0000
  C   C250      1.0  0.77896  0.30755  0.46384  1.0000
  C   C251      1.0  0.81436  0.33499  0.47091  1.0000
  C   C252      1.0  0.83712  0.36217  0.45413  1.0000
  H   H378      1.0  0.77867  0.33489  0.40493  1.0000
  H   H379      1.0  0.73926  0.28553  0.43427  1.0000
  H   H380      1.0  0.82413  0.33534  0.48943  1.0000
  H   H381      1.0  0.86464  0.38295  0.45962  1.0000
  H   H382      1.0  0.70433  0.17768  0.38782  1.0000
  C   C253      1.0  0.72932  0.40734  0.45628  1.0000
  N   N23       1.0  0.73571  0.38527  0.47591  1.0000
  H   H383      1.0  0.77668  0.31172  0.34227  1.0000
  C   C254      1.0  0.72714  0.39538  0.49953  1.0000
  S   S104      1.0  0.68896  0.50512  0.44281  1.0000
  H   H384      1.0  0.74752  0.43817  0.45868  1.0000
  H   H385      1.0  0.69547  0.21173  0.30159  1.0000
  H   H386      1.0  0.82897  0.42251  0.33222  1.0000
  C   C255      1.0  0.67787  0.19851  0.36200  1.0000
  H   H387      1.0  0.53428  0.27380  0.42696  1.0000
  S   S105      1.0  0.88501  0.45956  0.47136  1.0000
  H   H388      1.0  0.60614  0.27722  0.44577  1.0000
  N   N24       1.0  0.88212  0.46823  0.34223  1.0000
  S   S106      1.0  0.94041  0.49464  0.42554  1.0000
  N   N25       1.0  0.81783  0.29487  0.35133  1.0000
  C   C256      1.0  0.82541  0.31081  0.37598  1.0000
  C   C257      1.0  0.84448  0.32276  0.33434  1.0000
  C   C258      1.0  0.78010  0.28596  0.34338  1.0000
  C   C259      1.0  0.82128  0.26001  0.35163  1.0000
  H   H389      1.0  0.80573  0.29049  0.38929  1.0000
  H   H390      1.0  0.82302  0.33713  0.37633  1.0000
  H   H391      1.0  0.85366  0.31811  0.38269  1.0000
  H   H392      1.0  0.87325  0.32994  0.33960  1.0000
  C   C260      1.0  0.84694  0.43490  0.34858  1.0000
  H   H393      1.0  0.84261  0.34942  0.33368  1.0000
  H   H394      1.0  0.81664  0.24771  0.33317  1.0000
  H   H395      1.0  0.75920  0.26560  0.35606  1.0000
  H   H396      1.0  0.77317  0.27288  0.32511  1.0000
  H   H397      1.0  0.90812  0.43519  0.33327  1.0000
  H   H398      1.0  0.91040  0.46194  0.37410  1.0000
  H   H399      1.0  0.83148  0.44241  0.36158  1.0000
  H   H400      1.0  0.79350  0.42442  0.47990  1.0000
  H   H401      1.0  0.88521  0.44521  0.30815  1.0000
  C   C261      1.0  0.69817  0.20511  0.32039  1.0000
  C   C262      1.0  0.52843  0.34226  0.36940  1.0000
  H   H402      1.0  0.71779  0.33572  0.45413  1.0000
  H   H403      1.0  0.71586  0.32693  0.48617  1.0000
  C   C263      1.0  0.90186  0.45710  0.32512  1.0000
  H   H404      1.0  0.72990  0.37794  0.51463  1.0000
  H   H405      1.0  0.93187  0.50866  0.36056  1.0000
  H   H406      1.0  0.51682  0.46044  0.44201  1.0000
  H   H407      1.0  0.81502  0.43749  0.29171  1.0000
  C   C264      1.0  0.67013  0.49517  0.28358  1.0000
  H   H408      1.0  0.61193  0.24458  0.39829  1.0000
  C   C265      1.0  0.79213  0.50888  0.47795  1.0000
  H   H409      1.0  0.52305  0.42086  0.41052  1.0000
  H   H410      1.0  0.60641  0.19088  0.52734  1.0000
  Fe  Fe52      1.0  0.94274  0.50566  0.46553  1.0000
  H   H411      1.0  0.78034  0.37712  0.49042  1.0000
  H   H412      1.0  0.92837  0.48176  0.31982  1.0000
  H   H413      1.0  0.85876  0.50558  0.34295  1.0000
  H   H414      1.0  0.52905  0.13490  0.51252  1.0000
  H   H415      1.0  0.76112  0.49132  0.51078  1.0000
  C   C266      1.0  0.72910  0.49718  0.48098  1.0000
  H   H416      1.0  0.52095  0.02968  0.50424  1.0000
  S   S107      1.0  0.82462  0.37266  0.28475  1.0000
  C   C267      1.0  0.52588  0.48751  0.51658  1.0000
  Fe  Fe53      1.0  0.86894  0.50458  0.46436  1.0000
  H   H417      1.0  0.64844  0.46580  0.28779  1.0000
  C   C268      1.0  0.61906  0.04805  0.52305  1.0000
  H   H418      1.0  0.70491  0.48866  0.49166  1.0000
  H   H419      1.0  0.66153  0.31630  0.51931  1.0000
  H   H420      1.0  0.56866  0.13231  0.50292  1.0000
  H   H421      1.0  0.52273  0.33827  0.33040  1.0000
  H   H422      1.0  0.64645  0.05292  0.52819  1.0000
  S   S108      1.0  0.62898  0.36515  0.52115  1.0000
  Fe  Fe54      1.0  0.55208  0.36958  0.28158  1.0000
  H   H423      1.0  0.72338  0.51009  0.33473  1.0000
  H   H424      1.0  0.58457  0.51059  0.52080  1.0000
  C   C269      1.0  0.58514  0.17900  0.54147  1.0000
  N   N26       1.0  0.56622  0.13719  0.54154  1.0000
  H   H425      1.0  0.57963  0.09229  0.54798  1.0000
  H   H426      1.0  0.55080  0.13230  0.57885  1.0000
  H   H427      1.0  0.61381  0.13225  0.53200  1.0000
  H   H428      1.0  0.53000  0.46910  0.59487  1.0000
  C   C270      1.0  0.55392  0.01933  0.53135  1.0000
  H   H429      1.0  0.59402  0.01456  0.55504  1.0000
  H   H430      1.0  0.56470  0.49924  0.61650  1.0000
  C   C271      1.0  0.59330  0.12366  0.54662  1.0000
  H   H431      1.0  0.52309  0.46946  0.65095  1.0000
  C   C272      1.0  0.54058  0.49586  0.60517  1.0000
  H   H432      1.0  0.60873  0.13488  0.56403  1.0000
  C   C273      1.0  0.58937  0.02607  0.53814  1.0000
  H   H433      1.0  0.59905  0.19053  0.55926  1.0000
  H   H434      1.0  0.56558  0.19019  0.53736  1.0000
  N   N27       1.0  0.51174  0.49629  0.62007  1.0000
  C   C274      1.0  0.53814  0.12252  0.56050  1.0000
  H   H435      1.0  0.77420  0.01917  0.77388  1.0000
  H   H436      1.0  0.51712  0.13198  0.55716  1.0000
  H   H437      1.0  0.52345  0.09096  0.56103  1.0000
  C   C275      1.0  0.95485  0.18715  0.00705  1.0000
  H   H438      1.0  0.87154  0.10898  0.99640  1.0000
  C   C276      1.0  0.96319  0.13174  0.00806  1.0000
  H   H439      1.0  0.93770  0.11456  0.01836  1.0000
  C   C277      1.0  0.98900  0.11319  0.94561  1.0000
  S   S109      1.0  0.94437  0.10388  0.90517  1.0000
  C   C278      1.0  0.98449  0.12803  0.92329  1.0000
  Fe  Fe55      1.0  0.90658  0.04270  0.91420  1.0000
  C   C279      1.0  0.84886  0.04960  0.98910  1.0000
  C   C280      1.0  0.86204  0.08108  0.00429  1.0000
  H   H440      1.0  0.84826  0.05334  0.96960  1.0000
  H   H441      1.0  0.96731  0.08699  0.95238  1.0000
  N   N28       1.0  0.98013  0.17216  0.01442  1.0000
  H   H442      1.0  0.98206  0.11984  0.01239  1.0000
  H   H443      1.0  0.99269  0.03935  0.91318  1.0000
  H   H444      1.0  0.94863  0.18430  0.98715  1.0000
  H   H445      1.0  0.92811  0.17168  0.01633  1.0000
  H   H446      1.0  0.95554  0.12728  0.98838  1.0000
  H   H447      1.0  0.96664  0.21753  0.01168  1.0000
  C   C281      1.0  0.83527  0.01328  0.99917  1.0000
  S   S110      1.0  0.84458  0.01505  0.91261  1.0000
  S   S111      1.0  0.91001  0.01557  0.94944  1.0000
  H   H448      1.0  0.96081  0.62117  0.14882  1.0000
  H   H449      1.0  0.87070  0.57173  0.17932  1.0000
  S   S112      1.0  0.93732  0.90946  0.06850  1.0000
  H   H450      1.0  0.94433  0.66304  0.20330  1.0000
  S   S113      1.0  0.95491  0.82309  0.07519  1.0000
  Fe  Fe56      1.0  0.77184  0.57363  0.23715  1.0000
  S   S114      1.0  0.81754  0.58876  0.21113  1.0000
  H   H451      1.0  0.91568  0.94465  0.14813  1.0000
  H   H452      1.0  0.97283  0.61455  0.17959  1.0000
  S   S115      1.0  0.86686  0.58671  0.25945  1.0000
  Fe  Fe57      1.0  0.85345  0.62885  0.24021  1.0000
  S   S116      1.0  0.90065  0.68738  0.23336  1.0000
  Fe  Fe58      1.0  0.82749  0.54592  0.23222  1.0000
  Fe  Fe59      1.0  0.96555  0.87981  0.08757  1.0000
  S   S117      1.0  0.91677  0.75266  0.12611  1.0000
  C   C282      1.0  0.68601  0.51652  0.21932  1.0000
  H   H453      1.0  0.90848  0.56283  0.18579  1.0000
  H   H454      1.0  0.95902  0.75257  0.21066  1.0000
  C   C283      1.0  0.91170  0.73772  0.15670  1.0000
  C   C284      1.0  0.94048  0.75476  0.17383  1.0000
  C   C285      1.0  0.93648  0.73972  0.19756  1.0000
  C   C286      1.0  0.90369  0.70778  0.20427  1.0000
  C   C287      1.0  0.87458  0.69152  0.18734  1.0000
  C   C288      1.0  0.87868  0.70631  0.16359  1.0000
  H   H455      1.0  0.93627  0.61700  0.21367  1.0000
  C   C289      1.0  0.90978  0.64104  0.15985  1.0000
  H   H456      1.0  0.84896  0.66744  0.19246  1.0000
  H   H457      1.0  0.88145  0.63430  0.16487  1.0000
  H   H458      1.0  0.89699  0.56934  0.15485  1.0000
  H   H459      1.0  0.90865  0.63376  0.14040  1.0000
  H   H460      1.0  0.99840  0.96347  0.12213  1.0000
  C   C290      1.0  0.92464  0.93463  0.08803  1.0000
  C   C291      1.0  0.92296  0.92740  0.11301  1.0000
  C   C292      1.0  0.91631  0.95002  0.12876  1.0000
  H   H461      1.0  0.89842  0.62591  0.20738  1.0000
  Fe  Fe60      1.0  0.96121  0.81046  0.11445  1.0000
  H   H462      1.0  0.92679  0.90438  0.12025  1.0000
  H   H463      1.0  0.98051  0.66042  0.16922  1.0000
  C   C293      1.0  0.89907  0.57933  0.17375  1.0000
  N   N29       1.0  0.92401  0.62046  0.17564  1.0000
  H   H464      1.0  0.00417  0.88141  0.03199  1.0000
  S   S118      1.0  0.96727  0.86582  0.12710  1.0000
  H   H465      1.0  0.96603  0.77900  0.16865  1.0000
  C   C294      1.0  0.91146  0.98637  0.09448  1.0000
  H   H466      1.0  0.91866  0.96884  0.05931  1.0000
  C   C295      1.0  0.92596  0.63208  0.20108  1.0000
  H   H467      1.0  0.85624  0.69322  0.15044  1.0000
  C   C296      1.0  0.91797  0.96354  0.07869  1.0000
  C   C297      1.0  0.96121  0.62950  0.16797  1.0000
  H   H468      1.0  0.92737  0.67227  0.16135  1.0000
  S   S119      1.0  0.71405  0.56258  0.22968  1.0000
  C   C298      1.0  0.91132  0.97996  0.11956  1.0000
  H   H469      1.0  0.82302  0.97398  0.20540  1.0000
  H   H470      1.0  0.86643  0.99356  0.22181  1.0000
  S   S120      1.0  0.80667  0.61740  0.26448  1.0000
  C   C299      1.0  0.85290  0.99431  0.20416  1.0000
  H   H471      1.0  0.98638  0.91373  0.03446  1.0000
  H   H472      1.0  0.86423  0.98367  0.19000  1.0000
  S   S121      1.0  0.77830  0.52690  0.25535  1.0000
  H   H473      1.0  0.00001  0.98840  0.14905  1.0000
  H   H474      1.0  0.82573  0.98065  0.03234  1.0000
  S   S122      1.0  0.90742  0.01037  0.13989  1.0000
  H   H475      1.0  0.63625  0.51466  0.23137  1.0000
  H   H476      1.0  0.90678  0.00895  0.08724  1.0000
  C   C300      1.0  0.83678  0.55607  0.36453  1.0000
  H   H477      1.0  0.60947  0.92864  0.49616  1.0000
  H   H478      1.0  0.52163  0.86464  0.52645  1.0000
  H   H479      1.0  0.57011  0.89088  0.48136  1.0000
  H   H480      1.0  0.86114  0.55327  0.39907  1.0000
  H   H481      1.0  0.67742  0.53188  0.33954  1.0000
  N   N30       1.0  0.55729  0.91818  0.50962  1.0000
  H   H482      1.0  0.76052  0.52716  0.42406  1.0000
  Fe  Fe61      1.0  0.91867  0.53617  0.42139  1.0000
  H   H483      1.0  0.73417  0.57040  0.31547  1.0000
  H   H484      1.0  0.65020  0.53334  0.31377  1.0000
  S   S123      1.0  0.80493  0.55552  0.32037  1.0000
  N   N31       1.0  0.68996  0.51552  0.30578  1.0000
  H   H485      1.0  0.58416  0.88386  0.51147  1.0000
  C   C301      1.0  0.66359  0.51752  0.32230  1.0000
  H   H486      1.0  0.98067  0.57584  0.50393  1.0000
  H   H487      1.0  0.90085  0.52377  0.32674  1.0000
  H   H488      1.0  0.58147  0.97152  0.49029  1.0000
  C   C302      1.0  0.52034  0.88573  0.51347  1.0000
  H   H489      1.0  0.96266  0.60821  0.50476  1.0000
  C   C303      1.0  0.71835  0.55420  0.29919  1.0000
  C   C304      1.0  0.55422  0.94602  0.49298  1.0000
  H   H490      1.0  0.00183  0.61557  0.52371  1.0000
  H   H491      1.0  0.80913  0.54323  0.37136  1.0000
  S   S124      1.0  0.93774  0.57701  0.38971  1.0000
  C   C305      1.0  0.58132  0.90480  0.49914  1.0000
  S   S125      1.0  0.92683  0.55156  0.46091  1.0000
  H   H492      1.0  0.54292  0.93372  0.47483  1.0000
  C   C306      1.0  0.90182  0.57662  0.37144  1.0000
  C   C307      1.0  0.90839  0.58960  0.34731  1.0000
  C   C308      1.0  0.87895  0.58465  0.33159  1.0000
  C   C309      1.0  0.84297  0.56699  0.34008  1.0000
  H   H493      1.0  0.92046  0.52142  0.51338  1.0000
  C   C310      1.0  0.86616  0.56110  0.38018  1.0000
  H   H494      1.0  0.93606  0.60235  0.34056  1.0000
  H   H495      1.0  0.88404  0.59381  0.31285  1.0000
  C   C311      1.0  0.56076  0.51313  0.52569  1.0000
  H   H496      1.0  0.90139  0.55320  0.51286  1.0000
  Fe  Fe62      1.0  0.81663  0.57165  0.28104  1.0000
  C   C312      1.0  0.91530  0.54082  0.52473  1.0000
  H   H497      1.0  0.53568  0.95604  0.50031  1.0000
  C   C313      1.0  0.76052  0.51895  0.44292  1.0000
  H   H498      1.0  0.81618  0.52778  0.44283  1.0000
  H   H499      1.0  0.73862  0.55358  0.28677  1.0000
  C   C314      1.0  0.79201  0.51924  0.45352  1.0000
  H   H500      1.0  0.70610  0.57038  0.28961  1.0000
  C   C315      1.0  0.97486  0.59365  0.51623  1.0000
  Fe  Fe63      1.0  0.61435  0.86910  0.76011  1.0000
  S   S126      1.0  0.64686  0.89379  0.72651  1.0000
  H   H501      1.0  0.67382  0.95980  0.76229  1.0000
  H   H502      1.0  0.59199  0.56215  0.54801  1.0000
  C   C316      1.0  0.51250  0.73779  0.58970  1.0000
  S   S127      1.0  0.54773  0.84857  0.57363  1.0000
  Fe  Fe64      1.0  0.54488  0.94611  0.63073  1.0000
  S   S128      1.0  0.57259  0.97527  0.66543  1.0000
  S   S129      1.0  0.56998  0.95233  0.59422  1.0000
  C   C317      1.0  0.53238  0.80532  0.58951  1.0000
  N   N32       1.0  0.72519  0.96546  0.77642  1.0000
  N   N33       1.0  0.94987  0.57058  0.53568  1.0000
  S   S130      1.0  0.53563  0.73358  0.77638  1.0000
  C   C318      1.0  0.52658  0.53324  0.63216  1.0000
  C   C319      1.0  0.52565  0.77255  0.57717  1.0000
  H   H503      1.0  0.89537  0.52312  0.53875  1.0000
  C   C320      1.0  0.56490  0.54235  0.54106  1.0000
  C   C321      1.0  0.62693  0.91689  0.70923  1.0000
  C   C322      1.0  0.61364  0.93825  0.72079  1.0000
  C   C323      1.0  0.59849  0.95741  0.70706  1.0000
  C   C324      1.0  0.59484  0.95378  0.68180  1.0000
  C   C325      1.0  0.60736  0.93175  0.67019  1.0000
  C   C326      1.0  0.62410  0.91393  0.68389  1.0000
  H   H504      1.0  0.60447  0.92875  0.65066  1.0000
  H   H505      1.0  0.63413  0.89722  0.67488  1.0000
  Fe  Fe65      1.0  0.53384  0.88917  0.59221  1.0000
  H   H506      1.0  0.70781  0.97122  0.73996  1.0000
  H   H507      1.0  0.53477  0.86447  0.70903  1.0000
  S   S131      1.0  0.54036  0.58172  0.56803  1.0000
  H   H508      1.0  0.96709  0.61796  0.55936  1.0000
  H   H509      1.0  0.57683  0.91644  0.54603  1.0000
  Fe  Fe66      1.0  0.51979  0.95518  0.58000  1.0000
  C   C327      1.0  0.96769  0.55276  0.55080  1.0000
  H   H510      1.0  0.77106  0.98435  0.75281  1.0000
  S   S132      1.0  0.51588  0.99191  0.54951  1.0000
  H   H511      1.0  0.55044  0.53863  0.64442  1.0000
  H   H512      1.0  0.71831  0.91900  0.75443  1.0000
  S   S133      1.0  0.55394  0.83096  0.75621  1.0000
  C   C328      1.0  0.52659  0.80325  0.61446  1.0000
  H   H513      1.0  0.58876  0.97436  0.71609  1.0000
  S   S134      1.0  0.51336  0.88300  0.63002  1.0000
  H   H514      1.0  0.92785  0.60868  0.53999  1.0000
  H   H515      1.0  0.61536  0.94048  0.74031  1.0000
  H   H516      1.0  0.52616  0.90995  0.73226  1.0000
  C   C329      1.0  0.70382  0.97650  0.75911  1.0000
  H   H517      1.0  0.97335  0.53333  0.53990  1.0000
  H   H518      1.0  0.53629  0.55689  0.61861  1.0000
  H   H519      1.0  0.99451  0.57426  0.55874  1.0000
  H   H520      1.0  0.55096  0.51943  0.59158  1.0000
  H   H521      1.0  0.50898  0.76741  0.64626  1.0000
  C   C330      1.0  0.53424  0.54606  0.54749  1.0000
  H   H522      1.0  0.53350  0.82851  0.62437  1.0000
  C   C331      1.0  0.76485  0.98848  0.77166  1.0000
  C   C332      1.0  0.94156  0.59506  0.55092  1.0000
  H   H523      1.0  0.53064  0.77403  0.55793  1.0000
  C   C333      1.0  0.57329  0.93625  0.53313  1.0000
  C   C334      1.0  0.51323  0.76861  0.62693  1.0000
  H   H524      1.0  0.55522  0.94564  0.54179  1.0000
  H   H525      1.0  0.51050  0.69571  0.70130  1.0000
  C   C335      1.0  0.51427  0.86441  0.69536  1.0000
  H   H526      1.0  0.71160  0.00690  0.76061  1.0000
  H   H527      1.0  0.52990  0.88681  0.68176  1.0000
  H   H528      1.0  0.92274  0.57857  0.56579  1.0000
  H   H529      1.0  0.94991  0.53570  0.56594  1.0000
  H   H530      1.0  0.51850  0.93199  0.70560  1.0000
  H   H531      1.0  0.68436  0.90695  0.77693  1.0000
  C   C336      1.0  0.71409  0.92504  0.77334  1.0000
  H   H532      1.0  0.60084  0.96142  0.53098  1.0000
  C   C337      1.0  0.71803  0.97172  0.80155  1.0000
  C   C338      1.0  0.95613  0.90489  0.99048  1.0000
  H   H533      1.0  0.68438  0.89776  0.91073  1.0000
  H   H534      1.0  0.70038  0.87790  0.97504  1.0000
  S   S135      1.0  0.55300  0.82536  0.81605  1.0000
  C   C339      1.0  0.98411  0.86502  0.98460  1.0000
  Fe  Fe67      1.0  0.61416  0.86458  0.81508  1.0000
  H   H535      1.0  0.93515  0.89019  0.97588  1.0000
  H   H536      1.0  0.91396  0.83153  0.00038  1.0000
  S   S136      1.0  0.64821  0.89242  0.84886  1.0000
  H   H537      1.0  0.66854  0.86315  0.93468  1.0000
  Fe  Fe68      1.0  0.90791  0.96982  0.92637  1.0000
  S   S137      1.0  0.94470  0.94511  0.93718  1.0000
  H   H538      1.0  0.75870  0.88469  0.82753  1.0000
  S   S138      1.0  0.84655  0.93560  0.92651  1.0000
  C   C340      1.0  0.77008  0.92526  0.85571  1.0000
  C   C341      1.0  0.75547  0.94295  0.86978  1.0000
  C   C342      1.0  0.71812  0.93306  0.86712  1.0000
  Fe  Fe69      1.0  0.84764  0.96855  0.89276  1.0000
  H   H539      1.0  0.98807  0.95278  0.85423  1.0000
  C   C343      1.0  0.93639  0.84728  0.01392  1.0000
  H   H540      1.0  0.77305  0.96440  0.88257  1.0000
  H   H541      1.0  0.72466  0.00158  0.80434  1.0000
  H   H542      1.0  0.78176  0.98072  0.78436  1.0000
  S   S139      1.0  0.81628  0.97353  0.98024  1.0000
  C   C344      1.0  0.96929  0.95091  0.89065  1.0000
  C   C345      1.0  0.97229  0.94184  0.91499  1.0000
  C   C346      1.0  0.99767  0.92963  0.92197  1.0000
  H   H543      1.0  0.75974  0.97269  0.94814  1.0000
  H   H544      1.0  0.69263  0.91805  0.97696  1.0000
  H   H545      1.0  0.95067  0.96155  0.88534  1.0000
  N   N34       1.0  0.71714  0.91510  0.94383  1.0000
  Fe  Fe70      1.0  0.84868  0.98450  0.94638  1.0000
  C   C347      1.0  0.74746  0.89836  0.83853  1.0000
  H   H546      1.0  0.73197  0.87121  0.93957  1.0000
  N   N35       1.0  0.96823  0.87940  0.00256  1.0000
  H   H547      1.0  0.66149  0.90376  0.93593  1.0000
  Fe  Fe71      1.0  0.54919  0.86340  0.78687  1.0000
  C   C348      1.0  0.99043  0.94600  0.87312  1.0000
  H   H548      1.0  0.99261  0.84498  0.99327  1.0000
  S   S140      1.0  0.81645  0.93619  0.85930  1.0000
  H   H549      1.0  0.68858  0.95349  0.80614  1.0000
  H   H550      1.0  0.69237  0.86677  0.82321  1.0000
  H   H551      1.0  0.94362  0.91575  0.00362  1.0000
  N   N36       1.0  0.87279  0.87462  0.85622  1.0000
  C   C349      1.0  0.83629  0.84983  0.84499  1.0000
  C   C350      1.0  0.89082  0.91047  0.84222  1.0000
  C   C351      1.0  0.89590  0.85577  0.85612  1.0000
  C   C352      1.0  0.86799  0.88240  0.88154  1.0000
  H   H552      1.0  0.82167  0.82253  0.85510  1.0000
  H   H553      1.0  0.83869  0.84327  0.82586  1.0000
  H   H554      1.0  0.81838  0.86354  0.84482  1.0000
  H   H555      1.0  0.91856  0.92977  0.84985  1.0000
  H   H556      1.0  0.89424  0.90549  0.82293  1.0000
  H   H557      1.0  0.87454  0.92586  0.84226  1.0000
  H   H558      1.0  0.90045  0.84977  0.83731  1.0000
  H   H559      1.0  0.88304  0.82847  0.86638  1.0000
  H   H560      1.0  0.92353  0.87374  0.86470  1.0000
  H   H561      1.0  0.89476  0.90087  0.89080  1.0000
  H   H562      1.0  0.85417  0.85593  0.89255  1.0000
  H   H563      1.0  0.85092  0.89684  0.88225  1.0000
  C   C353      1.0  0.70998  0.88829  0.83598  1.0000
  H   H564      1.0  0.76998  0.91713  0.94549  1.0000
  H   H565      1.0  0.97956  0.92981  0.98206  1.0000
  H   H566      1.0  0.70686  0.94702  0.87783  1.0000
  C   C354      1.0  0.69519  0.90534  0.85051  1.0000
  H   H567      1.0  0.73829  0.92400  0.98067  1.0000
  Fe  Fe72      1.0  0.56255  0.79575  0.78518  1.0000
  C   C355      1.0  0.68135  0.89406  0.93077  1.0000
  H   H568      1.0  0.74775  0.90678  0.91603  1.0000
  H   H569      1.0  0.96406  0.84992  0.96963  1.0000
  H   H570      1.0  0.00062  0.92318  0.94080  1.0000
  C   C356      1.0  0.71178  0.90841  0.97026  1.0000
  H   H571      1.0  0.73474  0.96493  0.81501  1.0000
  C   C357      1.0  0.74280  0.90195  0.93585  1.0000
  S   S141      1.0  0.60920  0.90490  0.78834  1.0000
  S   S142      1.0  0.62427  0.83163  0.78673  1.0000
  H   H572      1.0  0.72975  0.91564  0.78594  1.0000
  H   H573      1.0  0.73733  0.96225  0.91881  1.0000
  H   H574      1.0  0.71416  0.96698  0.94438  1.0000
  C   C358      1.0  0.73271  0.95602  0.93853  1.0000
  S   S143      1.0  0.90930  0.99913  0.89116  1.0000
  C   C359      1.0  0.99643  0.90048  0.02139  1.0000
  C   C360      1.0  0.83606  0.00870  0.02448  1.0000
  H   H575      1.0  0.94439  0.82685  0.02253  1.0000
  S   S144      1.0  0.50930  0.88603  0.78157  1.0000
  H   H576      1.0  0.92480  0.85702  0.02840  1.0000
