data_image0
_chemical_formula_structural       SHC7HCH5FeS2NHFeSFeH3SH2C2HSHCSC6H6CH2CNC4H16CSHSCNFe2HSFeH2C2NH3CSH2FeSHSHCHCH2CHC3SFeH2FeHSH2FeC2SFeS3H2FeH3SH2FeH3CSH3CH2CH2CSC2NCHSH2CSHCHC6H4NSHC3H6C3NSC2SH2CSHCHCH4CHSHCHCHCH2CFeS3HFeSCHSCHFeNH7SFeCNSCH3SC7H4C6H7CH2SH5C2H2CFeCHC3H3CH2CNS2NCH3SH5CHC2H2CHCH3CFeHSCH3CHCH3CFeS2HFeSHSFeS2H5CHSHC6H4C3SC2H4C2Fe2H5SCNH5CHCH2FeNH4C4SCH2SH2CHCH3CH3C2H2CH2CH5SHSCNH3CH4C2H2CH4FeCHSCH2CHC2H3NH2SFeHSFeH2FeS2FeS2FeSFeS3FeS3FeS2CSFeHSFeSH4CSNHCHC8H4C6H4C6H6C3H5C6H5FeH2CH4CFeNC4HNH7CH4NCFeCNC4H12NC4H13C3SCHSNH2CHSHS2CH2FeCH2C3HSCSHS2CSHFeCHSHFeNC4HCHC2HSH2CHCH2SCH2CH3CSH2C2HS2H2FeH2CH2C2FeH9C2H2C2S2H2CH4CHFeH5CHSCH3CNHCHFeHC2HCHC2H3CHCHCH4CSH4CNHCSC2H3CHC2H2CH3CH4CFeSHFeSFeHS2FeCFeS2FeSFeHS3FeS2FeS2FeSFeS3FeSFeS2HFeHS2C4H5SC7H4C3HCH3C6H3C2HCHSC2HC6H5C3HSCHC4H6NC4H12FeSC2H2CH3C2HC2FeSNCH6SNSHSHNCHCH2NC2NC4H13CHCH2CH3FeH2C2HCSCHFeCNHSCHC3SCHC3FeCH2CH3CH3C2H3CH2FeHFeCHC2HS2H5NSH4C2FeHSHSHCHC3HSH2CH2SH3CH2CH2SCH4CH3SHC2SH2CH2SHC2HSFeS2FeS2FeS2FeSFeS3CFe2HFeS3FeH4SH4Fe2C6H4C6H4CHC6H5NCFeHCHC6H4C6H5SCSHSHSNCFeC3NSH3CSNHC3HCHCH4FeHFeSNCHSH4FeHCHCHCHSCSH2NC4H12NC4H12CH2S2C2HC2HS2CH8FeSCSHFe2SH3FeSHCFeSHCSH7C2HC2HSCH3FeH2NHSHS2HCSFeCH5C2H2CHNH2CHCHCSH5C2FeHNH4CHFeCHCH4CSCHCHSHC2HSC2H2CH2C4NCH2C2H4CHFeC3HCHCFeSFeSHFeCHCSFeC3SHSH2S2CHFeS2FeS2FeSFeS4CS2H2C2FeC3H2C3HCH3SCSC7H4C4H2C4H3C6H4C3H2SHCHSCNH2SH2FeNSNC4H13NC3H3CHSH2FeHCHC2Fe2HCFeH5CH3CH2CH4C2H3CH2S2H2C2HNH4NH5SHCFeHSHCHSH2CH3SCHCHNH5FeSHC2SH5CH4CH2CHCSH3SCH3SCFeCSFeSCH2NCH3FeHS2CNCH2SH4C2SH3C3H2SH2SCSCSH2C2HCHCHCHCHCH2FeHCH2FeH4CH2CHNCHFeS2FeSFeSHCHSC2H3SH7C4SH4C5H3SC6H5CH3SH2NHFeCNHC3HCSH2NCH3SH2FeH2C2H3CHCH2CH2NH2CH2SHCHCH2CH6C2HCSH2CS2CHCSHNHNFeS2FeSC2SCH2FeS2C2HCH4NCH7FeHC6H6S2NC9H4NC4H11CFeH4C2HSHC2H2SHFeHC2HC2HC2HCHSH2C2H2NHSH3S2HCH4C2HCFeSCSFeHCFeH9CH3CH2CHNC4FeHCHCH4CH4NH3NFeS3H2C2S2H2FeS2FeHFeSHSC2NH2C2H2SC6H4SC2H2CH3C2H3CHSC2H6CH3CHFeH2C2HC2HCHNHC3SH7CHCSH2C2H2CH3FeH2FeSH2SHFeSFeS3HSHFeS2HNH5CFeCH4C7H4C4HC2HSFeCHSNFeHCH3C2HNH3C4HFeCH2CH4CH7C4H2
_chemical_formula_sum              "S288 H1152 C720 Fe144 N72"
_cell_length_a       42.16
_cell_length_b       39.1887
_cell_length_c       85.8919
_cell_angle_alpha    87.64
_cell_angle_beta     84.1058
_cell_angle_gamma    112.979

_space_group_name_H-M_alt    "P 1"
_space_group_IT_number       1

loop_
  _space_group_symop_operation_xyz
  'x, y, z'

loop_
  _atom_site_type_symbol
  _atom_site_label
  _atom_site_symmetry_multiplicity
  _atom_site_fract_x
  _atom_site_fract_y
  _atom_site_fract_z
  _atom_site_occupancy
  S   S1        1.0  0.08498  0.05794  0.15697  1.0000
  H   H1        1.0  0.43305  0.26123  0.07808  1.0000
  C   C1        1.0  0.46780  0.16475  0.07663  1.0000
  C   C2        1.0  0.45217  0.27544  0.06752  1.0000
  C   C3        1.0  0.01664  0.11164  0.18064  1.0000
  C   C4        1.0  0.04609  0.11276  0.18721  1.0000
  C   C5        1.0  0.06682  0.09542  0.18024  1.0000
  C   C6        1.0  0.05877  0.07827  0.16637  1.0000
  C   C7        1.0  0.02941  0.07727  0.15980  1.0000
  H   H2        1.0  0.38766  0.42686  0.01038  1.0000
  C   C8        1.0  0.10866  0.12106  0.23014  1.0000
  H   H3        1.0  0.08943  0.09615  0.18538  1.0000
  H   H4        1.0  0.44410  0.13966  0.16773  1.0000
  H   H5        1.0  0.35693  0.06440  0.16697  1.0000
  H   H6        1.0  0.12864  0.09601  0.21179  1.0000
  H   H7        1.0  0.46139  0.31816  0.09195  1.0000
  Fe  Fe1       1.0  0.14658  0.03524  0.20258  1.0000
  S   S2        1.0  0.16611  0.07290  0.18011  1.0000
  S   S3        1.0  0.46204  0.23578  0.15075  1.0000
  N   N1        1.0  0.38261  0.47291  0.99802  1.0000
  H   H8        1.0  0.46862  0.34688  0.07388  1.0000
  Fe  Fe2       1.0  0.18155  0.02800  0.17097  1.0000
  S   S4        1.0  0.22957  0.04122  0.15358  1.0000
  Fe  Fe3       1.0  0.11427  0.03807  0.17290  1.0000
  H   H9        1.0  0.45589  0.25322  0.06081  1.0000
  H   H10       1.0  0.05273  0.12682  0.19773  1.0000
  H   H11       1.0  0.37367  0.12148  0.20094  1.0000
  S   S5        1.0  0.36281  0.18699  0.15905  1.0000
  H   H12       1.0  0.38264  0.05153  0.19037  1.0000
  H   H13       1.0  0.37246  0.11108  0.15810  1.0000
  C   C9        1.0  0.40437  0.07936  0.18756  1.0000
  C   C10       1.0  0.36496  0.11067  0.18967  1.0000
  H   H14       1.0  0.10233  0.13865  0.22205  1.0000
  S   S6        1.0  0.42988  0.15836  0.13269  1.0000
  H   H15       1.0  0.99626  0.48190  0.01666  1.0000
  C   C11       1.0  0.99819  0.45648  0.01212  1.0000
  S   S7        1.0  0.42555  0.23640  0.11915  1.0000
  C   C12       1.0  0.26645  0.08172  0.15524  1.0000
  C   C13       1.0  0.29475  0.09344  0.14330  1.0000
  C   C14       1.0  0.32414  0.12625  0.14411  1.0000
  C   C15       1.0  0.32546  0.14727  0.15698  1.0000
  C   C16       1.0  0.29705  0.13568  0.16886  1.0000
  C   C17       1.0  0.26762  0.10296  0.16802  1.0000
  H   H16       1.0  0.29389  0.07716  0.13335  1.0000
  H   H17       1.0  0.34586  0.13510  0.13485  1.0000
  H   H18       1.0  0.29796  0.15187  0.17884  1.0000
  H   H19       1.0  0.24596  0.09408  0.17730  1.0000
  H   H20       1.0  0.40044  0.08651  0.15679  1.0000
  H   H21       1.0  0.48849  0.03453  0.99483  1.0000
  C   C18       1.0  0.13233  0.07478  0.23478  1.0000
  H   H22       1.0  0.01884  0.99611  0.15934  1.0000
  H   H23       1.0  0.41499  0.16295  0.16988  1.0000
  C   C19       1.0  0.38015  0.09118  0.16470  1.0000
  N   N2        1.0  0.19175  0.11880  0.13231  1.0000
  C   C20       1.0  0.22379  0.13357  0.13991  1.0000
  C   C21       1.0  0.16528  0.13034  0.14035  1.0000
  C   C22       1.0  0.17832  0.07775  0.13340  1.0000
  C   C23       1.0  0.19962  0.13340  0.11561  1.0000
  H   H24       1.0  0.24422  0.12511  0.13420  1.0000
  H   H25       1.0  0.21880  0.12288  0.15251  1.0000
  H   H26       1.0  0.23484  0.16449  0.13936  1.0000
  H   H27       1.0  0.14059  0.11932  0.13503  1.0000
  H   H28       1.0  0.15857  0.11955  0.15297  1.0000
  H   H29       1.0  0.17443  0.16115  0.13982  1.0000
  H   H30       1.0  0.15364  0.06536  0.12816  1.0000
  H   H31       1.0  0.17280  0.06601  0.14582  1.0000
  H   H32       1.0  0.19750  0.06785  0.12745  1.0000
  H   H33       1.0  0.17597  0.12266  0.10954  1.0000
  H   H34       1.0  0.21951  0.12508  0.10925  1.0000
  H   H35       1.0  0.20989  0.16435  0.11434  1.0000
  H   H36       1.0  0.02319  0.06407  0.14906  1.0000
  H   H37       1.0  0.43380  0.15383  0.18651  1.0000
  H   H38       1.0  0.44044  0.28977  0.05992  1.0000
  H   H39       1.0  0.33206  0.47067  0.99427  1.0000
  C   C24       1.0  0.47951  0.33061  0.08093  1.0000
  S   S8        1.0  0.16692  0.99347  0.19406  1.0000
  H   H40       1.0  0.42582  0.07551  0.18013  1.0000
  S   S9        1.0  0.15231  0.04577  0.22778  1.0000
  C   C25       1.0  0.42277  0.14211  0.17576  1.0000
  N   N3        1.0  0.39304  0.10581  0.17944  1.0000
  Fe  Fe4       1.0  0.48111  0.19514  0.13997  1.0000
  Fe  Fe5       1.0  0.41171  0.20125  0.14204  1.0000
  H   H41       1.0  0.47571  0.22307  0.02783  1.0000
  S   S10       1.0  0.44149  0.18591  0.08528  1.0000
  Fe  Fe6       1.0  0.44822  0.19666  0.11039  1.0000
  H   H42       1.0  0.41419  0.08948  0.19876  1.0000
  H   H43       1.0  0.34173  0.08402  0.19243  1.0000
  C   C26       1.0  0.48308  0.14689  0.08593  1.0000
  C   C27       1.0  0.12347  0.09694  0.22433  1.0000
  N   N4        1.0  0.48542  0.30176  0.07195  1.0000
  H   H44       1.0  0.99550  0.10892  0.22674  1.0000
  H   H45       1.0  0.00213  0.01679  0.18500  1.0000
  H   H46       1.0  0.35628  0.13092  0.18391  1.0000
  C   C28       1.0  0.47301  0.16521  0.06023  1.0000
  S   S11       1.0  0.47406  0.29486  0.02082  1.0000
  H   H47       1.0  0.36425  0.44889  0.02185  1.0000
  H   H48       1.0  0.47908  0.14643  0.09859  1.0000
  Fe  Fe7       1.0  0.47783  0.26629  0.12681  1.0000
  S   S12       1.0  0.09288  0.00559  0.19632  1.0000
  H   H49       1.0  0.46118  0.17901  0.05303  1.0000
  S   S13       1.0  0.13043  0.99492  0.16261  1.0000
  H   H50       1.0  0.01990  0.45260  0.01721  1.0000
  C   C29       1.0  0.36896  0.44052  0.00989  1.0000
  H   H51       1.0  0.34400  0.41921  0.00717  1.0000
  C   C30       1.0  0.00793  0.09320  0.16712  1.0000
  H   H52       1.0  0.48220  0.26749  0.09252  1.0000
  H   H53       1.0  0.43512  0.48777  0.00299  1.0000
  C   C31       1.0  0.49078  0.23472  0.01649  1.0000
  H   H54       1.0  0.00595  0.46255  0.99918  1.0000
  C   C32       1.0  0.49406  0.26972  0.01028  1.0000
  C   C33       1.0  0.49307  0.14736  0.05312  1.0000
  C   C34       1.0  0.35715  0.49024  0.99766  1.0000
  S   S14       1.0  0.49515  0.39722  0.02934  1.0000
  Fe  Fe8       1.0  0.04286  0.08518  0.30828  1.0000
  H   H55       1.0  0.33302  0.47687  0.38573  1.0000
  H   H56       1.0  0.30198  0.49124  0.41769  1.0000
  Fe  Fe9       1.0  0.06097  0.16732  0.31055  1.0000
  H   H57       1.0  0.08000  0.27445  0.34559  1.0000
  S   S15       1.0  0.08950  0.21234  0.32550  1.0000
  H   H58       1.0  0.16272  0.19957  0.25331  1.0000
  H   H59       1.0  0.11636  0.41514  0.44418  1.0000
  Fe  Fe10      1.0  0.06184  0.13775  0.27881  1.0000
  C   C35       1.0  0.10194  0.12230  0.24637  1.0000
  C   C36       1.0  0.18943  0.48663  0.40137  1.0000
  S   S16       1.0  0.09047  0.13601  0.29926  1.0000
  Fe  Fe11      1.0  0.18157  0.41978  0.31444  1.0000
  S   S17       1.0  0.19393  0.40537  0.33801  1.0000
  S   S18       1.0  0.15990  0.37891  0.29657  1.0000
  S   S19       1.0  0.13272  0.42208  0.37045  1.0000
  H   H60       1.0  0.07838  0.48219  0.41747  1.0000
  H   H61       1.0  0.19242  0.23931  0.29036  1.0000
  Fe  Fe12      1.0  0.24039  0.45944  0.33340  1.0000
  H   H62       1.0  0.16846  0.26842  0.29120  1.0000
  H   H63       1.0  0.03473  0.26586  0.34797  1.0000
  H   H64       1.0  0.04487  0.41735  0.44256  1.0000
  S   S20       1.0  0.03902  0.03306  0.32157  1.0000
  H   H65       1.0  0.13593  0.48107  0.44768  1.0000
  H   H66       1.0  0.13233  0.05880  0.25908  1.0000
  Fe  Fe13      1.0  0.16594  0.44000  0.34706  1.0000
  H   H67       1.0  0.19062  0.20091  0.26800  1.0000
  H   H68       1.0  0.27790  0.46301  0.40345  1.0000
  H   H69       1.0  0.10473  0.35201  0.32758  1.0000
  C   C37       1.0  0.13134  0.23984  0.26750  1.0000
  S   S21       1.0  0.28984  0.46500  0.34270  1.0000
  H   H70       1.0  0.01639  0.31875  0.34989  1.0000
  H   H71       1.0  0.08941  0.31114  0.36876  1.0000
  H   H72       1.0  0.06648  0.43401  0.41413  1.0000
  C   C38       1.0  0.16577  0.20296  0.26597  1.0000
  H   H73       1.0  0.10901  0.21701  0.27459  1.0000
  H   H74       1.0  0.07559  0.34884  0.37006  1.0000
  C   C39       1.0  0.08781  0.02432  0.29995  1.0000
  H   H75       1.0  0.10472  0.10017  0.26935  1.0000
  H   H76       1.0  0.08846  0.39525  0.42956  1.0000
  C   C40       1.0  0.09091  0.45373  0.48727  1.0000
  S   S22       1.0  0.14935  0.45029  0.32399  1.0000
  C   C41       1.0  0.05709  0.45231  0.48709  1.0000
  C   C42       1.0  0.19364  0.26991  0.26129  1.0000
  N   N5        1.0  0.16472  0.23850  0.27056  1.0000
  C   C43       1.0  0.16807  0.24138  0.28748  1.0000
  H   H77       1.0  0.14595  0.21890  0.29491  1.0000
  S   S23       1.0  0.01063  0.47958  0.47713  1.0000
  H   H78       1.0  0.19352  0.29717  0.26447  1.0000
  H   H79       1.0  0.14428  0.17869  0.27274  1.0000
  C   C44       1.0  0.10614  0.00376  0.29360  1.0000
  S   S24       1.0  0.01725  0.08360  0.28661  1.0000
  H   H80       1.0  0.09214  0.05130  0.29436  1.0000
  C   C45       1.0  0.12554  0.07600  0.25100  1.0000
  H   H81       1.0  0.16660  0.42783  0.39833  1.0000
  C   C46       1.0  0.11111  0.25740  0.31626  1.0000
  C   C47       1.0  0.10002  0.26878  0.30295  1.0000
  C   C48       1.0  0.11595  0.30602  0.29662  1.0000
  C   C49       1.0  0.14291  0.33182  0.30359  1.0000
  C   C50       1.0  0.15485  0.32000  0.31648  1.0000
  C   C51       1.0  0.13876  0.28293  0.32290  1.0000
  H   H82       1.0  0.07840  0.24930  0.29790  1.0000
  H   H83       1.0  0.10664  0.31518  0.28663  1.0000
  H   H84       1.0  0.17630  0.33950  0.32161  1.0000
  H   H85       1.0  0.14757  0.27411  0.33313  1.0000
  N   N6        1.0  0.06918  0.32339  0.34826  1.0000
  S   S25       1.0  0.03595  0.17312  0.28934  1.0000
  H   H86       1.0  0.07368  0.43626  0.45684  1.0000
  C   C52       1.0  0.10377  0.34919  0.34059  1.0000
  C   C53       1.0  0.04291  0.33745  0.34430  1.0000
  C   C54       1.0  0.10915  0.42123  0.43256  1.0000
  H   H87       1.0  0.19822  0.99308  0.33049  1.0000
  H   H88       1.0  0.01472  0.14190  0.25016  1.0000
  H   H89       1.0  0.11000  0.46715  0.40799  1.0000
  H   H90       1.0  0.21927  0.26986  0.26333  1.0000
  H   H91       1.0  0.04377  0.30163  0.37169  1.0000
  H   H92       1.0  0.11089  0.37752  0.34463  1.0000
  C   C55       1.0  0.15346  0.45981  0.38106  1.0000
  C   C56       1.0  0.08764  0.45919  0.41745  1.0000
  C   C57       1.0  0.06379  0.00970  0.31352  1.0000
  N   N7        1.0  0.09754  0.45227  0.43292  1.0000
  S   S26       1.0  0.23095  0.47109  0.30887  1.0000
  C   C58       1.0  0.06088  0.28608  0.34264  1.0000
  C   C59       1.0  0.10997  0.09943  0.25681  1.0000
  S   S27       1.0  0.01546  0.11627  0.32128  1.0000
  H   H93       1.0  0.06129  0.28697  0.32964  1.0000
  H   H94       1.0  0.04868  0.36570  0.34832  1.0000
  C   C60       1.0  0.06938  0.32107  0.36547  1.0000
  S   S28       1.0  0.08437  0.15323  0.25352  1.0000
  H   H95       1.0  0.19183  0.26861  0.24846  1.0000
  C   C61       1.0  0.06722  0.44243  0.44511  1.0000
  H   H96       1.0  0.12461  0.01486  0.28309  1.0000
  C   C62       1.0  0.16906  0.45531  0.39418  1.0000
  H   H97       1.0  0.05809  0.46547  0.44613  1.0000
  H   H98       1.0  0.12737  0.23651  0.25494  1.0000
  H   H99       1.0  0.12431  0.33956  0.34332  1.0000
  H   H100      1.0  0.12993  0.26663  0.27045  1.0000
  C   C63       1.0  0.05219  0.48183  0.47954  1.0000
  H   H101      1.0  0.13242  0.42790  0.42376  1.0000
  S   S29       1.0  0.16120  0.48330  0.47827  1.0000
  H   H102      1.0  0.04236  0.33965  0.33136  1.0000
  C   C64       1.0  0.12615  0.48617  0.43665  1.0000
  H   H103      1.0  0.20213  0.48324  0.41128  1.0000
  C   C65       1.0  0.11975  0.48458  0.47992  1.0000
  H   H104      1.0  0.28561  0.48971  0.37578  1.0000
  C   C66       1.0  0.28934  0.49192  0.40695  1.0000
  H   H105      1.0  0.16263  0.05244  0.69194  1.0000
  H   H106      1.0  0.09468  0.43038  0.49269  1.0000
  C   C67       1.0  0.39528  0.08208  0.66553  1.0000
  Fe  Fe14      1.0  0.29188  0.07517  0.63061  1.0000
  S   S30       1.0  0.28206  0.09688  0.65358  1.0000
  S   S31       1.0  0.34462  0.08983  0.61667  1.0000
  S   S32       1.0  0.00617  0.04131  0.70049  1.0000
  H   H107      1.0  0.13140  0.04085  0.64917  1.0000
  Fe  Fe15      1.0  0.23436  0.09755  0.64434  1.0000
  S   S33       1.0  0.21307  0.13989  0.65115  1.0000
  C   C68       1.0  0.01102  0.19031  0.72511  1.0000
  H   H108      1.0  0.23725  0.00151  0.71929  1.0000
  S   S34       1.0  0.24676  0.08086  0.62052  1.0000
  C   C69       1.0  0.46030  0.23637  0.58105  1.0000
  H   H109      1.0  0.33040  0.05800  0.68095  1.0000
  Fe  Fe16      1.0  0.02314  0.09746  0.64520  1.0000
  N   N8        1.0  0.07980  0.01220  0.66147  1.0000
  H   H110      1.0  0.46854  0.13831  0.62135  1.0000
  H   H111      1.0  0.46415  0.17555  0.59417  1.0000
  H   H112      1.0  0.14137  0.08384  0.69521  1.0000
  H   H113      1.0  0.17070  0.09052  0.67755  1.0000
  H   H114      1.0  0.00315  0.47867  0.53020  1.0000
  H   H115      1.0  0.10180  0.06873  0.66746  1.0000
  H   H116      1.0  0.22067  0.16375  0.70218  1.0000
  S   S35       1.0  0.06780  0.10457  0.62682  1.0000
  Fe  Fe17      1.0  0.21647  0.02242  0.63141  1.0000
  C   C70       1.0  0.34860  0.04202  0.65228  1.0000
  N   N9        1.0  0.48635  0.23539  0.59114  1.0000
  S   S36       1.0  0.20026  0.03985  0.65436  1.0000
  C   C71       1.0  0.06975  0.09944  0.69792  1.0000
  H   H117      1.0  0.18470  0.06441  0.71759  1.0000
  H   H118      1.0  0.11734  0.01674  0.67720  1.0000
  H   H119      1.0  0.06720  0.10361  0.68572  1.0000
  S   S37       1.0  0.47861  0.18753  0.64643  1.0000
  C   C72       1.0  0.07673  0.04742  0.66490  1.0000
  C   C73       1.0  0.17332  0.13150  0.64403  1.0000
  C   C74       1.0  0.14942  0.14371  0.65191  1.0000
  C   C75       1.0  0.11707  0.13598  0.64661  1.0000
  C   C76       1.0  0.10884  0.11669  0.63323  1.0000
  C   C77       1.0  0.13307  0.10517  0.62522  1.0000
  C   C78       1.0  0.16499  0.11200  0.63075  1.0000
  H   H120      1.0  0.15582  0.15900  0.66214  1.0000
  H   H121      1.0  0.09877  0.14546  0.65272  1.0000
  H   H122      1.0  0.12688  0.09035  0.61484  1.0000
  H   H123      1.0  0.18337  0.10267  0.62455  1.0000
  C   C79       1.0  0.38186  0.11890  0.62443  1.0000
  C   C80       1.0  0.37983  0.14157  0.63631  1.0000
  C   C81       1.0  0.40989  0.16322  0.64274  1.0000
  C   C82       1.0  0.44196  0.16194  0.63746  1.0000
  C   C83       1.0  0.44404  0.13967  0.62543  1.0000
  C   C84       1.0  0.41409  0.11837  0.61888  1.0000
  H   H124      1.0  0.35519  0.14264  0.64047  1.0000
  H   H125      1.0  0.40820  0.18067  0.65197  1.0000
  H   H126      1.0  0.41382  0.08869  0.65454  1.0000
  H   H127      1.0  0.41575  0.10079  0.60970  1.0000
  H   H128      1.0  0.20909  0.11150  0.72181  1.0000
  H   H129      1.0  0.38451  0.10388  0.66596  1.0000
  H   H130      1.0  0.23382  0.11107  0.67891  1.0000
  C   C85       1.0  0.04862  0.06405  0.72328  1.0000
  H   H131      1.0  0.05689  0.04319  0.67516  1.0000
  H   H132      1.0  0.06886  0.05924  0.65475  1.0000
  S   S38       1.0  0.25332  0.01597  0.68570  1.0000
  H   H133      1.0  0.09750  0.02874  0.63686  1.0000
  H   H134      1.0  0.33715  0.06322  0.65187  1.0000
  H   H135      1.0  0.35594  0.03948  0.69130  1.0000
  H   H136      1.0  0.11759  0.14784  0.69663  1.0000
  H   H137      1.0  0.20658  0.15535  0.68313  1.0000
  C   C86       1.0  0.10174  0.11989  0.72000  1.0000
  C   C87       1.0  0.09849  0.12438  0.70410  1.0000
  H   H138      1.0  0.25023  0.11990  0.69745  1.0000
  H   H139      1.0  0.02942  0.04060  0.73070  1.0000
  C   C88       1.0  0.48957  0.19922  0.59054  1.0000
  Fe  Fe18      1.0  0.24873  0.03734  0.66170  1.0000
  C   C89       1.0  0.04441  0.06971  0.70757  1.0000
  H   H140      1.0  0.44931  0.21769  0.61211  1.0000
  C   C90       1.0  0.19980  0.14511  0.69581  1.0000
  C   C91       1.0  0.18791  0.09387  0.71533  1.0000
  C   C92       1.0  0.21347  0.99719  0.69801  1.0000
  H   H141      1.0  0.43430  0.21379  0.58506  1.0000
  H   H142      1.0  0.17560  0.14868  0.69999  1.0000
  H   H143      1.0  0.03336  0.20533  0.71584  1.0000
  C   C93       1.0  0.16617  0.08207  0.69038  1.0000
  H   H144      1.0  0.16348  0.09584  0.72061  1.0000
  H   H145      1.0  0.22526  0.07308  0.69331  1.0000
  C   C94       1.0  0.07701  0.08951  0.72958  1.0000
  N   N10       1.0  0.19538  0.10588  0.69833  1.0000
  S   S39       1.0  0.13696  0.15240  0.72765  1.0000
  S   S40       1.0  0.02749  0.12623  0.66744  1.0000
  N   N11       1.0  0.36736  0.04452  0.66609  1.0000
  C   C95       1.0  0.22761  0.10231  0.69173  1.0000
  H   H146      1.0  0.41055  0.08489  0.67558  1.0000
  H   H147      1.0  0.03489  0.42794  0.49232  1.0000
  H   H148      1.0  0.32132  0.00940  0.68141  1.0000
  S   S41       1.0  0.26237  0.01507  0.63957  1.0000
  H   H149      1.0  0.45727  0.26334  0.58118  1.0000
  H   H150      1.0  0.39701  0.01747  0.67619  1.0000
  H   H151      1.0  0.32694  0.01426  0.65243  1.0000
  H   H152      1.0  0.02190  0.18821  0.73623  1.0000
  H   H153      1.0  0.46791  0.23273  0.56862  1.0000
  C   C96       1.0  0.10578  0.01909  0.64751  1.0000
  H   H154      1.0  0.47286  0.26722  0.60852  1.0000
  C   C97       1.0  0.47506  0.23999  0.60752  1.0000
  C   C98       1.0  0.38270  0.01644  0.66591  1.0000
  H   H155      1.0  0.02188  0.12792  0.72925  1.0000
  H   H156      1.0  0.03228  0.14400  0.70879  1.0000
  C   C99       1.0  0.01040  0.13092  0.71844  1.0000
  H   H157      1.0  0.36612  0.04673  0.64106  1.0000
  C   C100      1.0  0.34280  0.03754  0.68059  1.0000
  H   H158      1.0  0.40141  0.02111  0.65509  1.0000
  H   H159      1.0  0.99694  0.17092  0.69600  1.0000
  H   H160      1.0  0.03694  0.99457  0.64790  1.0000
  C   C101      1.0  0.09085  0.99786  0.67517  1.0000
  Fe  Fe19      1.0  0.99643  0.06869  0.67907  1.0000
  H   H161      1.0  0.99586  0.20789  0.72687  1.0000
  S   S42       1.0  0.99554  0.03998  0.65719  1.0000
  C   C102      1.0  0.21309  0.99398  0.71434  1.0000
  H   H162      1.0  0.10987  0.99355  0.64490  1.0000
  H   H163      1.0  0.07276  0.99448  0.68608  1.0000
  H   H164      1.0  0.49367  0.23861  0.61559  1.0000
  C   C103      1.0  0.43339  0.48875  0.88084  1.0000
  H   H165      1.0  0.24234  0.18803  0.79925  1.0000
  C   C104      1.0  0.48703  0.01924  0.98456  1.0000
  H   H166      1.0  0.16784  0.38861  0.81972  1.0000
  H   H167      1.0  0.11991  0.41946  0.78320  1.0000
  H   H168      1.0  0.29214  0.26879  0.80250  1.0000
  C   C105      1.0  0.38872  0.46048  0.98240  1.0000
  Fe  Fe20      1.0  0.13677  0.15313  0.78574  1.0000
  S   S43       1.0  0.10454  0.18356  0.79505  1.0000
  S   S44       1.0  0.16529  0.13227  0.80173  1.0000
  H   H169      1.0  0.20269  0.43842  0.79978  1.0000
  Fe  Fe21      1.0  0.12959  0.22339  0.77358  1.0000
  S   S45       1.0  0.15178  0.28622  0.77217  1.0000
  H   H170      1.0  0.21730  0.26077  0.78094  1.0000
  S   S46       1.0  0.16537  0.19589  0.76565  1.0000
  Fe  Fe22      1.0  0.25763  0.42902  0.82571  1.0000
  S   S47       1.0  0.22200  0.45412  0.83645  1.0000
  S   S48       1.0  0.23583  0.36628  0.82636  1.0000
  H   H171      1.0  0.12439  0.37566  0.78385  1.0000
  H   H172      1.0  0.18240  0.21495  0.80223  1.0000
  H   H173      1.0  0.47220  0.14661  0.94648  1.0000
  H   H174      1.0  0.47868  0.05579  0.95523  1.0000
  H   H175      1.0  0.18688  0.40909  0.78438  1.0000
  C   C106      1.0  0.26603  0.25668  0.80959  1.0000
  H   H176      1.0  0.40793  0.44744  0.98225  1.0000
  S   S49       1.0  0.30126  0.45978  0.83945  1.0000
  H   H177      1.0  0.48120  0.42844  0.97838  1.0000
  C   C107      1.0  0.21209  0.34494  0.81129  1.0000
  C   C108      1.0  0.21935  0.36267  0.79612  1.0000
  C   C109      1.0  0.20067  0.34433  0.78416  1.0000
  C   C110      1.0  0.17481  0.30822  0.78733  1.0000
  C   C111      1.0  0.16741  0.29060  0.80253  1.0000
  C   C112      1.0  0.18600  0.30899  0.81449  1.0000
  H   H178      1.0  0.23974  0.39023  0.79353  1.0000
  H   H179      1.0  0.20655  0.35795  0.77238  1.0000
  H   H180      1.0  0.14711  0.26299  0.80511  1.0000
  H   H181      1.0  0.18006  0.29542  0.82628  1.0000
  C   C113      1.0  0.14799  0.08346  0.80380  1.0000
  C   C114      1.0  0.14379  0.06504  0.81863  1.0000
  C   C115      1.0  0.12939  0.02611  0.82062  1.0000
  S   S50       1.0  0.01002  0.12167  0.78871  1.0000
  C   C116      1.0  0.12493  0.02370  0.79276  1.0000
  C   C117      1.0  0.13850  0.06279  0.79084  1.0000
  H   H182      1.0  0.15100  0.08090  0.82865  1.0000
  H   H183      1.0  0.44868  0.10752  0.97176  1.0000
  H   H184      1.0  0.48744  0.13419  0.97995  1.0000
  H   H185      1.0  0.14242  0.07696  0.77929  1.0000
  C   C118      1.0  0.20416  0.22531  0.80947  1.0000
  C   C119      1.0  0.46580  0.45681  0.96036  1.0000
  Fe  Fe23      1.0  0.12267  0.16127  0.75250  1.0000
  Fe  Fe24      1.0  0.06670  0.14965  0.77938  1.0000
  H   H186      1.0  0.18352  0.45333  0.78469  1.0000
  H   H187      1.0  0.26590  0.23499  0.81841  1.0000
  H   H188      1.0  0.23730  0.29468  0.79415  1.0000
  H   H189      1.0  0.02380  0.10226  0.75721  1.0000
  H   H190      1.0  0.16052  0.44942  0.81944  1.0000
  S   S51       1.0  0.09689  0.11576  0.77194  1.0000
  C   C120      1.0  0.18151  0.42856  0.79223  1.0000
  N   N12       1.0  0.14708  0.41070  0.80179  1.0000
  H   H191      1.0  0.09367  0.38272  0.79807  1.0000
  H   H192      1.0  0.45261  0.07729  0.94732  1.0000
  H   H193      1.0  0.43105  0.99764  0.98654  1.0000
  H   H194      1.0  0.14924  0.35713  0.80540  1.0000
  H   H195      1.0  0.02024  0.05301  0.79055  1.0000
  C   C121      1.0  0.14636  0.37942  0.81226  1.0000
  H   H196      1.0  0.05240  0.03944  0.79777  1.0000
  C   C122      1.0  0.24353  0.21131  0.79099  1.0000
  H   H197      1.0  0.22291  0.19898  0.78333  1.0000
  H   H198      1.0  0.12558  0.01203  0.83219  1.0000
  Fe  Fe25      1.0  0.26703  0.48815  0.84855  1.0000
  N   N13       1.0  0.23823  0.24105  0.79953  1.0000
  H   H199      1.0  0.26903  0.22193  0.78342  1.0000
  H   H200      1.0  0.26381  0.28202  0.77988  1.0000
  H   H201      1.0  0.20002  0.24627  0.81678  1.0000
  H   H202      1.0  0.20177  0.20130  0.81760  1.0000
  C   C123      1.0  0.12001  0.39654  0.79127  1.0000
  C   C124      1.0  0.03258  0.00607  0.77150  1.0000
  C   C125      1.0  0.14050  0.43830  0.81137  1.0000
  C   C126      1.0  0.49253  0.48545  0.98285  1.0000
  S   S52       1.0  0.27828  0.47099  0.80471  1.0000
  C   C127      1.0  0.23921  0.27086  0.78812  1.0000
  H   H203      1.0  0.26273  0.27932  0.81616  1.0000
  H   H204      1.0  0.21878  0.00137  0.80837  1.0000
  S   S53       1.0  0.08878  0.19213  0.75857  1.0000
  H   H205      1.0  0.12146  0.36650  0.82024  1.0000
  H   H206      1.0  0.47314  0.08459  0.98017  1.0000
  C   C128      1.0  0.48050  0.45449  0.97415  1.0000
  H   H207      1.0  0.45512  0.43247  0.95399  1.0000
  C   C129      1.0  0.47546  0.10998  0.97303  1.0000
  H   H208      1.0  0.38341  0.48317  0.90427  1.0000
  H   H209      1.0  0.02799  0.02864  0.76505  1.0000
  H   H210      1.0  0.17733  0.47938  0.90197  1.0000
  C   C130      1.0  0.46316  0.49003  0.95536  1.0000
  H   H211      1.0  0.11467  0.42605  0.81867  1.0000
  H   H212      1.0  0.11813  0.00778  0.78272  1.0000
  H   H213      1.0  0.14152  0.46268  0.80387  1.0000
  C   C131      1.0  0.47975  0.08163  0.94889  1.0000
  C   C132      1.0  0.12013  0.00542  0.80771  1.0000
  H   H214      1.0  0.23951  0.48766  0.94179  1.0000
  H   H215      1.0  0.39911  0.48416  0.97313  1.0000
  C   C133      1.0  0.02425  0.02950  0.79646  1.0000
  H   H216      1.0  0.00949  0.02356  0.80846  1.0000
  H   H217      1.0  0.06106  0.01596  0.77195  1.0000
  C   C134      1.0  0.45454  0.99812  0.97994  1.0000
  H   H218      1.0  0.49442  0.08437  0.93705  1.0000
  H   H219      1.0  0.36760  0.47822  0.87716  1.0000
  H   H220      1.0  0.36441  0.43974  0.97886  1.0000
  H   H221      1.0  0.19042  0.48280  0.92134  1.0000
  H   H222      1.0  0.41459  0.45950  0.88412  1.0000
  S   S54       1.0  0.43856  0.49119  0.94020  1.0000
  H   H223      1.0  0.44406  0.49092  0.86825  1.0000
  S   S55       1.0  0.17507  0.49060  0.95526  1.0000
  C   C135      1.0  0.99664  0.08667  0.76154  1.0000
  N   N14       1.0  0.01289  0.99639  0.78745  1.0000
  H   H224      1.0  0.07982  0.08549  0.74179  1.0000
  H   H225      1.0  0.99756  0.78355  0.22744  1.0000
  H   H226      1.0  0.99898  0.94791  0.15587  1.0000
  C   C136      1.0  0.06046  0.90477  0.23815  1.0000
  H   H227      1.0  0.42755  0.88723  0.00240  1.0000
  H   H228      1.0  0.01368  0.84944  0.20608  1.0000
  H   H229      1.0  0.05122  0.92196  0.23068  1.0000
  H   H230      1.0  0.14606  0.96254  0.23231  1.0000
  C   C137      1.0  0.00704  0.96732  0.16519  1.0000
  C   C138      1.0  0.47878  0.86237  0.00405  1.0000
  H   H231      1.0  0.02791  0.96214  0.17053  1.0000
  H   H232      1.0  0.33640  0.70974  0.99504  1.0000
  C   C139      1.0  0.12017  0.94469  0.22908  1.0000
  H   H233      1.0  0.41202  0.51122  0.01362  1.0000
  H   H234      1.0  0.11184  0.96277  0.22164  1.0000
  H   H235      1.0  0.46311  0.85964  0.01563  1.0000
  H   H236      1.0  0.31253  0.66097  0.00117  1.0000
  Fe  Fe26      1.0  0.11396  0.96546  0.18673  1.0000
  C   C140      1.0  0.04393  0.88568  0.18565  1.0000
  H   H237      1.0  0.00932  0.98060  0.19558  1.0000
  S   S56       1.0  0.08075  0.90603  0.19526  1.0000
  C   C141      1.0  0.04421  0.89653  0.16989  1.0000
  H   H238      1.0  0.06201  0.88210  0.23106  1.0000
  H   H239      1.0  0.12345  0.92339  0.22163  1.0000
  C   C142      1.0  0.01400  0.85787  0.19388  1.0000
  H   H240      1.0  0.42757  0.52453  0.99311  1.0000
  C   C143      1.0  0.01483  0.87885  0.16228  1.0000
  C   C144      1.0  0.41570  0.50032  0.00213  1.0000
  H   H241      1.0  0.06740  0.91777  0.16346  1.0000
  H   H242      1.0  0.01534  0.88672  0.15001  1.0000
  H   H243      1.0  0.46703  0.83556  0.99869  1.0000
  N   N15       1.0  0.47962  0.89390  0.99372  1.0000
  H   H244      1.0  0.48098  0.92816  0.01282  1.0000
  H   H245      1.0  0.35153  0.49966  0.00927  1.0000
  S   S57       1.0  0.05229  0.54781  0.99184  1.0000
  Fe  Fe27      1.0  0.00682  0.83436  0.31148  1.0000
  H   H246      1.0  0.48984  0.58352  0.38059  1.0000
  S   S58       1.0  0.20656  0.55710  0.31011  1.0000
  Fe  Fe28      1.0  0.44707  0.61836  0.37334  1.0000
  H   H247      1.0  0.35631  0.85525  0.43723  1.0000
  H   H248      1.0  0.14640  0.49893  0.36492  1.0000
  Fe  Fe29      1.0  0.21812  0.71358  0.35830  1.0000
  S   S59       1.0  0.24307  0.75104  0.33623  1.0000
  S   S60       1.0  0.17432  0.65714  0.35990  1.0000
  Fe  Fe30      1.0  0.26807  0.76566  0.37829  1.0000
  S   S61       1.0  0.29730  0.80808  0.35805  1.0000
  S   S62       1.0  0.28307  0.76619  0.40262  1.0000
  Fe  Fe31      1.0  0.24427  0.79690  0.35123  1.0000
  S   S63       1.0  0.22855  0.84060  0.34088  1.0000
  Fe  Fe32      1.0  0.29329  0.75849  0.34504  1.0000
  S   S64       1.0  0.33750  0.75346  0.33007  1.0000
  S   S65       1.0  0.21512  0.75879  0.37279  1.0000
  S   S66       1.0  0.26827  0.71686  0.36578  1.0000
  Fe  Fe33      1.0  0.08098  0.88183  0.29750  1.0000
  S   S67       1.0  0.11976  0.94073  0.29223  1.0000
  S   S68       1.0  0.07738  0.76144  0.32251  1.0000
  S   S69       1.0  0.08926  0.83448  0.28678  1.0000
  Fe  Fe34      1.0  0.44357  0.63940  0.33961  1.0000
  S   S70       1.0  0.41535  0.64424  0.36234  1.0000
  S   S71       1.0  0.41196  0.61980  0.31988  1.0000
  C   C145      1.0  0.32478  0.50659  0.33548  1.0000
  S   S72       1.0  0.44706  0.74266  0.37264  1.0000
  Fe  Fe35      1.0  0.28071  0.54771  0.44897  1.0000
  H   H249      1.0  0.26811  0.78951  0.47039  1.0000
  S   S73       1.0  0.00776  0.78255  0.30158  1.0000
  Fe  Fe36      1.0  0.45594  0.86277  0.42976  1.0000
  S   S74       1.0  0.43062  0.88314  0.41192  1.0000
  H   H250      1.0  0.12525  0.90867  0.32166  1.0000
  H   H251      1.0  0.39447  0.68273  0.40503  1.0000
  H   H252      1.0  0.27427  0.85169  0.45928  1.0000
  H   H253      1.0  0.30272  0.51568  0.31497  1.0000
  C   C146      1.0  0.32427  0.52657  0.32170  1.0000
  S   S75       1.0  0.42238  0.57835  0.39450  1.0000
  N   N16       1.0  0.17533  0.93375  0.32939  1.0000
  H   H254      1.0  0.31977  0.73979  0.44339  1.0000
  C   C147      1.0  0.41943  0.59766  0.47092  1.0000
  H   H255      1.0  0.25979  0.58478  0.33305  1.0000
  C   C148      1.0  0.36615  0.74288  0.45291  1.0000
  C   C149      1.0  0.09962  0.96834  0.30061  1.0000
  C   C150      1.0  0.32628  0.79689  0.40287  1.0000
  C   C151      1.0  0.33834  0.83321  0.39580  1.0000
  C   C152      1.0  0.37110  0.85934  0.39814  1.0000
  C   C153      1.0  0.39181  0.84910  0.40749  1.0000
  C   C154      1.0  0.38045  0.81231  0.41390  1.0000
  C   C155      1.0  0.34763  0.78626  0.41164  1.0000
  H   H256      1.0  0.32185  0.84161  0.38907  1.0000
  H   H257      1.0  0.37992  0.88777  0.39309  1.0000
  H   H258      1.0  0.39649  0.80414  0.42095  1.0000
  H   H259      1.0  0.33861  0.75792  0.41677  1.0000
  C   C156      1.0  0.41759  0.74802  0.36077  1.0000
  C   C157      1.0  0.39071  0.75781  0.36713  1.0000
  C   C158      1.0  0.36625  0.76013  0.35767  1.0000
  C   C159      1.0  0.36911  0.75337  0.34180  1.0000
  C   C160      1.0  0.39668  0.74488  0.33537  1.0000
  C   C161      1.0  0.42055  0.74164  0.34490  1.0000
  H   H260      1.0  0.38826  0.76276  0.37942  1.0000
  H   H261      1.0  0.34521  0.76710  0.36269  1.0000
  H   H262      1.0  0.39919  0.74005  0.32308  1.0000
  H   H263      1.0  0.44141  0.73446  0.33987  1.0000
  C   C162      1.0  0.18649  0.81883  0.33586  1.0000
  C   C163      1.0  0.17853  0.82960  0.32154  1.0000
  C   C164      1.0  0.14481  0.81248  0.31749  1.0000
  C   C165      1.0  0.11909  0.78440  0.32776  1.0000
  C   C166      1.0  0.12711  0.77354  0.34206  1.0000
  C   C167      1.0  0.16081  0.79066  0.34608  1.0000
  H   H264      1.0  0.19874  0.85041  0.31340  1.0000
  H   H265      1.0  0.13893  0.82044  0.30630  1.0000
  H   H266      1.0  0.10719  0.75212  0.35011  1.0000
  H   H267      1.0  0.16674  0.78246  0.35722  1.0000
  H   H268      1.0  0.11679  0.97419  0.25651  1.0000
  H   H269      1.0  0.38959  0.63488  0.40506  1.0000
  C   C168      1.0  0.35208  0.56051  0.31645  1.0000
  C   C169      1.0  0.37966  0.57519  0.32533  1.0000
  C   C170      1.0  0.38005  0.55512  0.33911  1.0000
  H   H270      1.0  0.47535  0.54739  0.43771  1.0000
  H   H271      1.0  0.37068  0.67493  0.47731  1.0000
  H   H272      1.0  0.35183  0.57575  0.30570  1.0000
  H   H273      1.0  0.40122  0.56610  0.34600  1.0000
  H   H274      1.0  0.41111  0.60731  0.42610  1.0000
  C   C171      1.0  0.19673  0.58430  0.32395  1.0000
  C   C172      1.0  0.21209  0.62310  0.32115  1.0000
  C   C173      1.0  0.20619  0.64546  0.33244  1.0000
  C   C174      1.0  0.18358  0.62913  0.34625  1.0000
  C   C175      1.0  0.16740  0.59030  0.34887  1.0000
  C   C176      1.0  0.17454  0.56787  0.33787  1.0000
  H   H275      1.0  0.22916  0.63588  0.31036  1.0000
  H   H276      1.0  0.21866  0.67530  0.33025  1.0000
  H   H277      1.0  0.14966  0.57752  0.35948  1.0000
  H   H278      1.0  0.16249  0.53789  0.33999  1.0000
  H   H279      1.0  0.36162  0.62287  0.43316  1.0000
  Fe  Fe37      1.0  0.45342  0.80210  0.45323  1.0000
  H   H280      1.0  0.07055  0.92687  0.31967  1.0000
  H   H281      1.0  0.19741  0.89900  0.34013  1.0000
  C   C177      1.0  0.35975  0.68898  0.46976  1.0000
  H   H282      1.0  0.19616  0.90880  0.31146  1.0000
  H   H283      1.0  0.45339  0.64267  0.41968  1.0000
  H   H284      1.0  0.38228  0.77012  0.44716  1.0000
  H   H285      1.0  0.33607  0.63225  0.35409  1.0000
  C   C178      1.0  0.33099  0.72581  0.45078  1.0000
  Fe  Fe38      1.0  0.25294  0.60787  0.45342  1.0000
  N   N17       1.0  0.41300  0.66297  0.42451  1.0000
  C   C179      1.0  0.42896  0.63628  0.42771  1.0000
  C   C180      1.0  0.40675  0.66310  0.40789  1.0000
  C   C181      1.0  0.48866  0.72009  0.47406  1.0000
  C   C182      1.0  0.37967  0.65170  0.43483  1.0000
  H   H286      1.0  0.35175  0.81041  0.44524  1.0000
  N   N18       1.0  0.31439  0.51758  0.39411  1.0000
  H   H287      1.0  0.30825  0.56592  0.40242  1.0000
  H   H288      1.0  0.38377  0.65214  0.44742  1.0000
  H   H289      1.0  0.36636  0.67069  0.43265  1.0000
  H   H290      1.0  0.34854  0.57541  0.39004  1.0000
  H   H291      1.0  0.07245  0.94475  0.26343  1.0000
  H   H292      1.0  0.30041  0.77200  0.46439  1.0000
  H   H293      1.0  0.13685  0.53897  0.46773  1.0000
  C   C183      1.0  0.19404  0.93562  0.31364  1.0000
  H   H294      1.0  0.42496  0.72134  0.42562  1.0000
  H   H295      1.0  0.31458  0.53708  0.37030  1.0000
  H   H296      1.0  0.14126  0.87615  0.32936  1.0000
  H   H297      1.0  0.48003  0.77820  0.48635  1.0000
  N   N19       1.0  0.30868  0.63039  0.33416  1.0000
  C   C184      1.0  0.31753  0.61167  0.34731  1.0000
  Fe  Fe39      1.0  0.06073  0.80107  0.30939  1.0000
  C   C185      1.0  0.31041  0.69014  0.45794  1.0000
  N   N20       1.0  0.12858  0.68155  0.31784  1.0000
  C   C186      1.0  0.11966  0.69642  0.30358  1.0000
  C   C187      1.0  0.10072  0.67457  0.33101  1.0000
  C   C188      1.0  0.16166  0.70896  0.32192  1.0000
  C   C189      1.0  0.13230  0.64630  0.31488  1.0000
  H   H298      1.0  0.09455  0.67678  0.30026  1.0000
  H   H299      1.0  0.14007  0.70184  0.29340  1.0000
  H   H300      1.0  0.11690  0.72318  0.30545  1.0000
  H   H301      1.0  0.10725  0.66461  0.34211  1.0000
  H   H302      1.0  0.09642  0.70028  0.33324  1.0000
  H   H303      1.0  0.07554  0.65333  0.32852  1.0000
  H   H304      1.0  0.18365  0.71381  0.31257  1.0000
  H   H305      1.0  0.16835  0.69944  0.33302  1.0000
  H   H306      1.0  0.16027  0.73634  0.32363  1.0000
  H   H307      1.0  0.13753  0.63365  0.32565  1.0000
  H   H308      1.0  0.15420  0.65063  0.30553  1.0000
  H   H309      1.0  0.10828  0.62541  0.31118  1.0000
  N   N21       1.0  0.20543  0.65775  0.41108  1.0000
  C   C190      1.0  0.17805  0.62013  0.41087  1.0000
  C   C191      1.0  0.23959  0.65766  0.40515  1.0000
  C   C192      1.0  0.20614  0.66905  0.42729  1.0000
  C   C193      1.0  0.19794  0.68426  0.40093  1.0000
  H   H310      1.0  0.15190  0.61924  0.41511  1.0000
  H   H311      1.0  0.18266  0.59931  0.41843  1.0000
  H   H312      1.0  0.17737  0.61083  0.39876  1.0000
  H   H313      1.0  0.26071  0.68593  0.40462  1.0000
  H   H314      1.0  0.24650  0.63881  0.41288  1.0000
  H   H315      1.0  0.23972  0.64804  0.39313  1.0000
  H   H316      1.0  0.22729  0.69696  0.42780  1.0000
  H   H317      1.0  0.21117  0.64929  0.43533  1.0000
  H   H318      1.0  0.18113  0.67026  0.43209  1.0000
  H   H319      1.0  0.21716  0.71316  0.40126  1.0000
  H   H320      1.0  0.17176  0.68397  0.40461  1.0000
  H   H321      1.0  0.19886  0.67749  0.38851  1.0000
  H   H322      1.0  0.29311  0.78165  0.43661  1.0000
  C   C194      1.0  0.34615  0.83514  0.44791  1.0000
  C   C195      1.0  0.07570  0.95403  0.31416  1.0000
  C   C196      1.0  0.38910  0.60446  0.47321  1.0000
  S   S76       1.0  0.28250  0.59505  0.43305  1.0000
  C   C197      1.0  0.15795  0.49539  0.37521  1.0000
  H   H323      1.0  0.18296  0.55415  0.37730  1.0000
  S   S77       1.0  0.26672  0.66888  0.45505  1.0000
  N   N22       1.0  0.09450  0.92731  0.24311  1.0000
  H   H324      1.0  0.36268  0.52440  0.38061  1.0000
  H   H325      1.0  0.31656  0.87226  0.46559  1.0000
  C   C198      1.0  0.35306  0.52049  0.34396  1.0000
  H   H326      1.0  0.22132  0.94795  0.34086  1.0000
  S   S78       1.0  0.43819  0.85056  0.45568  1.0000
  H   H327      1.0  0.29392  0.59437  0.35554  1.0000
  S   S79       1.0  0.20063  0.57245  0.44703  1.0000
  S   S80       1.0  0.22192  0.56221  0.40289  1.0000
  C   C199      1.0  0.36009  0.58398  0.46584  1.0000
  H   H328      1.0  0.33707  0.59000  0.46735  1.0000
  H   H329      1.0  0.00084  0.95091  0.30518  1.0000
  Fe  Fe40      1.0  0.23063  0.55626  0.42787  1.0000
  C   C200      1.0  0.47839  0.55467  0.42520  1.0000
  H   H330      1.0  0.08722  0.88954  0.26316  1.0000
  H   H331      1.0  0.43514  0.63633  0.44000  1.0000
  C   C201      1.0  0.32896  0.55548  0.39935  1.0000
  C   C202      1.0  0.19464  0.92593  0.34154  1.0000
  C   C203      1.0  0.19457  0.52228  0.39519  1.0000
  H   H332      1.0  0.26098  0.79959  0.44227  1.0000
  S   S81       1.0  0.03029  0.80684  0.25504  1.0000
  C   C204      1.0  0.38041  0.72448  0.46248  1.0000
  S   S82       1.0  0.23067  0.50731  0.44207  1.0000
  H   H333      1.0  0.04033  0.89122  0.24844  1.0000
  S   S83       1.0  0.25584  0.56386  0.47023  1.0000
  S   S84       1.0  0.45644  0.62605  0.47899  1.0000
  C   C205      1.0  0.28438  0.60209  0.32543  1.0000
  S   S85       1.0  0.42417  0.74494  0.46527  1.0000
  H   H334      1.0  0.13164  0.91909  0.25655  1.0000
  Fe  Fe41      1.0  0.03617  0.82053  0.27988  1.0000
  C   C206      1.0  0.29218  0.65490  0.34044  1.0000
  H   H335      1.0  0.12506  0.90183  0.34244  1.0000
  S   S86       1.0  0.21345  0.49321  0.34434  1.0000
  H   H336      1.0  0.22084  0.95763  0.31224  1.0000
  Fe  Fe42      1.0  0.46115  0.69761  0.36293  1.0000
  N   N23       1.0  0.30856  0.82471  0.45244  1.0000
  C   C207      1.0  0.39086  0.54804  0.45483  1.0000
  C   C208      1.0  0.48648  0.57517  0.39300  1.0000
  C   C209      1.0  0.45530  0.56937  0.40236  1.0000
  C   C210      1.0  0.09142  0.95674  0.25263  1.0000
  H   H337      1.0  0.27759  0.61510  0.31524  1.0000
  C   C211      1.0  0.08109  0.51331  0.47281  1.0000
  H   H338      1.0  0.29837  0.82658  0.42843  1.0000
  C   C212      1.0  0.32492  0.67152  0.46728  1.0000
  C   C213      1.0  0.36119  0.55609  0.45643  1.0000
  H   H339      1.0  0.33005  0.59303  0.34295  1.0000
  S   S87       1.0  0.02985  0.87056  0.28896  1.0000
  H   H340      1.0  0.44188  0.70141  0.44013  1.0000
  H   H341      1.0  0.42697  0.55375  0.42546  1.0000
  C   C214      1.0  0.17868  0.52659  0.38220  1.0000
  H   H342      1.0  0.33547  0.67020  0.31426  1.0000
  C   C215      1.0  0.34061  0.65292  0.32349  1.0000
  H   H343      1.0  0.38826  0.62592  0.48053  1.0000
  H   H344      1.0  0.26765  0.63886  0.34835  1.0000
  S   S88       1.0  0.32683  0.53234  0.44580  1.0000
  C   C216      1.0  0.42021  0.56922  0.46181  1.0000
  H   H345      1.0  0.28567  0.66997  0.33081  1.0000
  H   H346      1.0  0.15762  0.97602  0.32251  1.0000
  C   C217      1.0  0.28940  0.80744  0.43940  1.0000
  H   H347      1.0  0.44329  0.56335  0.46024  1.0000
  H   H348      1.0  0.29567  0.58274  0.32069  1.0000
  H   H349      1.0  0.18040  0.94185  0.30419  1.0000
  C   C218      1.0  0.14021  0.90377  0.33079  1.0000
  S   S89       1.0  0.05765  0.84998  0.32100  1.0000
  H   H350      1.0  0.03970  0.96354  0.33122  1.0000
  H   H351      1.0  0.18113  0.92398  0.35357  1.0000
  C   C219      1.0  0.43654  0.70067  0.42768  1.0000
  C   C220      1.0  0.29636  0.79791  0.46659  1.0000
  H   H352      1.0  0.27450  0.52659  0.38293  1.0000
  S   S90       1.0  0.46562  0.81094  0.42709  1.0000
  S   S91       1.0  0.47134  0.60816  0.35061  1.0000
  H   H353      1.0  0.35211  0.63513  0.31742  1.0000
  H   H354      1.0  0.30989  0.67648  0.34715  1.0000
  Fe  Fe43      1.0  0.20538  0.52697  0.46209  1.0000
  H   H355      1.0  0.36086  0.67206  0.32998  1.0000
  H   H356      1.0  0.46189  0.71026  0.42001  1.0000
  C   C221      1.0  0.45107  0.55837  0.41834  1.0000
  H   H357      1.0  0.31054  0.80982  0.47663  1.0000
  H   H358      1.0  0.08314  0.97590  0.24580  1.0000
  C   C222      1.0  0.11478  0.51476  0.47306  1.0000
  C   C223      1.0  0.30238  0.85844  0.45584  1.0000
  Fe  Fe44      1.0  0.19972  0.50052  0.32033  1.0000
  H   H359      1.0  0.34235  0.55597  0.40994  1.0000
  H   H360      1.0  0.36152  0.84823  0.45746  1.0000
  H   H361      1.0  0.43144  0.67184  0.39978  1.0000
  H   H362      1.0  0.39118  0.52545  0.44808  1.0000
  H   H363      1.0  0.30910  0.64401  0.47291  1.0000
  H   H364      1.0  0.15809  0.96926  0.34326  1.0000
  H   H365      1.0  0.31137  0.87914  0.44535  1.0000
  H   H366      1.0  0.35385  0.50463  0.35439  1.0000
  H   H367      1.0  0.07737  0.53636  0.46710  1.0000
  C   C224      1.0  0.10610  0.90305  0.25253  1.0000
  C   C225      1.0  0.17226  0.96964  0.33154  1.0000
  H   H368      1.0  0.45345  0.81944  0.37129  1.0000
  H   H369      1.0  0.46070  0.70120  0.47473  1.0000
  C   C226      1.0  0.05825  0.97487  0.32072  1.0000
  C   C227      1.0  0.29648  0.51783  0.38019  1.0000
  S   S92       1.0  0.49089  0.67212  0.37595  1.0000
  S   S93       1.0  0.48714  0.69566  0.33897  1.0000
  H   H370      1.0  0.11767  0.50952  0.43819  1.0000
  H   H371      1.0  0.10848  0.88036  0.24573  1.0000
  C   C228      1.0  0.34284  0.50512  0.39001  1.0000
  H   H372      1.0  0.45071  0.82317  0.39205  1.0000
  H   H373      1.0  0.14868  0.49575  0.42723  1.0000
  H   H374      1.0  0.35671  0.50433  0.40031  1.0000
  H   H375      1.0  0.45073  0.86013  0.37908  1.0000
  C   C229      1.0  0.46224  0.83914  0.38041  1.0000
  H   H376      1.0  0.26762  0.50065  0.41033  1.0000
  Fe  Fe45      1.0  0.49453  0.88258  0.45826  1.0000
  H   H377      1.0  0.49375  0.74340  0.46502  1.0000
  H   H378      1.0  0.46221  0.68221  0.50230  1.0000
  H   H379      1.0  0.17484  0.95821  0.65201  1.0000
  H   H380      1.0  0.08302  0.79861  0.65148  1.0000
  H   H381      1.0  0.08286  0.77306  0.61009  1.0000
  C   C230      1.0  0.15030  0.97290  0.71794  1.0000
  H   H382      1.0  0.12644  0.96760  0.69672  1.0000
  S   S94       1.0  0.17663  0.97876  0.61940  1.0000
  C   C231      1.0  0.10913  0.93193  0.62932  1.0000
  H   H383      1.0  0.02544  0.97926  0.66852  1.0000
  H   H384      1.0  0.13102  0.82865  0.62980  1.0000
  H   H385      1.0  0.03883  0.78444  0.64778  1.0000
  C   C232      1.0  0.14879  0.94540  0.64890  1.0000
  N   N24       1.0  0.07656  0.80880  0.62742  1.0000
  H   H386      1.0  0.00222  0.54376  0.54829  1.0000
  C   C233      1.0  0.04581  0.98471  0.65831  1.0000
  H   H387      1.0  0.05443  0.85331  0.70387  1.0000
  Fe  Fe46      1.0  0.00248  0.84912  0.66543  1.0000
  H   H388      1.0  0.04757  0.75055  0.62549  1.0000
  C   C234      1.0  0.08720  0.90949  0.65664  1.0000
  C   C235      1.0  0.12104  0.92547  0.66051  1.0000
  H   H389      1.0  0.05406  0.84775  0.62179  1.0000
  C   C236      1.0  0.18147  0.98159  0.72432  1.0000
  H   H390      1.0  0.12575  0.92338  0.67260  1.0000
  C   C237      1.0  0.07463  0.77211  0.62289  1.0000
  C   C238      1.0  0.14280  0.94933  0.63337  1.0000
  H   H391      1.0  0.06537  0.83287  0.64829  1.0000
  H   H392      1.0  0.02802  0.91215  0.73064  1.0000
  H   H393      1.0  0.18130  0.97954  0.73692  1.0000
  C   C239      1.0  0.08122  0.91207  0.64100  1.0000
  H   H394      1.0  0.05500  0.90042  0.63802  1.0000
  C   C240      1.0  0.18211  0.98703  0.69170  1.0000
  H   H395      1.0  0.09147  0.97025  0.67345  1.0000
  C   C241      1.0  0.11267  0.83668  0.62364  1.0000
  H   H396      1.0  0.09142  0.76229  0.62940  1.0000
  H   H397      1.0  0.10446  0.93539  0.61731  1.0000
  H   H398      1.0  0.11515  0.86445  0.62726  1.0000
  H   H399      1.0  0.02579  0.79972  0.62135  1.0000
  C   C242      1.0  0.01334  0.54901  0.53564  1.0000
  S   S95       1.0  0.05271  0.88998  0.67182  1.0000
  H   H400      1.0  0.18197  0.98737  0.67918  1.0000
  H   H401      1.0  0.12163  0.84020  0.61080  1.0000
  H   H402      1.0  0.02505  0.81633  0.73708  1.0000
  H   H403      1.0  0.06067  0.82225  0.60577  1.0000
  C   C243      1.0  0.05379  0.87083  0.71368  1.0000
  N   N25       1.0  0.01849  0.85833  0.72240  1.0000
  H   H404      1.0  0.36230  0.98778  0.66624  1.0000
  C   C244      1.0  0.06553  0.80612  0.64449  1.0000
  S   S96       1.0  0.11076  0.96000  0.73009  1.0000
  C   C245      1.0  0.15062  0.97538  0.70164  1.0000
  C   C246      1.0  0.00410  0.53218  0.50922  1.0000
  H   H405      1.0  0.04718  0.95764  0.65583  1.0000
  H   H406      1.0  0.07293  0.86978  0.72149  1.0000
  H   H407      1.0  0.48157  0.76500  0.50645  1.0000
  C   C247      1.0  0.01894  0.88245  0.73522  1.0000
  H   H408      1.0  0.03780  0.54422  0.53468  1.0000
  C   C248      1.0  0.47574  0.75415  0.49485  1.0000
  C   C249      1.0  0.05330  0.82017  0.61870  1.0000
  H   H409      1.0  0.06319  0.90012  0.70845  1.0000
  H   H410      1.0  0.00220  0.88942  0.70612  1.0000
  C   C250      1.0  0.00698  0.81937  0.72907  1.0000
  H   H411      1.0  0.02031  0.57894  0.53206  1.0000
  H   H412      1.0  0.02750  0.52546  0.50740  1.0000
  H   H413      1.0  0.44751  0.73590  0.49600  1.0000
  C   C251      1.0  0.49009  0.70176  0.50106  1.0000
  H   H414      1.0  0.01193  0.56182  0.50488  1.0000
  H   H415      1.0  0.00523  0.80016  0.71970  1.0000
  H   H416      1.0  0.23700  0.55155  0.88671  1.0000
  H   H417      1.0  0.19622  0.95441  0.84021  1.0000
  C   C252      1.0  0.44677  0.71356  0.95114  1.0000
  Fe  Fe47      1.0  0.17858  0.61138  0.97236  1.0000
  S   S97       1.0  0.19008  0.58993  0.94970  1.0000
  H   H418      1.0  0.02487  0.98166  0.76439  1.0000
  Fe  Fe48      1.0  0.14217  0.59536  0.94320  1.0000
  S   S98       1.0  0.13868  0.61973  0.91948  1.0000
  Fe  Fe49      1.0  0.15445  0.53398  0.96096  1.0000
  H   H419      1.0  0.25468  0.74867  0.77944  1.0000
  S   S99       1.0  0.13287  0.62089  0.96515  1.0000
  S   S100      1.0  0.45315  0.87560  0.89621  1.0000
  Fe  Fe50      1.0  0.42980  0.86397  0.92154  1.0000
  C   C253      1.0  0.47715  0.52142  0.96357  1.0000
  Fe  Fe51      1.0  0.35739  0.82688  0.93858  1.0000
  S   S101      1.0  0.37392  0.84255  0.96211  1.0000
  S   S102      1.0  0.30456  0.79211  0.93258  1.0000
  Fe  Fe52      1.0  0.40844  0.89831  0.94968  1.0000
  S   S103      1.0  0.41135  0.94903  0.96202  1.0000
  Fe  Fe53      1.0  0.41800  0.82629  0.95439  1.0000
  H   H420      1.0  0.44746  0.66893  0.91210  1.0000
  S   S104      1.0  0.38723  0.88412  0.92681  1.0000
  S   S105      1.0  0.39845  0.80544  0.93190  1.0000
  S   S106      1.0  0.39024  0.61951  0.94371  1.0000
  Fe  Fe54      1.0  0.27470  0.72125  0.85083  1.0000
  S   S107      1.0  0.23377  0.70853  0.83466  1.0000
  S   S108      1.0  0.27814  0.69097  0.87285  1.0000
  Fe  Fe55      1.0  0.32406  0.79032  0.83113  1.0000
  S   S109      1.0  0.28849  0.78513  0.81283  1.0000
  S   S110      1.0  0.37748  0.83249  0.83277  1.0000
  Fe  Fe56      1.0  0.24633  0.77004  0.83326  1.0000
  S   S111      1.0  0.20191  0.78887  0.83480  1.0000
  Fe  Fe57      1.0  0.27838  0.72446  0.81538  1.0000
  S   S112      1.0  0.27576  0.69533  0.79335  1.0000
  S   S113      1.0  0.28298  0.78107  0.85143  1.0000
  S   S114      1.0  0.31805  0.73110  0.83159  1.0000
  Fe  Fe58      1.0  0.10177  0.92763  0.78872  1.0000
  S   S115      1.0  0.06483  0.92177  0.77117  1.0000
  Fe  Fe59      1.0  0.13510  0.88136  0.77243  1.0000
  S   S116      1.0  0.10112  0.87049  0.75316  1.0000
  S   S117      1.0  0.18018  0.86399  0.77244  1.0000
  H   H421      1.0  0.41975  0.74949  0.94766  1.0000
  Fe  Fe60      1.0  0.05794  0.86219  0.77232  1.0000
  H   H422      1.0  0.17511  0.76879  0.78634  1.0000
  S   S118      1.0  0.14839  0.94291  0.77062  1.0000
  S   S119      1.0  0.09062  0.86673  0.79172  1.0000
  C   C254      1.0  0.43507  0.58965  0.81408  1.0000
  C   C255      1.0  0.40166  0.56458  0.82044  1.0000
  C   C256      1.0  0.39064  0.56310  0.83646  1.0000
  C   C257      1.0  0.41336  0.58604  0.84613  1.0000
  H   H423      1.0  0.36476  0.54406  0.84141  1.0000
  H   H424      1.0  0.40498  0.58480  0.85849  1.0000
  H   H425      1.0  0.47514  0.71508  0.91610  1.0000
  H   H426      1.0  0.17164  0.56652  0.91492  1.0000
  H   H427      1.0  0.19552  0.70204  0.76168  1.0000
  S   S120      1.0  0.41860  0.56686  0.96419  1.0000
  C   C258      1.0  0.19609  0.72033  0.79999  1.0000
  C   C259      1.0  0.45867  0.79307  0.81044  1.0000
  C   C260      1.0  0.46408  0.81170  0.82410  1.0000
  C   C261      1.0  0.43945  0.82459  0.83073  1.0000
  C   C262      1.0  0.40875  0.81752  0.82409  1.0000
  C   C263      1.0  0.40294  0.79802  0.81066  1.0000
  C   C264      1.0  0.42824  0.78651  0.80366  1.0000
  H   H428      1.0  0.46895  0.63645  0.89218  1.0000
  H   H429      1.0  0.44410  0.83981  0.84107  1.0000
  H   H430      1.0  0.37935  0.79272  0.80545  1.0000
  H   H431      1.0  0.42411  0.77231  0.79304  1.0000
  C   C265      1.0  0.25868  0.64669  0.79644  1.0000
  C   C266      1.0  0.24753  0.62567  0.78380  1.0000
  C   C267      1.0  0.23356  0.58675  0.78592  1.0000
  H   H432      1.0  0.31941  0.64399  0.83029  1.0000
  C   C268      1.0  0.25625  0.62875  0.81123  1.0000
  H   H433      1.0  0.24956  0.63946  0.77234  1.0000
  H   H434      1.0  0.22480  0.57063  0.77611  1.0000
  H   H435      1.0  0.26442  0.64492  0.82108  1.0000
  C   C269      1.0  0.19656  0.81147  0.81777  1.0000
  C   C270      1.0  0.16419  0.81263  0.81626  1.0000
  C   C271      1.0  0.15888  0.82898  0.80243  1.0000
  C   C272      1.0  0.18600  0.84433  0.79009  1.0000
  C   C273      1.0  0.21851  0.84373  0.79171  1.0000
  C   C274      1.0  0.22384  0.82760  0.80556  1.0000
  H   H436      1.0  0.14295  0.80014  0.82567  1.0000
  H   H437      1.0  0.13360  0.82886  0.80122  1.0000
  H   H438      1.0  0.23969  0.85595  0.78225  1.0000
  C   C275      1.0  0.36271  0.68744  0.80552  1.0000
  C   C276      1.0  0.38766  0.50694  0.87405  1.0000
  H   H439      1.0  0.00334  0.86090  0.79762  1.0000
  C   C277      1.0  0.21642  0.93305  0.80357  1.0000
  H   H440      1.0  0.21506  0.70835  0.80267  1.0000
  S   S121      1.0  0.45400  0.88317  0.94345  1.0000
  C   C278      1.0  0.35142  0.57765  0.89294  1.0000
  C   C279      1.0  0.40322  0.51165  0.90039  1.0000
  H   H441      1.0  0.21388  0.92097  0.83477  1.0000
  C   C280      1.0  0.17752  0.63965  0.90653  1.0000
  C   C281      1.0  0.17657  0.65043  0.89089  1.0000
  C   C282      1.0  0.20748  0.66678  0.88047  1.0000
  C   C283      1.0  0.23926  0.67179  0.88564  1.0000
  C   C284      1.0  0.24021  0.66114  0.90125  1.0000
  C   C285      1.0  0.20946  0.64550  0.91170  1.0000
  H   H442      1.0  0.15194  0.64616  0.88683  1.0000
  H   H443      1.0  0.20663  0.67499  0.86840  1.0000
  H   H444      1.0  0.26483  0.66539  0.90532  1.0000
  H   H445      1.0  0.21069  0.63853  0.92376  1.0000
  H   H446      1.0  0.29399  0.68517  0.98944  1.0000
  C   C286      1.0  0.01948  0.96628  0.79557  1.0000
  C   C287      1.0  0.23008  0.55624  0.91766  1.0000
  C   C288      1.0  0.21176  0.55176  0.89186  1.0000
  H   H447      1.0  0.00508  0.95833  0.80765  1.0000
  S   S122      1.0  0.22098  0.65614  0.98276  1.0000
  C   C289      1.0  0.24473  0.69408  0.96892  1.0000
  H   H448      1.0  0.37438  0.52631  0.87591  1.0000
  C   C290      1.0  0.28440  0.75879  0.96270  1.0000
  C   C291      1.0  0.28295  0.75444  0.94667  1.0000
  C   C292      1.0  0.26306  0.71987  0.94178  1.0000
  C   C293      1.0  0.24395  0.68985  0.95289  1.0000
  H   H449      1.0  0.39075  0.53153  0.90279  1.0000
  H   H450      1.0  0.29951  0.78564  0.96653  1.0000
  H   H451      1.0  0.26248  0.71620  0.92938  1.0000
  H   H452      1.0  0.22867  0.66348  0.94899  1.0000
  H   H453      1.0  0.14732  0.90838  0.80810  1.0000
  H   H454      1.0  0.43080  0.57436  0.88090  1.0000
  N   N26       1.0  0.18054  0.73851  0.92725  1.0000
  C   C294      1.0  0.17273  0.72751  0.91136  1.0000
  C   C295      1.0  0.17777  0.70568  0.93729  1.0000
  C   C296      1.0  0.15544  0.75318  0.93422  1.0000
  C   C297      1.0  0.21618  0.76751  0.92613  1.0000
  H   H455      1.0  0.19229  0.71799  0.90553  1.0000
  H   H456      1.0  0.17296  0.75109  0.90361  1.0000
  H   H457      1.0  0.14684  0.70405  0.91180  1.0000
  H   H458      1.0  0.18466  0.71295  0.94925  1.0000
  H   H459      1.0  0.15096  0.68361  0.93869  1.0000
  H   H460      1.0  0.19532  0.69302  0.93209  1.0000
  H   H461      1.0  0.16061  0.76143  0.94627  1.0000
  H   H462      1.0  0.12830  0.73190  0.93516  1.0000
  H   H463      1.0  0.15681  0.77809  0.92701  1.0000
  H   H464      1.0  0.22371  0.77549  0.93794  1.0000
  H   H465      1.0  0.21903  0.79317  0.91904  1.0000
  H   H466      1.0  0.23567  0.75774  0.92044  1.0000
  Fe  Fe61      1.0  0.42205  0.53900  0.94217  1.0000
  S   S123      1.0  0.47481  0.63860  0.85234  1.0000
  C   C298      1.0  0.48356  0.70857  0.88524  1.0000
  C   C299      1.0  0.34591  0.58272  0.87738  1.0000
  H   H467      1.0  0.36410  0.60652  0.86981  1.0000
  H   H468      1.0  0.48447  0.67622  0.92233  1.0000
  C   C300      1.0  0.44253  0.55361  0.87902  1.0000
  H   H469      1.0  0.26571  0.73213  0.98626  1.0000
  H   H470      1.0  0.44347  0.91101  0.98315  1.0000
  H   H471      1.0  0.17436  0.75264  0.76712  1.0000
  C   C301      1.0  0.32721  0.54766  0.90285  1.0000
  C   C302      1.0  0.45756  0.61299  0.82375  1.0000
  H   H472      1.0  0.39687  0.50965  0.86126  1.0000
  C   C303      1.0  0.16924  0.53731  0.91489  1.0000
  C   C304      1.0  0.27725  0.51588  0.95711  1.0000
  Fe  Fe62      1.0  0.24642  0.49894  0.81673  1.0000
  S   S124      1.0  0.36893  0.53141  0.93684  1.0000
  N   N27       1.0  0.36745  0.65804  0.81513  1.0000
  C   C305      1.0  0.35460  0.62291  0.80749  1.0000
  H   H473      1.0  0.33487  0.67989  0.80412  1.0000
  H   H474      1.0  0.37740  0.69242  0.79354  1.0000
  H   H475      1.0  0.35689  0.59989  0.81464  1.0000
  H   H476      1.0  0.32672  0.61404  0.80584  1.0000
  H   H477      1.0  0.36961  0.62549  0.79574  1.0000
  H   H478      1.0  0.35673  0.67829  0.83712  1.0000
  S   S125      1.0  0.48329  0.66983  0.95562  1.0000
  N   N28       1.0  0.20223  0.53533  0.90835  1.0000
  S   S126      1.0  0.32432  0.55203  0.97710  1.0000
  H   H479      1.0  0.14290  0.91971  0.82791  1.0000
  S   S127      1.0  0.44953  0.59226  0.92693  1.0000
  H   H480      1.0  0.43772  0.69798  0.94128  1.0000
  N   N29       1.0  0.19526  0.94282  0.81599  1.0000
  C   C306      1.0  0.48778  0.84982  0.87433  1.0000
  H   H481      1.0  0.37958  0.66192  0.96942  1.0000
  C   C307      1.0  0.21617  0.50534  0.96165  1.0000
  H   H482      1.0  0.35584  0.69695  0.95322  1.0000
  H   H483      1.0  0.31331  0.56036  0.85943  1.0000
  N   N30       1.0  0.33458  0.67307  0.97687  1.0000
  C   C308      1.0  0.34338  0.70315  0.96418  1.0000
  C   C309      1.0  0.23174  0.56868  0.80057  1.0000
  N   N31       1.0  0.37053  0.78720  0.87963  1.0000
  C   C310      1.0  0.33736  0.77432  0.89021  1.0000
  C   C311      1.0  0.39714  0.78111  0.88791  1.0000
  C   C312      1.0  0.38209  0.82728  0.87475  1.0000
  C   C313      1.0  0.36557  0.76606  0.86560  1.0000
  H   H484      1.0  0.31672  0.77852  0.88429  1.0000
  H   H485      1.0  0.34025  0.78962  0.90098  1.0000
  H   H486      1.0  0.32764  0.74409  0.89402  1.0000
  H   H487      1.0  0.42218  0.78959  0.88009  1.0000
  H   H488      1.0  0.40258  0.79789  0.89818  1.0000
  H   H489      1.0  0.38879  0.75137  0.89222  1.0000
  H   H490      1.0  0.40753  0.83824  0.86709  1.0000
  H   H491      1.0  0.38537  0.84408  0.88507  1.0000
  H   H492      1.0  0.36315  0.83278  0.86800  1.0000
  H   H493      1.0  0.34578  0.77022  0.85908  1.0000
  H   H494      1.0  0.35656  0.73565  0.86882  1.0000
  H   H495      1.0  0.39004  0.77531  0.85730  1.0000
  H   H496      1.0  0.46473  0.56090  0.88599  1.0000
  C   C314      1.0  0.24380  0.50131  0.95253  1.0000
  H   H497      1.0  0.22362  0.54490  0.93019  1.0000
  C   C315      1.0  0.46923  0.70528  0.96011  1.0000
  H   H498      1.0  0.16077  0.88593  0.82316  1.0000
  H   H499      1.0  0.16105  0.52459  0.92724  1.0000
  C   C316      1.0  0.44379  0.88824  0.99120  1.0000
  H   H500      1.0  0.28520  0.64047  0.96939  1.0000
  H   H501      1.0  0.01109  0.94085  0.78912  1.0000
  H   H502      1.0  0.47657  0.54752  0.95943  1.0000
  Fe  Fe63      1.0  0.31877  0.50432  0.81941  1.0000
  H   H503      1.0  0.21937  0.90699  0.80724  1.0000
  H   H504      1.0  0.33055  0.54431  0.91498  1.0000
  C   C317      1.0  0.26517  0.72859  0.97384  1.0000
  C   C318      1.0  0.21168  0.94718  0.83059  1.0000
  H   H505      1.0  0.29850  0.51308  0.94995  1.0000
  C   C319      1.0  0.31724  0.55659  0.87150  1.0000
  S   S128      1.0  0.38985  0.60724  0.89951  1.0000
  C   C320      1.0  0.28283  0.53339  0.97106  1.0000
  H   H506      1.0  0.36690  0.51506  0.98897  1.0000
  Fe  Fe64      1.0  0.10158  0.56195  0.97520  1.0000
  C   C321      1.0  0.43661  0.74275  0.95474  1.0000
  N   N32       1.0  0.19898  0.72976  0.78293  1.0000
  H   H507      1.0  0.45655  0.68983  0.88363  1.0000
  S   S129      1.0  0.14676  0.55457  0.98446  1.0000
  C   C322      1.0  0.45230  0.97680  0.96706  1.0000
  H   H508      1.0  0.23435  0.58612  0.91730  1.0000
  C   C323      1.0  0.49155  0.51906  0.97733  1.0000
  C   C324      1.0  0.47494  0.68789  0.91270  1.0000
  C   C325      1.0  0.17234  0.74404  0.77982  1.0000
  S   S130      1.0  0.21460  0.51987  0.80278  1.0000
  C   C326      1.0  0.19364  0.69605  0.77460  1.0000
  H   H509      1.0  0.41559  0.69639  0.82189  1.0000
  C   C327      1.0  0.29839  0.52179  0.89705  1.0000
  C   C328      1.0  0.34767  0.65242  0.83094  1.0000
  C   C329      1.0  0.36653  0.66844  0.98010  1.0000
  Fe  Fe65      1.0  0.39620  0.58771  0.92342  1.0000
  C   C330      1.0  0.24323  0.58968  0.81323  1.0000
  H   H510      1.0  0.48807  0.83957  0.91385  1.0000
  H   H511      1.0  0.47833  0.76904  0.98684  1.0000
  C   C331      1.0  0.48092  0.72573  0.97282  1.0000
  H   H512      1.0  0.23697  0.76657  0.76452  1.0000
  H   H513      1.0  0.44361  0.59089  0.80167  1.0000
  H   H514      1.0  0.16773  0.67352  0.77866  1.0000
  C   C332      1.0  0.44782  0.76261  0.96768  1.0000
  H   H515      1.0  0.43069  0.86182  0.98581  1.0000
  H   H516      1.0  0.03402  0.52198  0.96140  1.0000
  H   H517      1.0  0.42045  0.67269  0.80497  1.0000
  C   C333      1.0  0.19276  0.97806  0.81085  1.0000
  C   C334      1.0  0.40476  0.66934  0.81661  1.0000
  H   H518      1.0  0.37202  0.71431  0.81096  1.0000
  H   H519      1.0  0.40913  0.64827  0.82417  1.0000
  H   H520      1.0  0.35056  0.63018  0.83845  1.0000
  C   C335      1.0  0.29360  0.52597  0.88132  1.0000
  H   H521      1.0  0.21357  0.68483  0.77669  1.0000
  H   H522      1.0  0.24122  0.57577  0.82465  1.0000
  Fe  Fe66      1.0  0.36775  0.56393  0.95760  1.0000
  H   H523      1.0  0.14561  0.72277  0.78357  1.0000
  Fe  Fe67      1.0  0.44139  0.61971  0.94841  1.0000
  C   C336      1.0  0.23393  0.75855  0.77733  1.0000
  H   H524      1.0  0.24913  0.82784  0.80680  1.0000
  C   C337      1.0  0.44681  0.61092  0.83983  1.0000
  C   C338      1.0  0.01276  0.53122  0.98392  1.0000
  H   H525      1.0  0.42433  0.51740  0.90798  1.0000
  S   S131      1.0  0.10691  0.53689  0.95249  1.0000
  S   S132      1.0  0.28836  0.53563  0.82976  1.0000
  H   H526      1.0  0.03678  0.88091  0.74363  1.0000
  H   H527      1.0  0.48365  0.73610  0.88801  1.0000
  H   H528      1.0  0.16975  0.69954  0.80476  1.0000
  H   H529      1.0  0.20423  0.92846  0.79250  1.0000
  H   H530      1.0  0.20125  0.74529  0.80666  1.0000
  N   N33       1.0  0.41669  0.51522  0.88356  1.0000
  S   S133      1.0  0.37378  0.53608  0.80811  1.0000
  H   H531      1.0  0.21439  0.58122  0.89093  1.0000
  H   H532      1.0  0.48764  0.81702  0.82934  1.0000
  H   H533      1.0  0.23912  0.78419  0.78349  1.0000
  H   H534      1.0  0.19195  0.53602  0.88433  1.0000
  C   C339      1.0  0.01071  0.51915  0.96882  1.0000
  C   C340      1.0  0.25497  0.53640  0.98036  1.0000
  Fe  Fe68      1.0  0.11010  0.93061  0.75313  1.0000
  H   H535      1.0  0.32073  0.62915  0.96136  1.0000
  S   S134      1.0  0.10301  0.95677  0.81066  1.0000
  H   H536      1.0  0.31980  0.70696  0.96127  1.0000
  S   S135      1.0  0.48971  0.77784  0.80174  1.0000
  H   H537      1.0  0.48119  0.96154  0.94851  1.0000
  C   C341      1.0  0.22187  0.52301  0.97552  1.0000
  H   H538      1.0  0.24294  0.95534  0.80072  1.0000
  C   C342      1.0  0.31878  0.68274  0.99128  1.0000
  C   C343      1.0  0.16007  0.91284  0.81896  1.0000
  C   C344      1.0  0.30960  0.63792  0.97201  1.0000
  H   H539      1.0  0.48347  0.63191  0.81881  1.0000
  S   S136      1.0  0.00435  0.82101  0.77030  1.0000
  H   H540      1.0  0.14782  0.52242  0.90797  1.0000
  H   H541      1.0  0.45325  0.55754  0.86636  1.0000
  C   C345      1.0  0.46969  0.75382  0.97679  1.0000
  H   H542      1.0  0.36168  0.73029  0.96758  1.0000
  H   H543      1.0  0.04758  0.97470  0.79664  1.0000
  S   S137      1.0  0.43356  0.79716  0.97335  1.0000
  H   H544      1.0  0.25521  0.55482  0.91315  1.0000
  H   H545      1.0  0.20061  0.52586  0.98270  1.0000
  H   H546      1.0  0.18002  0.97550  0.79997  1.0000
  C   C346      1.0  0.48265  0.97722  0.95866  1.0000
  H   H547      1.0  0.23832  0.96957  0.82879  1.0000
  H   H548      1.0  0.47719  0.86185  0.86572  1.0000
  C   C347      1.0  0.48015  0.85275  0.89036  1.0000
  H   H549      1.0  0.38570  0.69428  0.98408  1.0000
  H   H550      1.0  0.30205  0.61482  0.98143  1.0000
  S   S138      1.0  0.49192  0.74042  0.84455  1.0000
  C   C348      1.0  0.19779  0.49595  0.90904  1.0000
  H   H551      1.0  0.17685  0.98617  0.81994  1.0000
  H   H552      1.0  0.28021  0.49816  0.90471  1.0000
  H   H553      1.0  0.36074  0.64522  0.98930  1.0000
  H   H554      1.0  0.48910  0.87008  0.97252  1.0000
  C   C349      1.0  0.49389  0.83730  0.90147  1.0000
  H   H555      1.0  0.22212  0.49323  0.90435  1.0000
  H   H556      1.0  0.25898  0.54953  0.99124  1.0000
  H   H557      1.0  0.45524  0.49409  0.88796  1.0000
  S   S139      1.0  0.25742  0.49320  0.87433  1.0000
  H   H558      1.0  0.84765  0.07390  0.14035  1.0000
  C   C350      1.0  0.65163  0.29823  0.01334  1.0000
  C   C351      1.0  0.61058  0.32410  0.00699  1.0000
  S   S140      1.0  0.52972  0.39296  0.99370  1.0000
  H   H559      1.0  0.91209  0.40560  0.01147  1.0000
  H   H560      1.0  0.59137  0.16957  0.05933  1.0000
  C   C352      1.0  0.69756  0.45314  0.01942  1.0000
  H   H561      1.0  0.81016  0.41976  0.04654  1.0000
  H   H562      1.0  0.58178  0.44968  0.08936  1.0000
  S   S141      1.0  0.83950  0.02403  0.19662  1.0000
  H   H563      1.0  0.82432  0.23266  0.18216  1.0000
  C   C353      1.0  0.72914  0.25173  0.00914  1.0000
  C   C354      1.0  0.72921  0.46046  0.01018  1.0000
  H   H564      1.0  0.75413  0.45083  0.05387  1.0000
  S   S142      1.0  0.79660  0.43769  0.12412  1.0000
  Fe  Fe69      1.0  0.68242  0.44836  0.13745  1.0000
  S   S143      1.0  0.63652  0.41140  0.15446  1.0000
  S   S144      1.0  0.70538  0.42352  0.11888  1.0000
  Fe  Fe70      1.0  0.72927  0.22200  0.09653  1.0000
  S   S145      1.0  0.76710  0.23560  0.11417  1.0000
  S   S146      1.0  0.73013  0.24562  0.07231  1.0000
  Fe  Fe71      1.0  0.67290  0.16075  0.11785  1.0000
  S   S147      1.0  0.70449  0.16784  0.13791  1.0000
  S   S148      1.0  0.61805  0.12342  0.11553  1.0000
  Fe  Fe72      1.0  0.72113  0.22907  0.13150  1.0000
  S   S149      1.0  0.72211  0.26839  0.14987  1.0000
  Fe  Fe73      1.0  0.74841  0.17372  0.11931  1.0000
  S   S150      1.0  0.78981  0.15134  0.12124  1.0000
  S   S151      1.0  0.68510  0.22132  0.11343  1.0000
  S   S152      1.0  0.71505  0.16072  0.09981  1.0000
  C   C355      1.0  0.69891  0.22668  0.00401  1.0000
  Fe  Fe74      1.0  0.93470  0.09642  0.18898  1.0000
  Fe  Fe75      1.0  0.80180  0.44838  0.00809  1.0000
  H   H565      1.0  0.78471  0.06328  0.14200  1.0000
  Fe  Fe76      1.0  0.85923  0.08557  0.19001  1.0000
  S   S153      1.0  0.81940  0.11042  0.18864  1.0000
  S   S154      1.0  0.89623  0.10020  0.20806  1.0000
  S   S155      1.0  0.58144  0.17929  0.01979  1.0000
  Fe  Fe77      1.0  0.54882  0.11967  0.02819  1.0000
  H   H566      1.0  0.95163  0.44066  0.03829  1.0000
  H   H567      1.0  0.78063  0.36865  0.07693  1.0000
  H   H568      1.0  0.73592  0.36023  0.07595  1.0000
  H   H569      1.0  0.63113  0.47198  0.17498  1.0000
  S   S156      1.0  0.55956  0.36912  0.02471  1.0000
  H   H570      1.0  0.69737  0.45741  0.03174  1.0000
  H   H571      1.0  0.97604  0.39496  0.99668  1.0000
  H   H572      1.0  0.73768  0.24424  0.01971  1.0000
  H   H573      1.0  0.62050  0.48212  0.04206  1.0000
  Fe  Fe78      1.0  0.75648  0.46180  0.12528  1.0000
  Fe  Fe79      1.0  0.61979  0.15706  0.00970  1.0000
  C   C356      1.0  0.76804  0.28190  0.06332  1.0000
  C   C357      1.0  0.76955  0.29281  0.04750  1.0000
  C   C358      1.0  0.79855  0.32263  0.03986  1.0000
  C   C359      1.0  0.82568  0.34264  0.04815  1.0000
  C   C360      1.0  0.82470  0.33148  0.06397  1.0000
  C   C361      1.0  0.79580  0.30087  0.07159  1.0000
  H   H574      1.0  0.74805  0.27827  0.04116  1.0000
  H   H575      1.0  0.79981  0.33014  0.02754  1.0000
  H   H576      1.0  0.84576  0.34693  0.07042  1.0000
  H   H577      1.0  0.79464  0.29250  0.08386  1.0000
  C   C362      1.0  0.79795  0.14095  0.14009  1.0000
  C   C363      1.0  0.82976  0.13873  0.14192  1.0000
  C   C364      1.0  0.83673  0.12977  0.15683  1.0000
  C   C365      1.0  0.81182  0.12277  0.16993  1.0000
  C   C366      1.0  0.78021  0.12550  0.16813  1.0000
  C   C367      1.0  0.77321  0.13446  0.15322  1.0000
  H   H578      1.0  0.84910  0.14412  0.13179  1.0000
  H   H579      1.0  0.86150  0.12868  0.15819  1.0000
  H   H580      1.0  0.76082  0.11999  0.17826  1.0000
  H   H581      1.0  0.74845  0.13561  0.15187  1.0000
  C   C368      1.0  0.96904  0.39067  0.00969  1.0000
  H   H582      1.0  0.77499  0.00235  0.16681  1.0000
  C   C369      1.0  0.77577  0.39070  0.13118  1.0000
  C   C370      1.0  0.75068  0.37980  0.14444  1.0000
  C   C371      1.0  0.73449  0.34220  0.15022  1.0000
  C   C372      1.0  0.74228  0.31528  0.14237  1.0000
  C   C373      1.0  0.76646  0.32611  0.12878  1.0000
  C   C374      1.0  0.78371  0.36385  0.12337  1.0000
  H   H583      1.0  0.74436  0.40051  0.15045  1.0000
  H   H584      1.0  0.71580  0.33402  0.16072  1.0000
  H   H585      1.0  0.77241  0.30566  0.12253  1.0000
  H   H586      1.0  0.80282  0.37219  0.11301  1.0000
  H   H587      1.0  0.63130  0.27483  0.02111  1.0000
  N   N34       1.0  0.96510  0.42353  0.01599  1.0000
  C   C375      1.0  0.77987  0.03508  0.13819  1.0000
  Fe  Fe80      1.0  0.55805  0.16508  0.99747  1.0000
  H   H588      1.0  0.77742  0.46194  0.07916  1.0000
  C   C376      1.0  0.93729  0.43010  0.00888  1.0000
  H   H589      1.0  0.74413  0.41899  0.08782  1.0000
  C   C377      1.0  0.54356  0.34938  0.12890  1.0000
  C   C378      1.0  0.57197  0.37988  0.12117  1.0000
  C   C379      1.0  0.60070  0.39870  0.12893  1.0000
  C   C380      1.0  0.60070  0.38775  0.14463  1.0000
  C   C381      1.0  0.57227  0.35721  0.15241  1.0000
  C   C382      1.0  0.54387  0.33774  0.14449  1.0000
  H   H590      1.0  0.57182  0.38883  0.10910  1.0000
  H   H591      1.0  0.62261  0.42192  0.12278  1.0000
  H   H592      1.0  0.57220  0.34861  0.16455  1.0000
  H   H593      1.0  0.93110  0.39173  0.03654  1.0000
  C   C383      1.0  0.54314  0.16326  0.14340  1.0000
  C   C384      1.0  0.57374  0.16570  0.14919  1.0000
  C   C385      1.0  0.59726  0.15441  0.14040  1.0000
  C   C386      1.0  0.58949  0.13922  0.12613  1.0000
  C   C387      1.0  0.55889  0.13678  0.12032  1.0000
  C   C388      1.0  0.53598  0.14945  0.12882  1.0000
  H   H594      1.0  0.57932  0.17637  0.16046  1.0000
  H   H595      1.0  0.62088  0.15631  0.14491  1.0000
  H   H596      1.0  0.55293  0.12519  0.10924  1.0000
  H   H597      1.0  0.80886  0.04816  0.16520  1.0000
  H   H598      1.0  0.78886  0.42774  0.08901  1.0000
  S   S157      1.0  0.70158  0.46127  0.07808  1.0000
  C   C389      1.0  0.50247  0.12830  0.07884  1.0000
  S   S158      1.0  0.67414  0.18482  0.01548  1.0000
  H   H599      1.0  0.59863  0.33318  0.99751  1.0000
  S   S159      1.0  0.50142  0.22861  0.11676  1.0000
  H   H600      1.0  0.52185  0.31437  0.15055  1.0000
  S   S160      1.0  0.52082  0.10734  0.00679  1.0000
  N   N35       1.0  0.63686  0.31055  0.00041  1.0000
  C   C390      1.0  0.66689  0.43333  0.99684  1.0000
  Fe  Fe81      1.0  0.56404  0.09120  0.99713  1.0000
  C   C391      1.0  0.51377  0.28487  0.99568  1.0000
  C   C392      1.0  0.76265  0.37422  0.06956  1.0000
  C   C393      1.0  0.80182  0.01978  0.16116  1.0000
  N   N36       1.0  0.80459  0.02062  0.14385  1.0000
  S   S161      1.0  0.53031  0.10360  0.05388  1.0000
  H   H601      1.0  0.76144  0.21466  0.15328  1.0000
  H   H602      1.0  0.67880  0.36458  0.99701  1.0000
  H   H603      1.0  0.66602  0.41932  0.05414  1.0000
  C   C394      1.0  0.61402  0.41718  0.05807  1.0000
  S   S162      1.0  0.92148  0.03600  0.19462  1.0000
  N   N37       1.0  0.77238  0.41459  0.06625  1.0000
  H   H604      1.0  0.74917  0.40907  0.04478  1.0000
  C   C395      1.0  0.52595  0.22959  0.99324  1.0000
  C   C396      1.0  0.74804  0.42062  0.05633  1.0000
  C   C397      1.0  0.63381  0.45165  0.08544  1.0000
  H   H605      1.0  0.62231  0.34854  0.01379  1.0000
  C   C398      1.0  0.65784  0.44413  0.07527  1.0000
  H   H606      1.0  0.66400  0.32131  0.02072  1.0000
  C   C399      1.0  0.66629  0.43934  0.01280  1.0000
  H   H607      1.0  0.85971  0.03490  0.14104  1.0000
  H   H608      1.0  0.58902  0.30203  0.01483  1.0000
  H   H609      1.0  0.98980  0.38481  0.01480  1.0000
  H   H610      1.0  0.83867  0.30436  0.14933  1.0000
  Fe  Fe82      1.0  0.88071  0.03889  0.21258  1.0000
  H   H611      1.0  0.82718  0.42768  0.06492  1.0000
  Fe  Fe83      1.0  0.83933  0.40113  0.01794  1.0000
  S   S163      1.0  0.57466  0.45675  0.01627  1.0000
  N   N38       1.0  0.81002  0.24905  0.16065  1.0000
  C   C400      1.0  0.82980  0.23220  0.15073  1.0000
  H   H612      1.0  0.77111  0.19632  0.17083  1.0000
  S   S164      1.0  0.85744  0.46236  0.01158  1.0000
  H   H613      1.0  0.79630  0.29647  0.15919  1.0000
  H   H614      1.0  0.82998  0.20681  0.15697  1.0000
  H   H615      1.0  0.85731  0.25185  0.14738  1.0000
  H   H616      1.0  0.81829  0.22377  0.13966  1.0000
  Fe  Fe84      1.0  0.88204  0.02663  0.17804  1.0000
  H   H617      1.0  0.67193  0.28837  0.00874  1.0000
  C   C401      1.0  0.77072  0.43154  0.08121  1.0000
  H   H618      1.0  0.60669  0.40444  0.04737  1.0000
  C   C402      1.0  0.95574  0.41676  0.03323  1.0000
  H   H619      1.0  0.84349  0.04641  0.12391  1.0000
  C   C403      1.0  0.80808  0.43194  0.05787  1.0000
  H   H620      1.0  0.76345  0.36052  0.05852  1.0000
  S   S165      1.0  0.73339  0.48252  0.14564  1.0000
  C   C404      1.0  0.64764  0.42585  0.06185  1.0000
  S   S166      1.0  0.58866  0.09816  0.01932  1.0000
  H   H621      1.0  0.80033  0.27738  0.14093  1.0000
  H   H622      1.0  0.77120  0.30589  0.00486  1.0000
  N   N39       1.0  0.61766  0.28246  0.13400  1.0000
  C   C405      1.0  0.64613  0.27654  0.14080  1.0000
  C   C406      1.0  0.58757  0.27307  0.14628  1.0000
  C   C407      1.0  0.60728  0.25835  0.12105  1.0000
  C   C408      1.0  0.62966  0.32190  0.12791  1.0000
  H   H623      1.0  0.66952  0.28398  0.13194  1.0000
  H   H624      1.0  0.63830  0.24693  0.14528  1.0000
  H   H625      1.0  0.65435  0.29386  0.15077  1.0000
  H   H626      1.0  0.56504  0.27567  0.14142  1.0000
  H   H627      1.0  0.57868  0.24396  0.15158  1.0000
  H   H628      1.0  0.59404  0.29171  0.15595  1.0000
  H   H629      1.0  0.58575  0.26203  0.11568  1.0000
  H   H630      1.0  0.59801  0.22840  0.12528  1.0000
  H   H631      1.0  0.62941  0.26451  0.11162  1.0000
  H   H632      1.0  0.60864  0.32749  0.12290  1.0000
  H   H633      1.0  0.65221  0.33001  0.11854  1.0000
  H   H634      1.0  0.63804  0.34087  0.13738  1.0000
  N   N40       1.0  0.63379  0.15700  0.06581  1.0000
  C   C409      1.0  0.63953  0.18156  0.07875  1.0000
  C   C410      1.0  0.61141  0.11840  0.07214  1.0000
  C   C411      1.0  0.66755  0.15855  0.05829  1.0000
  C   C412      1.0  0.61662  0.16958  0.05404  1.0000
  H   H635      1.0  0.65514  0.21113  0.07432  1.0000
  H   H636      1.0  0.65390  0.17378  0.08743  1.0000
  H   H637      1.0  0.61450  0.17959  0.08520  1.0000
  H   H638      1.0  0.60633  0.09907  0.06268  1.0000
  H   H639      1.0  0.62341  0.10811  0.08121  1.0000
  H   H640      1.0  0.58562  0.11634  0.07778  1.0000
  H   H641      1.0  0.66418  0.14060  0.04835  1.0000
  H   H642      1.0  0.68146  0.14945  0.06682  1.0000
  H   H643      1.0  0.68499  0.18736  0.05337  1.0000
  H   H644      1.0  0.61114  0.15085  0.04440  1.0000
  H   H645      1.0  0.63331  0.19809  0.04858  1.0000
  H   H646      1.0  0.50508  0.25931  0.07535  1.0000
  C   C413      1.0  0.84040  0.04502  0.13697  1.0000
  H   H647      1.0  0.85285  0.27809  0.17323  1.0000
  H   H648      1.0  0.75743  0.23447  0.17136  1.0000
  S   S167      1.0  0.85894  0.38336  0.03889  1.0000
  S   S168      1.0  0.50481  0.48228  0.00157  1.0000
  C   C414      1.0  0.60006  0.44269  0.08175  1.0000
  C   C415      1.0  0.77343  0.22241  0.16423  1.0000
  H   H649      1.0  0.51342  0.11354  0.08607  1.0000
  C   C416      1.0  0.82519  0.25809  0.17548  1.0000
  C   C417      1.0  0.65763  0.48741  0.17823  1.0000
  H   H650      1.0  0.51452  0.29867  0.05039  1.0000
  S   S169      1.0  0.76799  0.47582  0.01868  1.0000
  S   S170      1.0  0.89938  0.08727  0.17025  1.0000
  C   C418      1.0  0.81153  0.28337  0.15218  1.0000
  H   H651      1.0  0.94445  0.36533  0.01237  1.0000
  H   H652      1.0  0.72075  0.40734  0.06215  1.0000
  H   H653      1.0  0.97635  0.41230  0.03906  1.0000
  H   H654      1.0  0.81948  0.00806  0.16577  1.0000
  H   H655      1.0  0.81078  0.27079  0.18323  1.0000
  H   H656      1.0  0.64180  0.43309  0.02003  1.0000
  H   H657      1.0  0.53529  0.33961  0.06050  1.0000
  H   H658      1.0  0.78201  0.03739  0.12512  1.0000
  Fe  Fe85      1.0  0.54809  0.41351  0.03648  1.0000
  S   S171      1.0  0.55074  0.42186  0.06199  1.0000
  C   C419      1.0  0.59051  0.42642  0.06785  1.0000
  S   S172      1.0  0.78298  0.38810  0.01626  1.0000
  H   H659      1.0  0.52516  0.30046  0.08548  1.0000
  Fe  Fe86      1.0  0.52214  0.43668  0.00797  1.0000
  Fe  Fe87      1.0  0.58045  0.41023  0.00362  1.0000
  S   S173      1.0  0.51438  0.17793  0.15453  1.0000
  H   H660      1.0  0.94354  0.43578  0.99587  1.0000
  H   H661      1.0  0.81616  0.46241  0.05513  1.0000
  H   H662      1.0  0.93314  0.45431  0.01356  1.0000
  Fe  Fe88      1.0  0.70987  0.47215  0.10301  1.0000
  S   S174      1.0  0.85008  0.38699  0.99350  1.0000
  H   H663      1.0  0.59929  0.25542  0.99858  1.0000
  C   C420      1.0  0.74814  0.28646  0.00071  1.0000
  Fe  Fe89      1.0  0.50812  0.35543  0.01613  1.0000
  S   S175      1.0  0.50794  0.32664  0.11887  1.0000
  H   H664      1.0  0.67499  0.47594  0.17176  1.0000
  C   C421      1.0  0.96937  0.10916  0.23009  1.0000
  S   S176      1.0  0.88175  0.01585  0.23664  1.0000
  H   H665      1.0  0.64150  0.46573  0.09581  1.0000
  H   H666      1.0  0.95001  0.08430  0.22560  1.0000
  H   H667      1.0  0.51240  0.14759  0.12429  1.0000
  H   H668      1.0  0.75252  0.01684  0.14284  1.0000
  H   H669      1.0  0.96896  0.13422  0.22367  1.0000
  H   H670      1.0  0.96235  0.00166  0.16485  1.0000
  H   H671      1.0  0.65683  0.48049  0.19099  1.0000
  C   C422      1.0  0.72964  0.45458  0.99424  1.0000
  C   C423      1.0  0.50726  0.21489  0.00808  1.0000
  H   H672      1.0  0.98521  0.09231  0.16203  1.0000
  C   C424      1.0  0.50985  0.31963  0.05761  1.0000
  C   C425      1.0  0.50030  0.28140  0.08171  1.0000
  H   H673      1.0  0.49933  0.33540  0.05009  1.0000
  S   S177      1.0  0.99066  0.13313  0.18931  1.0000
  C   C426      1.0  0.50724  0.12830  0.06245  1.0000
  H   H674      1.0  0.50481  0.18793  0.01294  1.0000
  H   H675      1.0  0.50423  0.35085  0.08443  1.0000
  H   H676      1.0  0.49667  0.14738  0.04047  1.0000
  Fe  Fe90      1.0  0.96220  0.43040  0.48756  1.0000
  H   H677      1.0  0.87560  0.31054  0.47169  1.0000
  H   H678      1.0  0.80672  0.11330  0.43018  1.0000
  N   N41       1.0  0.56419  0.47490  0.44986  1.0000
  H   H679      1.0  0.98765  0.07363  0.25283  1.0000
  S   S178      1.0  0.66409  0.42206  0.48330  1.0000
  H   H680      1.0  0.53869  0.44757  0.47260  1.0000
  S   S179      1.0  0.84298  0.40224  0.47108  1.0000
  S   S180      1.0  0.92805  0.38728  0.47328  1.0000
  H   H681      1.0  0.64742  0.19417  0.47979  1.0000
  C   C427      1.0  0.73928  0.13040  0.44794  1.0000
  S   S181      1.0  0.66107  0.32304  0.47825  1.0000
  Fe  Fe91      1.0  0.72127  0.16573  0.48622  1.0000
  C   C428      1.0  0.75182  0.31867  0.48079  1.0000
  H   H682      1.0  0.77862  0.33311  0.47445  1.0000
  H   H683      1.0  0.98070  0.00218  0.30406  1.0000
  H   H684      1.0  0.81974  0.28065  0.46116  1.0000
  H   H685      1.0  0.90849  0.00976  0.34017  1.0000
  H   H686      1.0  0.74710  0.15937  0.44260  1.0000
  C   C429      1.0  0.55638  0.47393  0.43346  1.0000
  C   C430      1.0  0.98842  0.14211  0.25278  1.0000
  H   H687      1.0  0.60035  0.46477  0.46340  1.0000
  H   H688      1.0  0.81906  0.13834  0.45600  1.0000
  C   C431      1.0  0.53340  0.44847  0.46022  1.0000
  H   H689      1.0  0.61768  0.48358  0.44347  1.0000
  N   N42       1.0  0.55591  0.07978  0.47709  1.0000
  H   H690      1.0  0.66888  0.25865  0.46789  1.0000
  H   H691      1.0  0.59786  0.13379  0.47496  1.0000
  C   C432      1.0  0.51838  0.06349  0.47566  1.0000
  H   H692      1.0  0.73920  0.29199  0.47547  1.0000
  C   C433      1.0  0.78404  0.12130  0.43097  1.0000
  H   H693      1.0  0.72770  0.12947  0.46021  1.0000
  C   C434      1.0  0.92092  0.05113  0.32070  1.0000
  S   S182      1.0  0.93730  0.10330  0.29576  1.0000
  H   H694      1.0  0.74177  0.43392  0.47674  1.0000
  H   H695      1.0  0.56362  0.03374  0.46704  1.0000
  H   H696      1.0  0.51072  0.45628  0.46004  1.0000
  H   H697      1.0  0.71833  0.11132  0.44171  1.0000
  H   H698      1.0  0.98325  0.14290  0.26571  1.0000
  C   C435      1.0  0.76691  0.43930  0.48044  1.0000
  C   C436      1.0  0.88301  0.03459  0.30045  1.0000
  Fe  Fe92      1.0  0.67370  0.08431  0.48794  1.0000
  H   H699      1.0  0.77922  0.07180  0.45473  1.0000
  N   N43       1.0  0.76920  0.11956  0.44749  1.0000
  H   H700      1.0  0.50364  0.07424  0.48422  1.0000
  H   H701      1.0  0.76451  0.10214  0.42413  1.0000
  H   H702      1.0  0.57233  0.07286  0.45327  1.0000
  H   H703      1.0  0.92624  0.13607  0.24531  1.0000
  C   C437      1.0  0.91183  0.06030  0.30640  1.0000
  H   H704      1.0  0.90629  0.08629  0.24715  1.0000
  Fe  Fe93      1.0  0.99326  0.11860  0.29887  1.0000
  C   C438      1.0  0.56957  0.12072  0.47404  1.0000
  H   H705      1.0  0.98925  0.16843  0.24700  1.0000
  C   C439      1.0  0.65223  0.25063  0.47903  1.0000
  H   H706      1.0  0.87579  0.04163  0.28941  1.0000
  H   H707      1.0  0.50733  0.03257  0.47794  1.0000
  H   H708      1.0  0.53380  0.48151  0.43226  1.0000
  H   H709      1.0  0.51336  0.07012  0.46367  1.0000
  C   C440      1.0  0.90138  0.01651  0.32905  1.0000
  S   S183      1.0  0.66944  0.13590  0.47820  1.0000
  C   C441      1.0  0.80166  0.23151  0.47737  1.0000
  H   H710      1.0  0.80491  0.17477  0.45101  1.0000
  C   C442      1.0  0.78730  0.42141  0.47378  1.0000
  H   H711      1.0  0.78567  0.14490  0.46863  1.0000
  S   S184      1.0  0.66379  0.03999  0.47109  1.0000
  H   H712      1.0  0.94268  0.07096  0.32551  1.0000
  C   C443      1.0  0.82576  0.26635  0.47074  1.0000
  C   C444      1.0  0.85737  0.28336  0.47675  1.0000
  H   H713      1.0  0.60258  0.07472  0.46685  1.0000
  S   S185      1.0  0.76172  0.21165  0.47000  1.0000
  C   C445      1.0  0.79593  0.14542  0.45612  1.0000
  C   C446      1.0  0.86384  0.99946  0.30867  1.0000
  H   H714      1.0  0.79305  0.14993  0.42506  1.0000
  H   H715      1.0  0.73681  0.06099  0.44881  1.0000
  C   C447      1.0  0.75744  0.08114  0.45488  1.0000
  H   H716      1.0  0.74599  0.07872  0.46734  1.0000
  H   H717      1.0  0.77780  0.40234  0.46494  1.0000
  C   C448      1.0  0.59799  0.00175  0.48679  1.0000
  C   C449      1.0  0.81954  0.42757  0.47872  1.0000
  C   C450      1.0  0.92721  0.11064  0.25109  1.0000
  C   C451      1.0  0.80946  0.21334  0.48987  1.0000
  N   N44       1.0  0.96166  0.10922  0.24727  1.0000
  C   C452      1.0  0.57443  0.06471  0.46555  1.0000
  H   H718      1.0  0.95514  0.07369  0.26812  1.0000
  H   H719      1.0  0.56570  0.12925  0.46210  1.0000
  C   C453      1.0  0.96175  0.07504  0.25518  1.0000
  C   C454      1.0  0.59393  0.46427  0.45110  1.0000
  H   H720      1.0  0.52563  0.41960  0.45669  1.0000
  H   H721      1.0  0.92053  0.11046  0.26399  1.0000
  H   H722      1.0  0.73720  0.33625  0.47837  1.0000
  H   H723      1.0  0.55670  0.13312  0.48275  1.0000
  C   C455      1.0  0.86557  0.26506  0.48905  1.0000
  H   H724      1.0  0.55005  0.44579  0.42929  1.0000
  Fe  Fe94      1.0  0.88514  0.40147  0.48481  1.0000
  C   C456      1.0  0.64345  0.27706  0.48673  1.0000
  C   C457      1.0  0.64015  0.21406  0.48582  1.0000
  C   C458      1.0  0.62117  0.00564  0.47331  1.0000
  H   H725      1.0  0.94225  0.04966  0.25112  1.0000
  C   C459      1.0  0.83172  0.45238  0.49013  1.0000
  H   H726      1.0  0.58816  0.43555  0.44771  1.0000
  C   C460      1.0  0.70415  0.40274  0.61357  1.0000
  Fe  Fe95      1.0  0.94659  0.04768  0.65469  1.0000
  S   S186      1.0  0.89664  0.00430  0.64916  1.0000
  Fe  Fe96      1.0  0.90970  0.40320  0.51683  1.0000
  S   S187      1.0  0.90067  0.40807  0.54257  1.0000
  H   H727      1.0  0.60925  0.14910  0.58052  1.0000
  Fe  Fe97      1.0  0.57698  0.20402  0.60481  1.0000
  C   C461      1.0  0.76751  0.46467  0.56299  1.0000
  H   H728      1.0  0.69569  0.07694  0.64839  1.0000
  C   C462      1.0  0.88777  0.44459  0.54615  1.0000
  S   S188      1.0  0.81977  0.47334  0.59333  1.0000
  Fe  Fe98      1.0  0.77747  0.48538  0.60640  1.0000
  C   C463      1.0  0.96822  0.19212  0.63720  1.0000
  C   C464      1.0  0.71220  0.46784  0.56084  1.0000
  C   C465      1.0  0.97557  0.15714  0.70583  1.0000
  S   S189      1.0  0.95893  0.17317  0.66897  1.0000
  H   H729      1.0  0.84773  0.21570  0.50514  1.0000
  S   S190      1.0  0.71689  0.11037  0.54043  1.0000
  H   H730      1.0  0.71638  0.48815  0.56990  1.0000
  H   H731      1.0  0.71522  0.17992  0.65060  1.0000
  S   S191      1.0  0.64947  0.29036  0.64255  1.0000
  S   S192      1.0  0.62426  0.20863  0.61585  1.0000
  C   C466      1.0  0.65281  0.09157  0.64427  1.0000
  H   H732      1.0  0.90468  0.45035  0.56911  1.0000
  Fe  Fe99      1.0  0.79140  0.18328  0.61783  1.0000
  S   S193      1.0  0.77472  0.22920  0.61178  1.0000
  S   S194      1.0  0.75423  0.12569  0.62714  1.0000
  Fe  Fe100     1.0  0.86788  0.23334  0.61069  1.0000
  S   S195      1.0  0.85785  0.28385  0.60394  1.0000
  S   S196      1.0  0.92117  0.23289  0.60721  1.0000
  Fe  Fe101     1.0  0.81722  0.26373  0.62504  1.0000
  S   S197      1.0  0.80119  0.29899  0.64124  1.0000
  Fe  Fe102     1.0  0.81631  0.24472  0.59138  1.0000
  S   S198      1.0  0.80586  0.26024  0.56763  1.0000
  S   S199      1.0  0.83057  0.21636  0.63298  1.0000
  S   S200      1.0  0.82983  0.19572  0.59618  1.0000
  S   S201      1.0  0.95494  0.38965  0.50816  1.0000
  C   C467      1.0  0.66358  0.20224  0.65874  1.0000
  S   S202      1.0  0.65616  0.44426  0.51974  1.0000
  S   S203      1.0  0.94509  0.07213  0.67764  1.0000
  H   H733      1.0  0.70133  0.31161  0.50392  1.0000
  H   H734      1.0  0.65271  0.16013  0.58501  1.0000
  C   C468      1.0  0.64754  0.13155  0.55731  1.0000
  C   C469      1.0  0.88345  0.49040  0.56337  1.0000
  Fe  Fe103     1.0  0.70070  0.11953  0.51721  1.0000
  C   C470      1.0  0.81181  0.47132  0.49642  1.0000
  C   C471      1.0  0.52032  0.26583  0.58542  1.0000
  C   C472      1.0  0.93455  0.22065  0.62453  1.0000
  H   H735      1.0  0.79758  0.36209  0.49902  1.0000
  H   H736      1.0  0.72583  0.41480  0.54595  1.0000
  C   C473      1.0  0.95175  0.19399  0.65193  1.0000
  C   C474      1.0  0.92772  0.21062  0.65299  1.0000
  C   C475      1.0  0.91890  0.22364  0.63929  1.0000
  H   H737      1.0  0.94385  0.10519  0.73063  1.0000
  C   C476      1.0  0.58330  0.47843  0.49790  1.0000
  H   H738      1.0  0.91522  0.21255  0.66437  1.0000
  H   H739      1.0  0.90019  0.23620  0.64018  1.0000
  H   H740      1.0  0.85327  0.23790  0.54688  1.0000
  S   S204      1.0  0.72391  0.44607  0.60245  1.0000
  C   C477      1.0  0.89305  0.46070  0.56038  1.0000
  S   S205      1.0  0.65105  0.37362  0.55267  1.0000
  C   C478      1.0  0.71035  0.25876  0.66367  1.0000
  C   C479      1.0  0.86205  0.42238  0.62651  1.0000
  C   C480      1.0  0.82699  0.40917  0.63274  1.0000
  C   C481      1.0  0.80859  0.37129  0.63768  1.0000
  C   C482      1.0  0.82509  0.34655  0.63609  1.0000
  C   C483      1.0  0.86012  0.35973  0.62987  1.0000
  C   C484      1.0  0.87869  0.39772  0.62523  1.0000
  H   H741      1.0  0.81414  0.42821  0.63385  1.0000
  H   H742      1.0  0.78147  0.36114  0.64250  1.0000
  H   H743      1.0  0.87305  0.34075  0.62881  1.0000
  H   H744      1.0  0.90586  0.40798  0.62049  1.0000
  C   C485      1.0  0.88020  0.24487  0.54119  1.0000
  C   C486      1.0  0.66480  0.14000  0.62344  1.0000
  C   C487      1.0  0.69924  0.14293  0.62052  1.0000
  C   C488      1.0  0.71063  0.12062  0.62968  1.0000
  H   H745      1.0  0.65611  0.15701  0.61628  1.0000
  H   H746      1.0  0.71674  0.16187  0.61099  1.0000
  C   C489      1.0  0.67073  0.33299  0.63097  1.0000
  C   C490      1.0  0.70178  0.35931  0.63507  1.0000
  C   C491      1.0  0.71865  0.39406  0.62631  1.0000
  C   C492      1.0  0.65679  0.34134  0.61798  1.0000
  H   H747      1.0  0.71261  0.35299  0.64515  1.0000
  H   H748      1.0  0.74242  0.41436  0.62960  1.0000
  H   H749      1.0  0.63276  0.32134  0.61482  1.0000
  C   C493      1.0  0.74335  0.15187  0.54753  1.0000
  C   C494      1.0  0.75974  0.18478  0.53759  1.0000
  C   C495      1.0  0.77869  0.21830  0.54377  1.0000
  C   C496      1.0  0.78164  0.21874  0.55985  1.0000
  C   C497      1.0  0.76571  0.18575  0.56971  1.0000
  C   C498      1.0  0.74671  0.15235  0.56355  1.0000
  H   H750      1.0  0.75833  0.18431  0.52512  1.0000
  H   H751      1.0  0.79154  0.24364  0.53605  1.0000
  H   H752      1.0  0.76747  0.18586  0.58216  1.0000
  H   H753      1.0  0.73415  0.12696  0.57128  1.0000
  C   C499      1.0  0.63127  0.32644  0.55925  1.0000
  C   C500      1.0  0.63371  0.31547  0.57461  1.0000
  C   C501      1.0  0.61693  0.27817  0.58048  1.0000
  H   H754      1.0  0.64833  0.33596  0.58202  1.0000
  H   H755      1.0  0.61886  0.27010  0.59241  1.0000
  S   S206      1.0  0.75289  0.48551  0.50040  1.0000
  H   H756      1.0  0.89215  0.07287  0.62643  1.0000
  C   C502      1.0  0.64166  0.11465  0.63549  1.0000
  H   H757      1.0  0.73439  0.25852  0.63385  1.0000
  S   S207      1.0  0.59907  0.11189  0.64027  1.0000
  C   C503      1.0  0.68716  0.09451  0.64137  1.0000
  N   N45       1.0  0.90472  0.28034  0.54601  1.0000
  H   H758      1.0  0.68644  0.22532  0.55841  1.0000
  H   H759      1.0  0.69051  0.25368  0.63446  1.0000
  S   S208      1.0  0.57401  0.19483  0.64962  1.0000
  H   H760      1.0  0.58086  0.24189  0.54809  1.0000
  H   H761      1.0  0.64702  0.21789  0.65686  1.0000
  Fe  Fe104     1.0  0.53129  0.19202  0.63548  1.0000
  N   N46       1.0  0.98920  0.15314  0.72067  1.0000
  S   S209      1.0  0.69913  0.17423  0.50980  1.0000
  N   N47       1.0  0.79165  0.35855  0.58824  1.0000
  C   C504      1.0  0.76512  0.33140  0.57998  1.0000
  C   C505      1.0  0.77446  0.37408  0.60015  1.0000
  C   C506      1.0  0.81634  0.38891  0.57684  1.0000
  C   C507      1.0  0.81086  0.33980  0.59605  1.0000
  H   H762      1.0  0.77727  0.31929  0.57084  1.0000
  H   H763      1.0  0.74984  0.34458  0.57412  1.0000
  H   H764      1.0  0.74651  0.30791  0.58829  1.0000
  H   H765      1.0  0.79371  0.39472  0.60658  1.0000
  H   H766      1.0  0.75963  0.38851  0.59474  1.0000
  H   H767      1.0  0.75596  0.35203  0.60909  1.0000
  H   H768      1.0  0.83693  0.40951  0.58277  1.0000
  H   H769      1.0  0.80312  0.40427  0.57081  1.0000
  H   H770      1.0  0.82978  0.37816  0.56766  1.0000
  H   H771      1.0  0.83199  0.35992  0.60185  1.0000
  H   H772      1.0  0.82313  0.32667  0.58745  1.0000
  H   H773      1.0  0.79357  0.31776  0.60528  1.0000
  H   H774      1.0  0.87964  0.24629  0.52825  1.0000
  N   N48       1.0  0.85933  0.10149  0.63352  1.0000
  C   C508      1.0  0.82184  0.09318  0.63708  1.0000
  C   C509      1.0  0.86409  0.06761  0.62902  1.0000
  C   C510      1.0  0.87668  0.11423  0.64757  1.0000
  H   H775      1.0  0.79083  0.18655  0.49514  1.0000
  H   H776      1.0  0.80793  0.08389  0.62668  1.0000
  H   H777      1.0  0.81738  0.11822  0.64054  1.0000
  C   C511      1.0  0.55536  0.48934  0.49798  1.0000
  H   H778      1.0  0.85272  0.04467  0.63864  1.0000
  S   S210      1.0  0.60939  0.35896  0.51119  1.0000
  H   H779      1.0  0.69461  0.47231  0.55292  1.0000
  H   H780      1.0  0.80915  0.07089  0.64686  1.0000
  Fe  Fe105     1.0  0.62083  0.41763  0.50193  1.0000
  H   H781      1.0  0.54078  0.26561  0.59257  1.0000
  C   C512      1.0  0.59580  0.26238  0.55546  1.0000
  H   H782      1.0  0.94109  0.29070  0.52514  1.0000
  C   C513      1.0  0.59752  0.25177  0.57101  1.0000
  C   C514      1.0  0.61280  0.29984  0.54955  1.0000
  Fe  Fe106     1.0  0.64895  0.38614  0.52729  1.0000
  Fe  Fe107     1.0  0.58698  0.16011  0.63199  1.0000
  H   H783      1.0  0.90508  0.12111  0.64523  1.0000
  C   C515      1.0  0.87480  0.13107  0.62043  1.0000
  Fe  Fe108     1.0  0.97581  0.12674  0.66361  1.0000
  H   H784      1.0  0.70552  0.25019  0.67648  1.0000
  H   H785      1.0  0.94897  0.26614  0.54145  1.0000
  H   H786      1.0  0.89398  0.31352  0.52842  1.0000
  H   H787      1.0  0.61110  0.30821  0.53762  1.0000
  H   H788      1.0  0.90318  0.13849  0.61750  1.0000
  C   C516      1.0  0.67331  0.37633  0.60943  1.0000
  H   H789      1.0  0.70138  0.21511  0.63001  1.0000
  H   H790      1.0  0.63497  0.07170  0.65351  1.0000
  H   H791      1.0  0.88736  0.22129  0.54446  1.0000
  C   C517      1.0  0.72208  0.20491  0.65737  1.0000
  H   H792      1.0  0.66507  0.12373  0.56421  1.0000
  H   H793      1.0  0.70218  0.26686  0.50113  1.0000
  C   C518      1.0  0.94010  0.28844  0.53818  1.0000
  H   H794      1.0  0.92230  0.30373  0.56737  1.0000
  H   H795      1.0  0.65508  0.17790  0.65165  1.0000
  H   H796      1.0  0.66190  0.38325  0.59968  1.0000
  H   H797      1.0  0.96730  0.47841  0.54362  1.0000
  C   C519      1.0  0.90437  0.27735  0.56326  1.0000
  C   C520      1.0  0.89418  0.31072  0.54135  1.0000
  H   H798      1.0  0.95922  0.31519  0.54146  1.0000
  H   H799      1.0  0.91232  0.25478  0.56726  1.0000
  H   H800      1.0  0.63402  0.17819  0.53795  1.0000
  C   C521      1.0  0.62604  0.17835  0.55070  1.0000
  H   H801      1.0  0.86764  0.30572  0.54702  1.0000
  H   H802      1.0  0.62083  0.10970  0.56034  1.0000
  S   S211      1.0  0.87078  0.35884  0.50526  1.0000
  S   S212      1.0  0.57441  0.20583  0.57889  1.0000
  H   H803      1.0  0.69521  0.27581  0.66138  1.0000
  H   H804      1.0  0.70238  0.19113  0.56421  1.0000
  C   C522      1.0  0.70704  0.23886  0.63741  1.0000
  C   C523      1.0  0.68480  0.19674  0.55663  1.0000
  H   H805      1.0  0.91213  0.33799  0.54474  1.0000
  N   N49       1.0  0.64879  0.16880  0.56048  1.0000
  H   H806      1.0  0.65595  0.13047  0.54468  1.0000
  H   H807      1.0  0.87795  0.27100  0.56947  1.0000
  H   H808      1.0  0.69519  0.19656  0.54421  1.0000
  H   H809      1.0  0.71837  0.19516  0.67002  1.0000
  N   N50       1.0  0.70077  0.22619  0.65431  1.0000
  H   H810      1.0  0.75028  0.22221  0.65392  1.0000
  H   H811      1.0  0.73828  0.27742  0.66077  1.0000
  H   H812      1.0  0.62672  0.20651  0.55262  1.0000
  H   H813      1.0  0.63876  0.19672  0.58021  1.0000
  H   H814      1.0  0.59844  0.15837  0.55349  1.0000
  S   S213      1.0  0.56460  0.24370  0.61993  1.0000
  H   H815      1.0  0.75413  0.43697  0.56976  1.0000
  C   C524      1.0  0.63690  0.16865  0.57730  1.0000
  Fe  Fe109     1.0  0.60837  0.24330  0.63259  1.0000
  H   H816      1.0  0.65792  0.19135  0.67132  1.0000
  S   S214      1.0  0.97359  0.10247  0.64034  1.0000
  H   H817      1.0  0.72133  0.44746  0.53208  1.0000
  C   C525      1.0  0.95980  0.20565  0.62353  1.0000
  H   H818      1.0  0.85157  0.05720  0.61840  1.0000
  S   S215      1.0  0.54082  0.15236  0.61947  1.0000
  H   H819      1.0  0.79254  0.46627  0.55673  1.0000
  H   H820      1.0  0.77252  0.28315  0.51316  1.0000
  C   C526      1.0  0.73874  0.44369  0.54025  1.0000
  H   H821      1.0  0.52950  0.26326  0.57306  1.0000
  H   H822      1.0  0.97231  0.20370  0.61215  1.0000
  H   H823      1.0  0.87147  0.15696  0.62343  1.0000
  S   S216      1.0  0.88516  0.46936  0.61990  1.0000
  C   C527      1.0  0.97971  0.48534  0.53117  1.0000
  H   H824      1.0  0.55051  0.03950  0.49606  1.0000
  C   C528      1.0  0.71625  0.29409  0.50577  1.0000
  H   H825      1.0  0.87358  0.13970  0.65136  1.0000
  N   N51       1.0  0.74548  0.47136  0.55198  1.0000
  H   H826      1.0  0.69806  0.43960  0.56716  1.0000
  H   H827      1.0  0.86248  0.12248  0.60959  1.0000
  H   H828      1.0  0.59264  0.22161  0.51896  1.0000
  H   H829      1.0  0.86833  0.44547  0.52394  1.0000
  H   H830      1.0  0.86599  0.09249  0.65765  1.0000
  Fe  Fe110     1.0  0.69841  0.44292  0.50209  1.0000
  S   S217      1.0  0.69358  0.38650  0.51088  1.0000
  H   H831      1.0  0.94243  0.14922  0.73476  1.0000
  C   C529      1.0  0.76991  0.34837  0.50431  1.0000
  C   C530      1.0  0.87295  0.45822  0.53486  1.0000
  S   S218      1.0  0.64704  0.08462  0.51196  1.0000
  H   H832      1.0  0.76957  0.34492  0.51724  1.0000
  H   H833      1.0  0.58930  0.08129  0.49454  1.0000
  H   H834      1.0  0.96114  0.46620  0.52399  1.0000
  H   H835      1.0  0.75738  0.36796  0.50181  1.0000
  H   H836      1.0  0.76316  0.44647  0.53294  1.0000
  C   C531      1.0  0.95990  0.13410  0.73324  1.0000
  H   H837      1.0  0.71546  0.28894  0.51866  1.0000
  H   H838      1.0  0.61544  0.28706  0.50724  1.0000
  H   H839      1.0  0.49951  0.19543  0.57850  1.0000
  H   H840      1.0  0.50802  0.19694  0.59851  1.0000
  C   C532      1.0  0.86341  0.48809  0.53785  1.0000
  H   H841      1.0  0.95873  0.12965  0.70219  1.0000
  H   H842      1.0  0.82131  0.49071  0.50513  1.0000
  C   C533      1.0  0.56123  0.07014  0.49315  1.0000
  H   H843      1.0  0.92967  0.99978  0.69942  1.0000
  C   C534      1.0  0.60921  0.22964  0.50781  1.0000
  S   S219      1.0  0.60435  0.15757  0.50864  1.0000
  H   H844      1.0  0.51911  0.29364  0.58586  1.0000
  H   H845      1.0  0.98764  0.18047  0.63632  1.0000
  H   H846      1.0  0.95976  0.17420  0.70684  1.0000
  S   S220      1.0  0.57581  0.43144  0.49666  1.0000
  C   C535      1.0  0.61847  0.20338  0.50015  1.0000
  H   H847      1.0  0.85655  0.45730  0.49399  1.0000
  H   H848      1.0  0.60660  0.01883  0.49631  1.0000
  H   H849      1.0  0.77379  0.48585  0.57168  1.0000
  S   S221      1.0  0.91984  0.44757  0.49746  1.0000
  C   C536      1.0  0.62212  0.26668  0.50120  1.0000
  Fe  Fe111     1.0  0.64771  0.13917  0.50266  1.0000
  C   C537      1.0  0.77926  0.46452  0.49166  1.0000
  S   S222      1.0  0.90498  0.28711  0.49668  1.0000
  Fe  Fe112     1.0  0.91647  0.34809  0.49492  1.0000
  S   S223      1.0  0.72754  0.11398  0.49420  1.0000
  C   C538      1.0  0.84167  0.22986  0.49554  1.0000
  H   H850      1.0  0.98430  0.05966  0.74021  1.0000
  H   H851      1.0  0.54855  0.08209  0.50214  1.0000
  N   N52       1.0  0.75229  0.31234  0.49784  1.0000
  C   C539      1.0  0.77120  0.28825  0.50046  1.0000
  H   H852      1.0  0.75844  0.26074  0.49579  1.0000
  H   H853      1.0  0.79838  0.30113  0.49441  1.0000
  H   H854      1.0  0.52915  0.46855  0.49850  1.0000
  Fe  Fe113     1.0  0.65532  0.36526  0.49386  1.0000
  H   H855      1.0  0.99453  0.10242  0.71539  1.0000
  S   S224      1.0  0.54572  0.20489  0.98226  1.0000
  S   S225      1.0  0.81000  0.43978  0.98267  1.0000
  C   C540      1.0  0.73757  0.29561  0.98681  1.0000
  N   N53       1.0  0.83176  0.40781  0.93801  1.0000
  C   C541      1.0  0.98338  0.09098  0.77660  1.0000
  H   H856      1.0  0.53116  0.09387  0.96726  1.0000
  H   H857      1.0  0.83643  0.39762  0.96215  1.0000
  S   S226      1.0  0.76029  0.33943  0.97646  1.0000
  H   H858      1.0  0.51444  0.15308  0.93689  1.0000
  H   H859      1.0  0.87918  0.45712  0.93572  1.0000
  H   H860      1.0  0.68465  0.33140  0.98457  1.0000
  H   H861      1.0  0.87115  0.39658  0.94869  1.0000
  C   C542      1.0  0.51510  0.99831  0.96328  1.0000
  C   C543      1.0  0.79391  0.39779  0.94116  1.0000
  S   S227      1.0  0.91153  0.01398  0.74510  1.0000
  H   H862      1.0  0.86848  0.40272  0.91996  1.0000
  H   H863      1.0  0.82638  0.36493  0.92244  1.0000
  H   H864      1.0  0.53853  0.99833  0.95679  1.0000
  C   C544      1.0  0.93923  0.04245  0.75750  1.0000
  C   C545      1.0  0.94829  0.07038  0.78220  1.0000
  C   C546      1.0  0.84009  0.39561  0.92263  1.0000
  H   H865      1.0  0.54785  0.12006  0.94851  1.0000
  H   H866      1.0  0.84489  0.45873  0.94928  1.0000
  S   S228      1.0  0.90714  0.47329  0.96694  1.0000
  H   H867      1.0  0.93800  0.07358  0.79387  1.0000
  H   H868      1.0  0.89906  0.03071  0.77701  1.0000
  S   S229      1.0  0.55818  0.04363  0.98221  1.0000
  C   C547      1.0  0.84262  0.38918  0.95046  1.0000
  S   S230      1.0  0.62846  0.41469  0.98827  1.0000
  C   C548      1.0  0.92628  0.04596  0.77271  1.0000
  S   S231      1.0  0.59967  0.14834  0.98646  1.0000
  H   H869      1.0  0.70013  0.27680  0.97044  1.0000
  H   H870      1.0  0.77901  0.36710  0.94173  1.0000
  C   C549      1.0  0.70810  0.26996  0.98131  1.0000
  C   C550      1.0  0.53172  0.11810  0.95987  1.0000
  H   H871      1.0  0.84310  0.46372  0.92856  1.0000
  C   C551      1.0  0.51735  0.01926  0.97625  1.0000
  H   H872      1.0  0.78675  0.40669  0.95267  1.0000
  C   C552      1.0  0.85048  0.44860  0.93782  1.0000
  H   H873      1.0  0.82890  0.35833  0.95108  1.0000
  C   C553      1.0  0.49842  0.14840  0.94853  1.0000
  H   H874      1.0  0.96934  0.00565  0.78018  1.0000
  C   C554      1.0  0.69858  0.44113  0.98758  1.0000
  H   H875      1.0  0.54547  0.14339  0.96583  1.0000
  C   C555      1.0  0.52916  0.26452  0.98704  1.0000
  H   H876      1.0  0.78460  0.41105  0.93196  1.0000
  H   H877      1.0  0.83227  0.40913  0.91294  1.0000
  Fe  Fe114     1.0  0.86379  0.44739  0.98679  1.0000
  H   H878      1.0  0.66545  0.21617  0.98589  1.0000
  C   C556      1.0  0.97442  0.06263  0.75196  1.0000
  H   H879      1.0  0.69913  0.43672  0.97522  1.0000
  H   H880      1.0  0.54361  0.27596  0.97557  1.0000
  Fe  Fe115     1.0  0.79561  0.38030  0.99106  1.0000
  H   H881      1.0  0.75397  0.46119  0.98693  1.0000
  H   H882      1.0  0.63912  0.26812  0.98576  1.0000
  H   H883      1.0  0.65451  0.35202  0.98070  1.0000
  H   H884      1.0  0.60817  0.28697  0.98143  1.0000
  C   C557      1.0  0.68845  0.23571  0.99003  1.0000
  H   H885      1.0  0.96924  0.13202  0.74476  1.0000
  H   H886      1.0  0.51052  0.17361  0.95491  1.0000
  C   C558      1.0  0.66491  0.34089  0.99020  1.0000
  H   H887      1.0  0.51630  0.31184  0.99083  1.0000
  N   N54       1.0  0.49632  0.11450  0.95758  1.0000
  C   C559      1.0  0.62020  0.27894  0.99113  1.0000
  H   H888      1.0  0.97670  0.49253  0.95185  1.0000
  Fe  Fe116     1.0  0.84493  0.72277  0.18943  1.0000
  S   S232      1.0  0.82024  0.74420  0.20902  1.0000
  S   S233      1.0  0.83299  0.66251  0.18569  1.0000
  Fe  Fe117     1.0  0.87453  0.77823  0.21342  1.0000
  S   S234      1.0  0.84865  0.76751  0.17120  1.0000
  Fe  Fe118     1.0  0.82925  0.79185  0.19140  1.0000
  S   S235      1.0  0.79284  0.82080  0.19265  1.0000
  H   H889      1.0  0.93962  0.74755  0.16481  1.0000
  C   C560      1.0  0.90214  0.67107  0.14524  1.0000
  H   H890      1.0  0.94012  0.77747  0.22049  1.0000
  S   S236      1.0  0.74560  0.58663  0.13166  1.0000
  C   C561      1.0  0.68371  0.52519  0.04970  1.0000
  C   C562      1.0  0.79638  0.98252  0.13916  1.0000
  H   H891      1.0  0.81452  0.97388  0.22659  1.0000
  H   H892      1.0  0.98385  0.53733  0.00503  1.0000
  H   H893      1.0  0.84965  0.85073  0.16753  1.0000
  S   S237      1.0  0.88220  0.82713  0.19696  1.0000
  H   H894      1.0  0.65470  0.57259  0.18050  1.0000
  H   H895      1.0  0.61614  0.50796  0.05827  1.0000
  H   H896      1.0  0.81480  0.97099  0.14323  1.0000
  H   H897      1.0  0.86715  0.71182  0.15536  1.0000
  H   H898      1.0  0.96732  0.72088  0.13530  1.0000
  H   H899      1.0  0.81817  0.95345  0.18529  1.0000
  H   H900      1.0  0.89212  0.66536  0.13370  1.0000
  C   C563      1.0  0.94624  0.73114  0.13482  1.0000
  C   C564      1.0  0.83524  0.84675  0.22895  1.0000
  C   C565      1.0  0.88963  0.72602  0.14609  1.0000
  C   C566      1.0  0.62427  0.51044  0.04537  1.0000
  S   S238      1.0  0.89879  0.75240  0.19569  1.0000
  H   H901      1.0  0.87945  0.72170  0.13456  1.0000
  H   H902      1.0  0.93790  0.72743  0.12290  1.0000
  H   H903      1.0  0.67854  0.56575  0.15383  1.0000
  H   H904      1.0  0.64546  0.53681  0.19613  1.0000
  C   C567      1.0  0.86102  0.90937  0.16421  1.0000
  C   C568      1.0  0.84280  0.87316  0.17143  1.0000
  C   C569      1.0  0.81532  0.86588  0.18343  1.0000
  C   C570      1.0  0.80637  0.89491  0.18833  1.0000
  C   C571      1.0  0.82528  0.93131  0.18143  1.0000
  H   H905      1.0  0.88180  0.91470  0.15475  1.0000
  H   H906      1.0  0.95772  0.76164  0.13613  1.0000
  H   H907      1.0  0.78509  0.88933  0.19759  1.0000
  S   S239      1.0  0.68190  0.49390  0.12095  1.0000
  C   C572      1.0  0.80872  0.64190  0.17061  1.0000
  C   C573      1.0  0.80537  0.60611  0.16709  1.0000
  C   C574      1.0  0.78657  0.58908  0.15496  1.0000
  C   C575      1.0  0.77071  0.60769  0.14642  1.0000
  C   C576      1.0  0.77416  0.64352  0.14991  1.0000
  C   C577      1.0  0.79317  0.66066  0.16197  1.0000
  H   H908      1.0  0.81749  0.59155  0.17372  1.0000
  H   H909      1.0  0.78432  0.56160  0.15223  1.0000
  H   H910      1.0  0.76190  0.65800  0.14333  1.0000
  H   H911      1.0  0.79548  0.68820  0.16466  1.0000
  H   H912      1.0  0.96131  0.81993  0.19294  1.0000
  C   C578      1.0  0.67052  0.53756  0.02389  1.0000
  H   H913      1.0  0.86272  0.85071  0.22941  1.0000
  H   H914      1.0  0.76730  0.81888  0.23899  1.0000
  H   H915      1.0  0.61914  0.52831  0.18036  1.0000
  S   S240      1.0  0.76286  0.50911  0.10803  1.0000
  H   H916      1.0  0.68792  0.52595  0.15031  1.0000
  H   H917      1.0  0.68179  0.49707  0.04697  1.0000
  N   N55       1.0  0.97734  0.96237  0.17711  1.0000
  H   H918      1.0  0.71149  0.54443  0.04672  1.0000
  Fe  Fe119     1.0  0.73487  0.52674  0.12768  1.0000
  C   C579      1.0  0.95145  0.97196  0.16967  1.0000
  N   N56       1.0  0.66070  0.53694  0.04097  1.0000
  H   H919      1.0  0.60592  0.51886  0.03938  1.0000
  C   C580      1.0  0.81295  0.96811  0.23912  1.0000
  C   C581      1.0  0.94855  0.78927  0.23121  1.0000
  C   C582      1.0  0.85263  0.93860  0.16937  1.0000
  H   H920      1.0  0.69800  0.55691  0.02011  1.0000
  C   C583      1.0  0.49561  0.92890  0.00118  1.0000
  S   S241      1.0  0.94794  0.82962  0.16107  1.0000
  H   H921      1.0  0.69146  0.59518  0.04178  1.0000
  H   H922      1.0  0.89982  0.75645  0.14750  1.0000
  N   N57       1.0  0.66973  0.52797  0.17430  1.0000
  C   C584      1.0  0.70538  0.54698  0.17833  1.0000
  H   H923      1.0  0.65688  0.57476  0.05773  1.0000
  H   H924      1.0  0.93874  0.91835  0.19295  1.0000
  H   H925      1.0  0.79809  0.98199  0.12616  1.0000
  S   S242      1.0  0.87664  0.98406  0.16067  1.0000
  H   H926      1.0  0.70643  0.54257  0.19111  1.0000
  H   H927      1.0  0.87996  0.65559  0.15455  1.0000
  Fe  Fe120     1.0  0.90113  0.79833  0.17867  1.0000
  H   H928      1.0  0.92188  0.65898  0.14597  1.0000
  H   H929      1.0  0.94996  0.70727  0.16401  1.0000
  C   C585      1.0  0.66424  0.57449  0.04492  1.0000
  C   C586      1.0  0.98488  0.85104  0.17054  1.0000
  H   H930      1.0  0.50539  0.86580  0.00622  1.0000
  H   H931      1.0  0.96789  0.98422  0.19886  1.0000
  H   H932      1.0  0.64359  0.52078  0.15363  1.0000
  C   C587      1.0  0.98968  0.98702  0.18972  1.0000
  H   H933      1.0  0.83498  0.86717  0.21959  1.0000
  C   C588      1.0  0.66978  0.53544  0.15730  1.0000
  H   H934      1.0  0.95126  0.90385  0.17463  1.0000
  H   H935      1.0  0.90752  0.70239  0.17240  1.0000
  C   C589      1.0  0.92905  0.71743  0.16278  1.0000
  H   H936      1.0  0.65365  0.54625  0.01692  1.0000
  H   H937      1.0  0.98014  0.91483  0.18936  1.0000
  N   N58       1.0  0.91679  0.71138  0.14721  1.0000
  H   H938      1.0  0.52299  0.93472  0.00292  1.0000
  H   H939      1.0  0.64720  0.58423  0.03853  1.0000
  C   C590      1.0  0.96117  0.92317  0.18384  1.0000
  H   H940      1.0  0.67682  0.52380  0.06266  1.0000
  H   H941      1.0  0.66787  0.50953  0.02054  1.0000
  S   S243      1.0  0.88409  0.79064  0.23811  1.0000
  H   H942      1.0  0.71575  0.57757  0.17510  1.0000
  C   C591      1.0  0.98233  0.52752  0.99343  1.0000
  H   H943      1.0  0.92817  0.96749  0.17822  1.0000
  C   C592      1.0  0.98095  0.79248  0.23520  1.0000
  H   H944      1.0  0.94222  0.95465  0.15981  1.0000
  H   H945      1.0  0.72361  0.53653  0.17191  1.0000
  C   C593      1.0  0.64620  0.54204  0.18323  1.0000
  H   H946      1.0  0.82142  0.81852  0.22508  1.0000
  H   H947      1.0  0.92660  0.50803  0.99548  1.0000
  H   H948      1.0  0.49604  0.95304  0.99380  1.0000
  H   H949      1.0  0.83934  0.91073  0.24040  1.0000
  H   H950      1.0  0.78192  0.86812  0.23437  1.0000
  H   H951      1.0  0.76973  0.96316  0.14432  1.0000
  C   C594      1.0  0.92680  0.79999  0.24142  1.0000
  C   C595      1.0  0.98435  0.84100  0.18641  1.0000
  H   H952      1.0  0.76047  0.92635  0.24148  1.0000
  C   C596      1.0  0.62482  0.79061  0.42590  1.0000
  S   S244      1.0  0.81871  0.88602  0.29791  1.0000
  H   H953      1.0  0.84189  0.97947  0.30399  1.0000
  H   H954      1.0  0.59869  0.62576  0.39748  1.0000
  C   C597      1.0  0.60997  0.98258  0.46121  1.0000
  S   S245      1.0  0.52802  0.64084  0.44362  1.0000
  S   S246      1.0  0.96315  0.83786  0.32769  1.0000
  C   C598      1.0  0.91330  0.91792  0.30571  1.0000
  H   H955      1.0  0.50336  0.81245  0.39373  1.0000
  C   C599      1.0  0.94697  0.94632  0.32629  1.0000
  S   S247      1.0  0.56785  0.67024  0.34582  1.0000
  H   H956      1.0  0.62767  0.88458  0.28849  1.0000
  N   N59       1.0  0.64615  0.85136  0.30260  1.0000
  H   H957      1.0  0.67952  0.87666  0.31988  1.0000
  N   N60       1.0  0.88136  0.71027  0.27948  1.0000
  Fe  Fe121     1.0  0.73607  0.84426  0.32852  1.0000
  S   S248      1.0  0.73943  0.82071  0.30531  1.0000
  S   S249      1.0  0.68645  0.83020  0.34485  1.0000
  Fe  Fe122     1.0  0.79320  0.82819  0.30960  1.0000
  S   S250      1.0  0.81988  0.79188  0.30076  1.0000
  C   C600      1.0  0.61251  0.81588  0.41958  1.0000
  C   C601      1.0  0.99137  0.80609  0.24945  1.0000
  S   S251      1.0  0.59606  0.62694  0.45254  1.0000
  C   C602      1.0  0.57551  0.95627  0.46242  1.0000
  H   H958      1.0  0.84071  0.65545  0.28142  1.0000
  H   H959      1.0  0.66540  0.69157  0.45684  1.0000
  Fe  Fe123     1.0  0.57774  0.67310  0.45299  1.0000
  S   S252      1.0  0.61862  0.72835  0.44336  1.0000
  S   S253      1.0  0.75794  0.90379  0.31848  1.0000
  C   C603      1.0  0.55215  0.95290  0.47577  1.0000
  C   C604      1.0  0.60245  0.75993  0.43604  1.0000
  H   H960      1.0  0.92173  0.82478  0.26288  1.0000
  C   C605      1.0  0.56763  0.75452  0.43992  1.0000
  H   H961      1.0  0.91283  0.91492  0.29291  1.0000
  H   H962      1.0  0.62026  0.82859  0.32580  1.0000
  H   H963      1.0  0.97818  0.82889  0.27029  1.0000
  H   H964      1.0  0.80457  0.79397  0.25285  1.0000
  N   N61       1.0  0.81874  0.85108  0.24434  1.0000
  C   C606      1.0  0.87309  0.99046  0.32298  1.0000
  H   H965      1.0  0.63509  0.71836  0.47527  1.0000
  H   H966      1.0  0.58100  0.51535  0.46666  1.0000
  H   H967      1.0  0.50827  0.80753  0.37308  1.0000
  H   H968      1.0  0.55023  0.73055  0.44759  1.0000
  H   H969      1.0  0.50392  0.70395  0.46981  1.0000
  H   H970      1.0  0.62786  0.98527  0.45080  1.0000
  H   H971      1.0  0.50100  0.90657  0.38892  1.0000
  Fe  Fe124     1.0  0.56945  0.61078  0.47716  1.0000
  H   H972      1.0  0.95692  0.98110  0.28834  1.0000
  C   C607      1.0  0.60007  0.71531  0.34474  1.0000
  C   C608      1.0  0.59289  0.74392  0.35136  1.0000
  C   C609      1.0  0.61979  0.77903  0.35153  1.0000
  C   C610      1.0  0.65360  0.78586  0.34471  1.0000
  C   C611      1.0  0.66062  0.75748  0.33782  1.0000
  C   C612      1.0  0.63391  0.72209  0.33800  1.0000
  H   H973      1.0  0.56681  0.73874  0.35663  1.0000
  H   H974      1.0  0.61440  0.80100  0.35694  1.0000
  H   H975      1.0  0.68673  0.76257  0.33262  1.0000
  H   H976      1.0  0.63949  0.69986  0.33295  1.0000
  H   H977      1.0  0.54351  0.88916  0.36166  1.0000
  H   H978      1.0  0.92379  0.76121  0.28266  1.0000
  S   S254      1.0  0.51870  0.57177  0.47019  1.0000
  S   S255      1.0  0.85117  0.94639  0.33326  1.0000
  N   N62       1.0  0.94758  0.94419  0.30912  1.0000
  C   C613      1.0  0.50952  0.56040  0.41589  1.0000
  C   C614      1.0  0.67265  0.88403  0.30840  1.0000
  C   C615      1.0  0.70460  0.74372  0.47429  1.0000
  C   C616      1.0  0.92359  0.82537  0.32008  1.0000
  C   C617      1.0  0.92156  0.81896  0.30426  1.0000
  C   C618      1.0  0.88959  0.80895  0.29839  1.0000
  C   C619      1.0  0.85974  0.80537  0.30825  1.0000
  C   C620      1.0  0.86199  0.81272  0.32397  1.0000
  C   C621      1.0  0.89389  0.82260  0.32989  1.0000
  H   H979      1.0  0.94462  0.82181  0.29661  1.0000
  H   H980      1.0  0.88790  0.80443  0.28619  1.0000
  H   H981      1.0  0.83904  0.81008  0.33167  1.0000
  H   H982      1.0  0.89549  0.82789  0.34212  1.0000
  N   N63       1.0  0.59921  0.68065  0.39387  1.0000
  C   C622      1.0  0.60048  0.65012  0.40413  1.0000
  C   C623      1.0  0.62859  0.69306  0.38106  1.0000
  C   C624      1.0  0.60149  0.71219  0.40320  1.0000
  C   C625      1.0  0.56615  0.66727  0.38708  1.0000
  H   H983      1.0  0.57844  0.64002  0.41382  1.0000
  H   H984      1.0  0.62490  0.65920  0.40963  1.0000
  H   H985      1.0  0.65399  0.70190  0.38573  1.0000
  H   H986      1.0  0.62664  0.67058  0.37320  1.0000
  H   H987      1.0  0.62921  0.71722  0.37356  1.0000
  H   H988      1.0  0.57984  0.70380  0.41304  1.0000
  H   H989      1.0  0.60035  0.73572  0.39587  1.0000
  H   H990      1.0  0.62625  0.72317  0.40845  1.0000
  H   H991      1.0  0.56430  0.68973  0.37936  1.0000
  H   H992      1.0  0.54332  0.65716  0.39637  1.0000
  H   H993      1.0  0.56373  0.64387  0.37969  1.0000
  C   C626      1.0  0.97014  0.81806  0.25936  1.0000
  Fe  Fe125     1.0  0.76432  0.88027  0.29568  1.0000
  H   H994      1.0  0.94161  0.91875  0.33251  1.0000
  H   H995      1.0  0.86577  0.89285  0.25037  1.0000
  H   H996      1.0  0.92625  0.72029  0.29145  1.0000
  H   H997      1.0  0.91494  0.73240  0.25771  1.0000
  C   C627      1.0  0.89869  0.70518  0.26442  1.0000
  C   C628      1.0  0.90793  0.73334  0.28892  1.0000
  H   H998      1.0  0.97226  0.96642  0.32929  1.0000
  S   S256      1.0  0.50840  0.83282  0.45782  1.0000
  H   H999      1.0  0.64018  0.79668  0.29642  1.0000
  C   C629      1.0  0.51102  0.88447  0.39070  1.0000
  C   C630      1.0  0.84185  0.98604  0.24689  1.0000
  H   H1000     1.0  0.92643  0.95554  0.33121  1.0000
  H   H1001     1.0  0.59410  0.81161  0.31036  1.0000
  S   S257      1.0  0.74579  0.89537  0.27388  1.0000
  H   H1002     1.0  0.89245  0.92738  0.30984  1.0000
  Fe  Fe126     1.0  0.54451  0.59300  0.44553  1.0000
  H   H1003     1.0  0.87949  0.68884  0.25675  1.0000
  C   C631      1.0  0.97462  0.93106  0.30318  1.0000
  C   C632      1.0  0.78242  0.94129  0.24754  1.0000
  H   H1004     1.0  0.62995  0.83952  0.41169  1.0000
  C   C633      1.0  0.55552  0.78052  0.43395  1.0000
  C   C634      1.0  0.57806  0.81122  0.42374  1.0000
  H   H1005     1.0  0.97023  0.90368  0.30926  1.0000
  C   C635      1.0  0.51448  0.82815  0.38200  1.0000
  C   C636      1.0  0.78095  0.93289  0.26367  1.0000
  H   H1006     1.0  0.90617  0.88983  0.31176  1.0000
  C   C637      1.0  0.93806  0.81539  0.25525  1.0000
  H   H1007     1.0  0.66346  0.90678  0.31010  1.0000
  S   S258      1.0  0.51083  0.89933  0.43252  1.0000
  H   H1008     1.0  0.80773  0.94679  0.28400  1.0000
  H   H1009     1.0  0.82648  0.89280  0.26066  1.0000
  C   C638      1.0  0.65971  0.82212  0.30046  1.0000
  C   C639      1.0  0.85791  0.72891  0.27633  1.0000
  H   H1010     1.0  0.97514  0.92787  0.29038  1.0000
  H   H1011     1.0  0.84477  0.73389  0.28741  1.0000
  N   N64       1.0  0.50059  0.85680  0.37904  1.0000
  H   H1012     1.0  0.53978  0.89791  0.39031  1.0000
  S   S259      1.0  0.55496  0.65987  0.47820  1.0000
  H   H1013     1.0  0.76913  0.84893  0.25447  1.0000
  H   H1014     1.0  0.66165  0.87374  0.27847  1.0000
  H   H1015     1.0  0.84735  0.67667  0.29963  1.0000
  S   S260      1.0  0.78753  0.84555  0.33399  1.0000
  S   S261      1.0  0.50828  0.92207  0.47719  1.0000
  H   H1016     1.0  0.65170  0.79479  0.42281  1.0000
  C   C640      1.0  0.63797  0.86250  0.28736  1.0000
  H   H1017     1.0  0.80597  0.82477  0.26799  1.0000
  H   H1018     1.0  0.50709  0.85526  0.35401  1.0000
  H   H1019     1.0  0.87233  0.75636  0.26951  1.0000
  H   H1020     1.0  0.61825  0.83847  0.28256  1.0000
  C   C641      1.0  0.86090  0.67364  0.28825  1.0000
  C   C642      1.0  0.53443  0.75884  0.48800  1.0000
  H   H1021     1.0  0.56701  0.93881  0.45297  1.0000
  C   C643      1.0  0.80923  0.95227  0.27147  1.0000
  Fe  Fe127     1.0  0.51923  0.84636  0.43176  1.0000
  S   S262      1.0  0.54474  0.56020  0.42492  1.0000
  C   C644      1.0  0.78266  0.84651  0.24300  1.0000
  S   S263      1.0  0.56376  0.84407  0.41604  1.0000
  Fe  Fe128     1.0  0.80965  0.90335  0.32192  1.0000
  H   H1022     1.0  0.68330  0.83200  0.29157  1.0000
  C   C645      1.0  0.56358  0.97538  0.48802  1.0000
  Fe  Fe129     1.0  0.51285  0.66478  0.35199  1.0000
  H   H1023     1.0  0.54322  0.84070  0.38183  1.0000
  H   H1024     1.0  0.66685  0.81364  0.31167  1.0000
  H   H1025     1.0  0.89587  0.73785  0.30039  1.0000
  H   H1026     1.0  0.69707  0.89558  0.30001  1.0000
  H   H1027     1.0  0.53750  0.57445  0.39251  1.0000
  H   H1028     1.0  0.69633  0.75573  0.46423  1.0000
  H   H1029     1.0  0.52874  0.77666  0.43702  1.0000
  H   H1030     1.0  0.83740  0.71225  0.26929  1.0000
  H   H1031     1.0  0.70807  0.76299  0.48374  1.0000
  C   C646      1.0  0.57298  0.51296  0.45470  1.0000
  H   H1032     1.0  0.59477  0.53392  0.44657  1.0000
  H   H1033     1.0  0.60327  0.85792  0.31603  1.0000
  H   H1034     1.0  0.73046  0.74350  0.47023  1.0000
  C   C647      1.0  0.61447  0.83676  0.31418  1.0000
  H   H1035     1.0  0.91621  0.69068  0.26630  1.0000
  H   H1036     1.0  0.87777  0.65886  0.29095  1.0000
  C   C648      1.0  0.95548  0.98144  0.30132  1.0000
  H   H1037     1.0  0.54050  0.78322  0.47934  1.0000
  N   N65       1.0  0.67879  0.70591  0.47989  1.0000
  C   C649      1.0  0.67503  0.68148  0.46694  1.0000
  C   C650      1.0  0.81862  0.82261  0.25624  1.0000
  C   C651      1.0  0.83847  0.88852  0.24915  1.0000
  C   C652      1.0  0.51341  0.56995  0.39973  1.0000
  Fe  Fe130     1.0  0.50631  0.62261  0.46899  1.0000
  H   H1038     1.0  0.55045  0.52109  0.45479  1.0000
  C   C653      1.0  0.64498  0.70766  0.48509  1.0000
  H   H1039     1.0  0.84550  0.82559  0.25768  1.0000
  C   C654      1.0  0.51463  0.87551  0.36307  1.0000
  H   H1040     1.0  0.50455  0.89723  0.36049  1.0000
  H   H1041     1.0  0.50038  0.87105  0.40276  1.0000
  H   H1042     1.0  0.70018  0.68001  0.46252  1.0000
  H   H1043     1.0  0.62501  0.67965  0.48955  1.0000
  C   C655      1.0  0.83981  0.97841  0.26307  1.0000
  H   H1044     1.0  0.65630  0.65252  0.47087  1.0000
  H   H1045     1.0  0.55130  0.74425  0.48388  1.0000
  H   H1046     1.0  0.57872  0.49414  0.42532  1.0000
  H   H1047     1.0  0.71574  0.68869  0.48970  1.0000
  N   N66       1.0  0.49726  0.73373  0.48951  1.0000
  H   H1048     1.0  0.86202  0.99249  0.26912  1.0000
  H   H1049     1.0  0.93526  0.99187  0.30529  1.0000
  H   H1050     1.0  0.78898  0.51277  0.53725  1.0000
  N   N67       1.0  0.84498  0.65502  0.67662  1.0000
  Fe  Fe131     1.0  0.82849  0.56069  0.61428  1.0000
  S   S264      1.0  0.79576  0.54313  0.59465  1.0000
  S   S265      1.0  0.83138  0.61255  0.62567  1.0000
  S   S266      1.0  0.85368  0.53879  0.55665  1.0000
  H   H1051     1.0  0.82524  0.65402  0.65445  1.0000
  H   H1052     1.0  0.90612  0.98648  0.68280  1.0000
  C   C656      1.0  0.83053  0.67104  0.66470  1.0000
  C   C657      1.0  0.85119  0.81423  0.70986  1.0000
  S   S267      1.0  0.87483  0.55495  0.60119  1.0000
  S   S268      1.0  0.80609  0.50351  0.62734  1.0000
  H   H1053     1.0  0.67126  0.66216  0.49766  1.0000
  H   H1054     1.0  0.64901  0.56398  0.49674  1.0000
  Fe  Fe132     1.0  0.94082  0.78975  0.68485  1.0000
  S   S269      1.0  0.91411  0.76744  0.66410  1.0000
  S   S270      1.0  0.92263  0.76981  0.71016  1.0000
  Fe  Fe133     1.0  0.96665  0.77446  0.65263  1.0000
  H   H1055     1.0  0.94398  0.52681  0.53985  1.0000
  Fe  Fe134     1.0  0.93100  0.82744  0.65544  1.0000
  S   S271      1.0  0.89030  0.84109  0.64515  1.0000
  H   H1056     1.0  0.89770  0.68433  0.66564  1.0000
  S   S272      1.0  0.95277  0.84926  0.67738  1.0000
  C   C658      1.0  0.89334  0.78973  0.71620  1.0000
  C   C659      1.0  0.87387  0.79718  0.70533  1.0000
  N   N68       1.0  0.89293  0.94293  0.70136  1.0000
  H   H1057     1.0  0.87596  0.78947  0.69344  1.0000
  H   H1058     1.0  0.98549  0.51502  0.50149  1.0000
  C   C660      1.0  0.89280  0.88652  0.64657  1.0000
  C   C661      1.0  0.92188  0.91420  0.65141  1.0000
  H   H1059     1.0  0.92188  0.95234  0.72108  1.0000
  H   H1060     1.0  0.84498  0.92663  0.71676  1.0000
  S   S273      1.0  0.99178  0.79089  0.67441  1.0000
  C   C662      1.0  0.87327  0.64604  0.62690  1.0000
  C   C663      1.0  0.90154  0.63596  0.62758  1.0000
  C   C664      1.0  0.93360  0.66236  0.63077  1.0000
  C   C665      1.0  0.93735  0.69876  0.63334  1.0000
  C   C666      1.0  0.90952  0.70916  0.63200  1.0000
  C   C667      1.0  0.87761  0.68288  0.62877  1.0000
  H   H1061     1.0  0.89833  0.60751  0.62631  1.0000
  H   H1062     1.0  0.95506  0.65416  0.63176  1.0000
  H   H1063     1.0  0.91248  0.73746  0.63347  1.0000
  H   H1064     1.0  0.85603  0.69100  0.62795  1.0000
  S   S274      1.0  0.98224  0.83323  0.64241  1.0000
  C   C668      1.0  0.92333  0.95050  0.65221  1.0000
  C   C669      1.0  0.69041  0.69072  0.49320  1.0000
  H   H1065     1.0  0.94029  0.97133  0.68573  1.0000
  H   H1066     1.0  0.76903  0.53086  0.55235  1.0000
  C   C670      1.0  0.84971  0.67710  0.69041  1.0000
  H   H1067     1.0  0.85763  0.88783  0.69771  1.0000
  H   H1068     1.0  0.94338  0.90773  0.65430  1.0000
  H   H1069     1.0  0.89206  0.90498  0.72030  1.0000
  C   C671      1.0  0.84891  0.82517  0.72509  1.0000
  C   C672      1.0  0.91052  0.93046  0.71300  1.0000
  H   H1070     1.0  0.86073  0.66592  0.69962  1.0000
  H   H1071     1.0  0.94578  0.97156  0.65586  1.0000
  H   H1072     1.0  0.86557  0.92210  0.68166  1.0000
  C   C673      1.0  0.86487  0.95165  0.70965  1.0000
  H   H1073     1.0  0.84878  0.69978  0.66013  1.0000
  S   S275      1.0  0.97598  0.73033  0.63930  1.0000
  C   C674      1.0  0.89576  0.95917  0.64822  1.0000
  C   C675      1.0  0.87795  0.91312  0.69097  1.0000
  H   H1074     1.0  0.86785  0.70660  0.68715  1.0000
  H   H1075     1.0  0.89080  0.64417  0.67851  1.0000
  H   H1076     1.0  0.85153  0.49840  0.52923  1.0000
  H   H1077     1.0  0.93191  0.92374  0.70717  1.0000
  H   H1078     1.0  0.82468  0.67734  0.69586  1.0000
  H   H1079     1.0  0.89808  0.90467  0.68498  1.0000
  C   C676      1.0  0.86515  0.89509  0.64272  1.0000
  H   H1080     1.0  0.84262  0.87370  0.63897  1.0000
  H   H1081     1.0  0.83569  0.81931  0.70148  1.0000
  H   H1082     1.0  0.87607  0.63865  0.65955  1.0000
  C   C677      1.0  0.82072  0.61613  0.68149  1.0000
  H   H1083     1.0  0.81673  0.59886  0.67127  1.0000
  Fe  Fe135     1.0  0.84002  0.53205  0.58284  1.0000
  H   H1084     1.0  0.96724  0.85128  0.71778  1.0000
  H   H1085     1.0  0.84508  0.93764  0.64056  1.0000
  C   C678      1.0  0.56126  0.52716  0.49712  1.0000
  C   C679      1.0  0.86655  0.93126  0.64361  1.0000
  H   H1086     1.0  0.79477  0.61454  0.68659  1.0000
  C   C680      1.0  0.91836  0.97663  0.69190  1.0000
  C   C681      1.0  0.86837  0.50392  0.55218  1.0000
  H   H1087     1.0  0.69347  0.70834  0.50323  1.0000
  C   C682      1.0  0.87886  0.65557  0.66982  1.0000
  H   H1088     1.0  0.83074  0.60298  0.69043  1.0000
  N   N69       1.0  0.98842  0.52467  0.52586  1.0000
  H   H1089     1.0  0.80560  0.67238  0.66957  1.0000
  C   C683      1.0  0.89054  0.79985  0.73156  1.0000
  C   C684      1.0  0.99418  0.86059  0.71160  1.0000
  C   C685      1.0  0.62285  0.54319  0.49714  1.0000
  S   S276      1.0  0.82203  0.84865  0.73007  1.0000
  H   H1090     1.0  0.53964  0.53544  0.49700  1.0000
  H   H1091     1.0  0.93697  0.51396  0.52030  1.0000
  H   H1092     1.0  0.96194  0.56145  0.52347  1.0000
  H   H1093     1.0  0.87516  0.97360  0.71783  1.0000
  H   H1094     1.0  0.88792  0.50298  0.57436  1.0000
  H   H1095     1.0  0.54572  0.97232  0.49848  1.0000
  H   H1096     1.0  0.99316  0.84231  0.70194  1.0000
  C   C686      1.0  0.59504  0.55409  0.49655  1.0000
  H   H1097     1.0  0.85134  0.96166  0.70123  1.0000
  C   C687      1.0  0.95649  0.53209  0.52743  1.0000
  S   S277      1.0  0.60291  0.60140  0.49407  1.0000
  H   H1098     1.0  0.54198  0.76974  0.49942  1.0000
  H   H1099     1.0  0.50543  0.68529  0.49736  1.0000
  C   C688      1.0  0.86872  0.81819  0.73595  1.0000
  C   C689      1.0  0.76354  0.50917  0.54386  1.0000
  H   H1100     1.0  0.98073  0.80941  0.73606  1.0000
  H   H1101     1.0  0.74786  0.51489  0.53522  1.0000
  C   C690      1.0  0.61702  0.50533  0.49766  1.0000
  H   H1102     1.0  0.90558  0.79401  0.73996  1.0000
  H   H1103     1.0  0.49624  0.71085  0.51288  1.0000
  H   H1104     1.0  0.63869  0.49705  0.49757  1.0000
  Fe  Fe136     1.0  0.85047  0.49673  0.61282  1.0000
  H   H1105     1.0  0.64689  0.72611  0.49475  1.0000
  H   H1106     1.0  0.84098  0.85424  0.82696  1.0000
  Fe  Fe137     1.0  0.83506  0.88076  0.75111  1.0000
  S   S278      1.0  0.81508  0.85966  0.77638  1.0000
  H   H1107     1.0  0.53458  0.74541  0.90236  1.0000
  H   H1108     1.0  0.64164  0.87304  0.76564  1.0000
  S   S279      1.0  0.85565  0.94742  0.78391  1.0000
  H   H1109     1.0  0.55664  0.77847  0.78953  1.0000
  Fe  Fe138     1.0  0.86843  0.89758  0.78098  1.0000
  S   S280      1.0  0.89880  0.88688  0.79915  1.0000
  Fe  Fe139     1.0  0.80350  0.91084  0.77736  1.0000
  S   S281      1.0  0.75457  0.91019  0.79115  1.0000
  S   S282      1.0  0.88974  0.91314  0.75558  1.0000
  S   S283      1.0  0.81958  0.92928  0.75166  1.0000
  H   H1110     1.0  0.93957  0.81800  0.76125  1.0000
  S   S284      1.0  0.55263  0.79640  0.87445  1.0000
  H   H1111     1.0  0.75395  0.84330  0.84672  1.0000
  Fe  Fe140     1.0  0.58176  0.74923  0.82415  1.0000
  S   S285      1.0  0.56237  0.72506  0.84910  1.0000
  S   S286      1.0  0.63214  0.75248  0.81088  1.0000
  H   H1112     1.0  0.86683  0.82641  0.74776  1.0000
  N   N70       1.0  0.49688  0.69253  0.89758  1.0000
  H   H1113     1.0  0.73339  0.81999  0.82159  1.0000
  H   H1114     1.0  0.75135  0.78555  0.82349  1.0000
  H   H1115     1.0  0.51519  0.82945  0.85698  1.0000
  H   H1116     1.0  0.96581  0.95854  0.77963  1.0000
  H   H1117     1.0  0.81427  0.80552  0.82678  1.0000
  C   C691      1.0  0.98047  0.85734  0.79208  1.0000
  Fe  Fe141     1.0  0.87299  0.96041  0.75804  1.0000
  C   C692      1.0  0.75748  0.81478  0.81903  1.0000
  H   H1118     1.0  0.50125  0.91942  0.97030  1.0000
  H   H1119     1.0  0.50618  0.64316  0.90224  1.0000
  H   H1120     1.0  0.77014  0.88655  0.82257  1.0000
  H   H1121     1.0  0.60865  0.85319  0.79954  1.0000
  C   C693      1.0  0.63227  0.84367  0.77070  1.0000
  C   C694      1.0  0.71966  0.86668  0.79588  1.0000
  C   C695      1.0  0.69248  0.86320  0.80755  1.0000
  C   C696      1.0  0.66529  0.82835  0.81215  1.0000
  C   C697      1.0  0.66516  0.79678  0.80508  1.0000
  C   C698      1.0  0.69200  0.80040  0.79321  1.0000
  C   C699      1.0  0.71904  0.83530  0.78853  1.0000
  H   H1122     1.0  0.69282  0.88742  0.81328  1.0000
  H   H1123     1.0  0.64499  0.82579  0.82146  1.0000
  H   H1124     1.0  0.69189  0.77612  0.78760  1.0000
  H   H1125     1.0  0.73943  0.83781  0.77927  1.0000
  C   C700      1.0  0.92730  0.86738  0.79131  1.0000
  C   C701      1.0  0.95659  0.87133  0.79860  1.0000
  C   C702      1.0  0.92129  0.84839  0.77776  1.0000
  C   C703      1.0  0.50921  0.83149  0.86937  1.0000
  H   H1126     1.0  0.89848  0.84488  0.77219  1.0000
  C   C704      1.0  0.94448  0.83313  0.77159  1.0000
  C   C705      1.0  0.57333  0.83040  0.76566  1.0000
  H   H1127     1.0  0.81538  0.90092  0.82497  1.0000
  S   S287      1.0  0.53165  0.71392  0.81547  1.0000
  Fe  Fe142     1.0  0.51083  0.69498  0.84079  1.0000
  C   C706      1.0  0.50032  0.89613  0.97844  1.0000
  H   H1128     1.0  0.79907  0.85749  0.84911  1.0000
  S   S288      1.0  0.56853  0.79899  0.82702  1.0000
  N   N71       1.0  0.59549  0.82937  0.77778  1.0000
  Fe  Fe143     1.0  0.54486  0.77194  0.85132  1.0000
  H   H1129     1.0  0.58825  0.77231  0.77554  1.0000
  C   C707      1.0  0.58454  0.79058  0.78450  1.0000
  H   H1130     1.0  0.58084  0.85922  0.76026  1.0000
  H   H1131     1.0  0.56434  0.84202  0.79624  1.0000
  H   H1132     1.0  0.76359  0.81680  0.80602  1.0000
  C   C708      1.0  0.81812  0.83398  0.82215  1.0000
  C   C709      1.0  0.79341  0.87986  0.81997  1.0000
  H   H1133     1.0  0.54544  0.81989  0.77079  1.0000
  N   N72       1.0  0.78666  0.84156  0.82613  1.0000
  H   H1134     1.0  0.80028  0.88380  0.80700  1.0000
  H   H1135     1.0  0.82539  0.83620  0.80920  1.0000
  H   H1136     1.0  0.77219  0.80904  0.84844  1.0000
  C   C710      1.0  0.51633  0.82014  0.89648  1.0000
  C   C711      1.0  0.59167  0.85268  0.79035  1.0000
  C   C712      1.0  0.77758  0.83766  0.84338  1.0000
  C   C713      1.0  0.52406  0.81734  0.88043  1.0000
  H   H1137     1.0  0.52788  0.80929  0.90505  1.0000
  Fe  Fe144     1.0  0.51714  0.76217  0.81998  1.0000
  C   C714      1.0  0.97427  0.83797  0.77864  1.0000
  H   H1138     1.0  0.59892  0.88199  0.78565  1.0000
  H   H1139     1.0  0.57523  0.81273  0.75608  1.0000
  C   C715      1.0  0.94990  0.51077  0.98807  1.0000
  H   H1140     1.0  0.52759  0.90073  0.97986  1.0000
  H   H1141     1.0  0.63618  0.82675  0.76117  1.0000
  H   H1142     1.0  0.64951  0.84287  0.77960  1.0000
  H   H1143     1.0  0.59975  0.78894  0.79409  1.0000
  C   C716      1.0  0.97531  0.98368  0.78628  1.0000
  H   H1144     1.0  0.54393  0.70619  0.90818  1.0000
  H   H1145     1.0  0.55029  0.72260  0.88772  1.0000
  H   H1146     1.0  0.49999  0.71285  0.87380  1.0000
  H   H1147     1.0  0.95955  0.97613  0.79808  1.0000
  H   H1148     1.0  0.51184  0.65879  0.88175  1.0000
  H   H1149     1.0  0.50130  0.54320  0.98391  1.0000
  H   H1150     1.0  0.96108  0.88563  0.80918  1.0000
  C   C717      1.0  0.49595  0.65605  0.89330  1.0000
  C   C718      1.0  0.94775  0.49759  0.97318  1.0000
  C   C719      1.0  0.97822  0.50244  0.96344  1.0000
  C   C720      1.0  0.53302  0.71768  0.89903  1.0000
  H   H1151     1.0  0.49830  0.71942  0.97976  1.0000
  H   H1152     1.0  0.99272  0.87385  0.74206  1.0000
