data_image0
_chemical_formula_structural       H3CHCHFeS2FeSCFeSFeS3FeSCFeS2FeSFeS3FeS2FeSFeSFeS3FeCHC2HCSHFeS2FeS2FeSFeS3FeS2FeS2FeSFeS3FeS4HSHCFeS2FeSCFeSFeS3FeHSFeS2Fe2S2FeS2FeH2SFeHS2FeHFeSFeHSFeSCSFeSFeS2FeSFeS2FeSCFeSFeS3HC7H2CHC6H4C6SH4SCHSNH3C6H4C5H2C6H2CH4CHCHC2HCH2C6H4CH2CSHC4HC2HCHC7H4C6H4C4HCH4C6H5C3H3C6H4C6H4C6H4C6H4C6H8CH3SC6H3C2H2CHS2H2C2SNH3CH2CH2C2H2CH8CFeCNCH3C2H6CHNHNHSHCHNH4FeH2CSNH4CH5NH3CHNC3H8NC4H8CH4CHSHCH13CH2SHC2H3CH4C3HCNC2HSH7CH3NC4H17CH2CH4C3HNC3H9NC4H12CH2C2HC2HCH4CHCNH6C2NH6CH3SH2CH2SC2HNCH2SNCNC4H14CH4FeSH4CSCHCH2CH2CH3CH4SH5CH3CH4CSH3CHCNCH6C2HCH2CH3CH2FeCFeS2FeSHFeSFeS3FeS2FeS2FeSFeS3FeS2FeS2FeSFeS3FeS2FeS2FeSFeS3FeS2FeSCFeSFeS3FeSFeS2FeSFeS3H3CH5SNFeS2FeS2FeHFeS3FeS2FeS2FeSFeS3FeS2FeS2FeSFeS2HFeS2FeS2FeSFeS3FeHFeS2HSFeS2CFeSFeSHCH3C6H4C6H4C3HCH5CH2C6H4C6H4C6H4C6H5C3H5CH2C2H3C4HCHCH2C6H4C6H4C6H4C4H6C6H4C6H4C6H4C6HCH2C4H2C6H4C6H5CHC2H5CHCH3CH4C2HCH2C2HCH5CH2CH4CH2CH3CH2CH4SHSHCH2CSH2CHCH2SH3CH5SHCH5C2NCH2S2CHCH3C2SH4FeH4CH5C3H3CH7CH2NC4H5NH6SH2CHNHCNCHC2HN2H2N3H3CHC2HCH2CH3NHC2H2NCH3CH3CN2C2H3CHNH3C2HCNHCH5CH2CH7CNC4H16CH2SHC2H6NH2CHSH5CHC2H3C2HNC4H13C2H5CH3CHCHC2H4CH3C2H3CH2NC4H12NSH3C2HNCHNCHCFeCHCHCHCH3C3NH3FeH2CHC3HCH2CH2NC4H10CNH4CH6C3H5C2HCH5NH2CH2C3H3SHCH3C2FeCH4CSH3CNSCSHSHCFeS2FeSCFeSFeS3FeS2FeS2FeSFeS3FeSFeS2FeHFeS3H2NFeS2FeS2FeSFeS4FeHSFeS2HSFeS2FeSFeS3FeCSFeS2FeNFeCS2FeS2FeS2FeSFeS3FeS2FeS2FeHFeS3HFe2S2FeSFeSHSFeSFeS2Fe2S2FeS2FeS2FeHFeS3C7H4C6H4CH2CHCHSC3HSHCFeHC3H5SHNH2CHC6H4CHC5H3C6H4C4H3C3H2C6H4C4H2C6H3C6H4C6H4CHC4H4CHCHC6H4C6H4C6H4CH6C6H4C6H4C6H3SCH2C2NCH3SHC7H4C5H3SHCNCH3CHCH8NCH5CHCHCHC2H2C2H2CH5CH4C2HCH8C2HNHCSNH3CHC2HC2H3NH4NH2CHCH12C2HCHCH5CHCH3CHCHCHCH6CH4CSHNC4H12NC4H12C2H3SH5CH2CH2CH2SH2FeCH3C3HCH6CHCH2CH3CNH10SCH3CNH2NC4HCHC2H4CH10C2SHC2HNH8NC4H13CHCH5CHC2H2CH7CH3CH2C2H12NHCH3CNCH2CH4SH2CHSC2HFeS2FeHFeS2FeS2FeS2FeSFeS3FeS2FeS2FeSFeS2FeS2HSHFeSFeHS2FeS2FeS2FeSFeS3FeS2FeS2FeSFeS3H3SHSCFeS2Fe2S3FeS2FeS2FeSFeS3FeSHFeSHFeSFeSHSCH2FeS2FeS2FeSFeS3FeS3FeSFeS2FeS2FeSFe2S3H2C6HNH4C6H4C6H5CHC6H4CFeHC4HC8H4C6H4CNSC3H4C6H4C2HC6H4C6H4C6H4C6H7C6H4C6H4SC6H5CH2SH4C6H4C4H2C6H3C6H4C2HC4H4SNH3CH3CNC3FeHCHNC2H5NC2H6NC4H13CH4NH2NH2C3H6N2H4NCH3C2H2CH10CH2NHCH3CSH2CH3CHSC4H4NHCHCHCHCNC4H15CH3FeNHC3H5CH5NH2C2H11C3HSH2CHC2HCH2NC4H13SCH3NH11FeSCHSH2FeH2CH2S2C2H7CHNHCH3SH3C2H2CHNH4CH3CHCHC2NH2NC4H12NC3H9C2H2C2H2CH2C2H5CH2NC3H13C4SHC3HNC2H3CHCHCH6CHC2H2SH4C2H2CHCSH9CH7CNCH2FeHCH4CHNHCH10CSH4NH2CNCH3C2H2C2H4CH6CHCHCH3CSHCH3CH6CS2FeSFeS2FeSCFeS2FeSFeS3FeSFeS2FeS4CFeS2FeS2FeSFeS3FeS2CSFeSFeS3FeSFeS2CFeS2FeS2FeSFeS3FeS2FeS2FeSFeS3FeS2FeS2FeSFeS3HFeS2FeS2FeSFeS3FeS2FeSCFeSFeS2FeSHFeS2FeSFeS3H2CHC8H4C6H4C6H4C6H4CH2C2H4C6H5C2H4C6H4C6H4C6H4C4H3CH2FeH3C2SH5C6H4C6H4C2H2C2HCH2C6H4C6H5C6H3C2H5C6H4C6H6CH2C7H6SC2HNC4H13CNH3SCH9NC4H13FeHFeC2HCH4C2SHCH2NC4H12CH3NH4CHCH2SH2CH3CH3CH2CHS2CH6C2H2CH3CH3C4H7CNC4H15CHCHCNSFeC2HCH4CHCH2NH3CH4CHCSHNHSCH2CNH3CHC2HCH2SHNC4H13NH2SCNH7SCHNC4H3CH8NHCNFeHCH4CNCH4C2NC3H5SH6NCHNC2HCHCH4NH3NHCH16C2HC2HC2H2CNHC2H3CHC2HN2H3C2H3CHCH9CH2CHCH3CHC2H2CH3NHNH4C3H2NH3CHC2H2CHFeSFeSFeSFeS2FeS2FeSHFeSFeS3FeS2FeS2FeS3FeS2FeS2FeSFeS3FeS2FeS2FeSFeS3FeS2FeS2FeSFeS3H2FeS2FeS2FeSFeS3FeS2FeS2FeSFeS3FeSFeS2Fe2S3CHSCH3FeS2FeS2FeCFeS3FeCFeS2FeS2FeS2FeS2FeSFeS3H2SC4HCH4C6H4C2H2C6H4C6H4CH3C2HCH3CH3C3HC4HC2H3C6H4C6SH3C6H4C6H6C6H4C6H4C6H4C3HCH5C6H4C6H4CH3C2HCH3C8H9C6H4C4H3C6H4C5H5CH2NC4H12NC3H2NCH3CHCH8NH4CH2NH4C3H3CSH2CHNC2SH4CH3CHNHNH2NHCHSH2CH2SHCH2CNH2C2H3C2H6C3HC2NCHCHCH3CHCNCHC3HC2HC2HCHNC4H12CH3SHSCHFeHNH3FeHNC4H18CHC3H4CN2C4H13NHCH4CH5CH2NC4H12NC4H13CH4C3H3C2H11NH4NH2C2H14CNCH2CH2NC2SH7CHNHCH2NH3CHSH8NHSHCH5CH2NH2CHSHCH3CNHC3HC2H2C4HCHCH4CH3C2H6CHCSCH4NH6NH9C3SHCS2FeS2FeS2FeSFeS3FeSFeS2FeSHS2FeSFeSFeS2FeS2FeSFeS3FeS3FeSFeS3FeS2FeS2FeSFeS3C3SCFeS2FeS2Fe2S3FeS2FeS2FeSH2SH2SFeSCFeSFeS3FeS2FeS2FeSFeCS2FeS2FeS2FeHFeS3FeSCFeS2FeSFeS3HFeSCH3C6H4C6H4C6H4C6H10C3FeHS2H6FeHC6H3CHC4H3C6H4CHC2H2CHC7H4C6H2CHC6H2C6H4C6H4C6H5C2H2C6H4C3H2C6H4C6H4C6H4CHCHCHNH2CHC3H2CH2C6H4CHCH2NH2CH3SHSHCH4CH2C2SH3CH2FeH3SHCHCH3CHCH4FeHSH3CH5C2H2CH6CHCH10SHCH4C2H2N2C4H13SNHC2H6NC2H3CH6C2NC4H12SHNC4H7CH4NC3H4CNH3C3HNC4H12NC4H12NHC2H9CH3NH4CH4SCFeH3SH2NCNH2CHNFeHC2H2CHCHCH4C3H3C3H2CH2CH5C2H4CHNH3NCH12SNH2CNHCH4CH2CHC2H7CNH4CH2FeHNCH6C3H10C2HCS2H2CH4CH4SFeS2FeSFeS2FeS2FeS2FeSFeS3HSFeSH5CH2FeS2FeS2FeSHS2FeS2FeS2FeSFeS3FeSHFeS2FeSHSHCHCHSHFeS2FeS2FeSFeS3FeS2FeS2FeSFeS3FeS2FeS2FeSFeS2FeS2FeSHFeSFeS3FeS2FeS2FeSFeS3FeS2FeS2FeSFeS3C2HCHC5H6C3HCH2SC6H4C6H6CH3CFeC3H2C6H4CHC6H4C6H4C6H4C6H3SHC3H5CHC6H4CHCHC2HCH2C6H4C6H4C6H9C4H7CH2C6H4C3HC2H4C6H3C7H5NCH2C6H3SCNH3CNH4C2FeCFeNC3H12FeCSHCH3CHSH2NC4H14SHCH6NH2NHNSCHCHC2N2C3H10NC2H4CHC2H2C2H7CNC4H14CH4NH2CH2CH2CH2CH2SC2HCH2CH2CHNCH2C2SCH6C2H2CH3CH3SHCHCSH2NC4H12NC4H12NCSH3CH3CH2CH2CNH2C3H3CH2C3H2CHC3HCH5C2HCH2CH2C2HC2HNHCH2CFeSHC3NH2NC4H13C3H5CH2CH5CH4CFeH2CH7C3H6C3H2CHSHCHFeS2FeS2FeSFeS3FeSCFeS2FeSFeS3FeS2FeS2FeSFeS3HC2H3SH4FeS2FeSHFeSHCSHFeSHFeSHFeHFeSHSFeS2FeS2FeSFeS3CSH3SCFeSFe2SFeS2FeS2FeS2FeSFeHS2C3H4FeS2HSHFeHFeSHSFeS2FeS2FeSFeS2HS2C6H5C6HCHFeC6H4C6H4C4H3CHSH5C2SH2FeC6H4CHCHCHC6H2CH5C6H4C6H6CHC7H4C5H2SH4CH3C6H4CHNH2CH3SCFeHCH2FeC6H5C6H4C6H4FeHC2H2C6H4C6H4C3H2NCH3CHSH3NC4H12C2H3NHCH4SH9C2SH2CH3CNC2HNH2NC4HCHSH2NCH5CH5CNSH2CH5NC4H12NH2CH2C2H3SHCHSHC2H4CHCHCH3NC4H15CHCHCH4C3H2C2HNSH5C2H2CHCHFeHCHCH2C2SC2H2CNC4H12CH3NC4H5CH6SHC2HNH4C2H2CH7CH3CHNHNC2H2SFeS2FeS2FeSFeS3FeS2FeS2FeSFeS3HSHFeS2FeSFeS3HFeS2CHCFeSFeS3FeSFeSFeSFeS2FeHSFeHSC2HSCH4SFeS2FeS2FeSFeS3H2FeHSFeS2FeS2FeS2FeSFeS3CFeHCFeS2FeCFeCS2H2FeS2Fe2HS2FeS2FeS2FeSFeS3FeHSH2CHCH2C6H4C6H4C6H5CH2FeHFeH2C3H4CHCH2CHC6H4C6H4C2HC3H2CHC4H9C3SH2NC3H2C2HC3HCH2C3HFeH7C6H4CH2C6H4C4H2C6H4C6H4C6H4C6H4C6SH4C2HCHC3H6CH2NSCNCHCH2CHCH4CHCSCHCHNH2FeCHNH4C2HC2H3C2H2CHCHCHCH5NCH8SH3NSH2SCHNH2CH5SHCH3CHFeHCFeCHCHCSCH2CH5NHC2NCH5CHCH5CNC3H10SH4CH2C2NCH3CNC2H2S2H3CH2CHC2NC4H12NC3NH6NC4H12CH2C3H2NC5H2CNH2C4HNC2H11CHCSH4C2HCH2SHCH6NC4H12NC4H12NC4H12C2H4CH7CH3CHCH2SHSFeHCH2CNHSH3CH4CHC2H2CNHC2HC2H2CH5CSCSHSH5FeS2FeS2FeSFeS3FeS2FeS2FeSFeS3FeS2H4FeSHS2HSC2NCHFeS2FeSFeS3HSFeSFeHSFeS2FeSCFeSFeS4FeS2FeH2FeSFeS3FeS2FeS2Fe2S3FeS2FeS2FeSFeS3HSHSHSHFeS2FeS2FeSFeHS2FeH2FeS2FeSFeS2FeS2FeS2FeHFeS2CH2NHC6H5CFeHC6H4C6H4C6H11SCH3C6H4C6H4NCH2C7H4C4HCH3C7H4C2NFeH6C6HNH2C6H4C6H5CH6C8H3SC2HC6H4C6H4C6H4C6H4C6H3C2H8C3H2NHC4H6NH3SHCHCH3FeH3CHCNC2H4CSCH2NC4H19CH5CH3SNH3CH3CHSCNC4H13CHCHCH2CH7CNC4H12SHC2NCH2CH2C4H11CH4CHCH4C3HCHNH2CH5CH2CSH2C2HSC2H6CH4NHC2HC2H2CHSNH3NCH7SNC4HCH11C5H6C3HSHCHCHCNH3CH2CHC2H5CSCH5SH2FeS2FeS2FeSFeHS2FeS2FeSFeSFeS3FeS2FeS2FeSFeS3CSFeH2CFeSHFeS2FeSFeS3FeS2FeS2FeSFeS3FeSHFeSHFeSFeS2HFeHSCFeHSFeS2FeSHFeSFeS2HFeHSFeHSFeS3FeHCH5FeS2HSHFeSFeS3FeS2FeS2FeSHSHFeS2FeS2FeSFeS3C3SHCH3CSC6H4C2SHC6H4C6H3C5HCH2CH3C6H4C2HCH3FeCHC6H4CSH2C3H3C2HNC2H4C6H8C3H2C6H5CH7C6H4C6H6CH2CH2CH2CH2C6H4CHSH2C2H3C6H4CH2C6H5CSH2CH2CHCH2C6H4C6H3NC4H12CNH4SC2H2CHSC2H3NHNC2H3CHNC4HSH3CH2CH3CHCH3CH2NHCNCH5NH6NH2SHC2HNC4H14CH4CH3SH3C2NH9C3H2SCH6CH3CH5CHCHC3HC2HCHCH2C2NHC2HC2H10SNC4H9NC4H7CH4NC4H12CHC3SH3C2HCH4SNH3CH4CH2CNCHCHCNC2H3C3SCHSH6CHCHFeS2FeSFe2S3FeS2FeS2FeHFeS3FeS2FeS2FeHFeS3FeS2FeS2FeSFeS3FeS2FeS3FeSHFeS2FeS2FeSFeCSHFeS2FeS2FeSFeS3FeS2FeSHFe2S3H2SCH2C2FeS2FeS2FeSFeS3FeS3FeSFeS3FeS2FeS2FeSFeS3HC2FeSCHC3H2C3H2C6H4C6H4C6H4C6H4SFeSNHSH2CHCSC4H3C7H4C6H4FeSCHC7H4C6H5CH2SH4C6H4C2HC4H2C6H4C6H4C6H5CH2C3HC2H2CHCSH3C6H4C6H3C2H2C6H2NC4H12NHC3HCH6SH3SH6C2H2CHC2HC2H3NCNH2C2H2NC4H13CH7CHNCHCHCNC4H12CH3CHCHCH5N2HFeH7CH6CH3NCHCNC4H12NHSH17C2H3SC2HC2SNHNH4NC4H12NC4H12CH2SHSCNH4CH3NC4H12NC4H6FeH4NC4HSH3CH2CH2NHC3HCFeHSFeCH2C3H3C2H3SCHCSH3CNH2SCH6C2HC2H6SNH2SH2FeH7CH6CHCH3CH5S2CSH3CHCHCH2CHCH2C2H5C2H7CH4C3HNSH3CH3CH5CHC4H3CH9SFeH2CHFeCHC2FeS2FeS2FeHFeS3FeS2FeSFeSFeS3FeSFeS2FeSFeS3HC2H2FeH2FeS2FeHFeS2FeS2FeS2FeSFeS3FeS2FeS2FeSFeHS2FeSHFeSHFeSFeS3FeHSFeSFeS3FeSHSC2HCHCFeS2FeS2FeSFeS2FeS2FeS2FeSFeS3FeS2FeS2FeSFeS3HC2H2C2H2C6H5C6H4C6H4C6H6CHC2HC2H5CHCH2SHC6H4C5H3SH4CSCHC6H4C6H4C6FeH3C7H4C6H6C2H5C2SH4C6H4C6H4C6H4C6H6CH4CH2C6H4C6H4NH2C6H3CNC4H13CHCH9CH5SH11CHSCH3C2HSHCHC2HNCNCHC3H3CNH2C2HNH2CH2C2H6CNHCHC2SH3C2H5NC4HC2H3SH2CH2NC4H14C3SH6SH2NH3CH5CH2CHNH3NSHSHFe2H4C2H8CHSCH2NCH2SCSHCHC2NHSHCHCH10N2C4SNCHC2H4CH4CSCH2CH3CH3NH2CH2CHC2H3SH4SH2SH3CHC2HCNC4H12CH3C2H3CHNC3HNH2CHCH9CHCH6CHCH3CH4C3HCH4CHCH9CH2C2H2CHFeS2FeS2FeSFeS2FeS2FeS2FeSFeHS2FeS2FeCH3C3H3FeS2FeS2FeSFeS3FeS2FeS2FeSFeS3FeSFeS2FeSFeS3FeS2FeS2FeCFeS4CSFeSFeS2FeSFeSFeS3CFeS2FeS2FeSFeS3FeS2FeS2FeSFeS3FeS2FeS2FeSFeHS2HC6H4C6H4C6H5C3H5CH3C5H3C3H2CH4C6H4C6H6CHC7H4C6H4C6H4C6H4C6H5FeHCHC2HC7H6SCHC2H3C2H2C2H8CHCHC8H4C6H4C6H6CHC2H2CHC3SCHCH5CH2NC4H15C3NCSC2H9C2HNCHC2H2C2H10CH4CH2CNH6CH2C2H7CH2NC4H14C4NC4H12CH3NHS2H3CNHNSNC4H14CH2CHNCNHCSNH3NH3CHC3HFeH4CNC4H16C3NCH2NSH2CH2FeH2C3SH6C2H3C2H2CH5C2H2NC2H3CNH5C3H2FeHCH3NC4H5CH2CHC2FeSH3NCH7C3HCH2CH3CHNH3C3HCHSH3CH3CHC2HCHSNCH3NH8C2H3CHCHCSCHC3H2NH2C2HCSC2HCHSCH5C3HC3HCH13CHNH7CH4NH7CHFe2S2FeS2FeSFeS3FeS2FeSFeSFeS2FeS2FeS2FeSFeS3H3CFeSFeS2FeS3FeS2FeS2FeHFeS3FeSFeS2HFeS2H3SHFeS2FeS2FeSFeS3FeSCFeSFeS2FeS2FeS2FeSFeS3HFeS2FeS2FeSFeS3FeS2FeSHFeSFeHS2FeS2FeS2FeSFeS4C4H5NHNH2CHCHC6H4C6H4C6H5C3H2C6H4C2HC4HCH2CHCHC2SH2C7H3C6H5C6H4C5H2C6H4CH2C6H4C5H2CHCH3NH4C6H4C6H4C6H4C4HCH2CNC6H4C6H6SH4NH4SH2CH4C3H3CH2CH7C2HSH2CH7NC4H14C2HCH4CNHCHC3HCH3FeH3CHCHNHNH2CH7CH5CHCH4SC2HCNHNC4H20C2H2CHC2H5CH2NHC3H4CNC4H12NC4H2CH5CHCHNC2H6SH3C2H2CHSH2CH3CH6CHCHNC4H12CNH2FeH2N2H4SH3C3H9C2H8CHCNCHCHNHFeHSH3C2H2CHNH2CHC2H6CH2SHCHCHCH5CH3C2H2N3SH3SHNC4H12NC4H8CH3CH2CHCH3C2H4C2H2CH2C2HNSH2C2H3CH2C2SH2C4H5NH3
_chemical_formula_sum              "H6144 C3840 Fe768 S1536 N384"
_cell_length_a       83.0257
_cell_length_b       83.936
_cell_length_c       84.1637
_cell_angle_alpha    74.1284
_cell_angle_beta     74.0263
_cell_angle_gamma    74.1345

_space_group_name_H-M_alt    "P 1"
_space_group_IT_number       1

loop_
  _space_group_symop_operation_xyz
  'x, y, z'

loop_
  _atom_site_type_symbol
  _atom_site_label
  _atom_site_symmetry_multiplicity
  _atom_site_fract_x
  _atom_site_fract_y
  _atom_site_fract_z
  _atom_site_occupancy
  H   H1        1.0  0.34787  0.48911  0.10698  1.0000
  H   H2        1.0  0.07615  0.34643  0.99291  1.0000
  H   H3        1.0  0.43971  0.19195  0.09375  1.0000
  C   C1        1.0  0.38341  0.09250  0.17919  1.0000
  H   H4        1.0  0.46170  0.40044  0.10475  1.0000
  C   C2        1.0  0.49250  0.40824  0.09022  1.0000
  H   H5        1.0  0.22481  0.00774  0.07546  1.0000
  Fe  Fe1       1.0  0.16224  0.08624  0.05966  1.0000
  S   S1        1.0  0.17282  0.10379  0.06785  1.0000
  S   S2        1.0  0.14179  0.07309  0.07800  1.0000
  Fe  Fe2       1.0  0.18346  0.09341  0.02348  1.0000
  S   S3        1.0  0.19504  0.11186  0.02922  1.0000
  C   C3        1.0  0.33847  0.46668  0.05779  1.0000
  Fe  Fe3       1.0  0.19828  0.09242  0.05300  1.0000
  S   S4        1.0  0.22327  0.08146  0.06184  1.0000
  Fe  Fe4       1.0  0.16839  0.12133  0.04325  1.0000
  S   S5        1.0  0.15617  0.14880  0.04370  1.0000
  S   S6        1.0  0.18806  0.07337  0.04658  1.0000
  S   S7        1.0  0.15642  0.10442  0.03572  1.0000
  Fe  Fe5       1.0  0.03303  0.20374  0.05549  1.0000
  S   S8        1.0  0.03614  0.22331  0.06735  1.0000
  C   C4        1.0  0.48090  0.13029  0.16746  1.0000
  Fe  Fe6       1.0  0.06944  0.20030  0.03388  1.0000
  S   S9        1.0  0.07559  0.21983  0.04369  1.0000
  S   S10       1.0  0.08804  0.18405  0.01640  1.0000
  Fe  Fe7       1.0  0.06217  0.20692  0.06897  1.0000
  S   S11       1.0  0.07337  0.19924  0.09203  1.0000
  Fe  Fe8       1.0  0.04914  0.23467  0.04111  1.0000
  S   S12       1.0  0.04175  0.26305  0.03137  1.0000
  S   S13       1.0  0.05807  0.18634  0.05944  1.0000
  S   S14       1.0  0.04398  0.21624  0.02892  1.0000
  Fe  Fe9       1.0  0.08400  0.10223  0.15560  1.0000
  S   S15       1.0  0.06708  0.10895  0.13716  1.0000
  S   S16       1.0  0.11217  0.10153  0.14511  1.0000
  Fe  Fe10      1.0  0.05491  0.09589  0.18617  1.0000
  S   S17       1.0  0.03590  0.10113  0.16969  1.0000
  Fe  Fe11      1.0  0.05694  0.08612  0.15290  1.0000
  S   S18       1.0  0.05571  0.06915  0.13677  1.0000
  Fe  Fe12      1.0  0.04794  0.12329  0.15543  1.0000
  S   S19       1.0  0.03136  0.14820  0.14560  1.0000
  S   S20       1.0  0.07489  0.07860  0.17057  1.0000
  S   S21       1.0  0.06578  0.11904  0.17267  1.0000
  Fe  Fe13      1.0  0.30878  0.46565  0.99607  1.0000
  C   C5        1.0  0.36888  0.41256  0.22493  1.0000
  H   H6        1.0  0.36172  0.42842  0.06984  1.0000
  C   C6        1.0  0.46016  0.33801  0.07532  1.0000
  C   C7        1.0  0.37467  0.09434  0.15354  1.0000
  H   H7        1.0  0.43127  0.24228  0.04582  1.0000
  C   C8        1.0  0.02750  0.12716  0.10265  1.0000
  S   S22       1.0  0.29192  0.02163  0.03415  1.0000
  H   H8        1.0  0.44775  0.20736  0.11828  1.0000
  Fe  Fe14      1.0  0.30652  0.11571  0.03739  1.0000
  S   S23       1.0  0.32819  0.10330  0.01899  1.0000
  S   S24       1.0  0.28024  0.12540  0.03120  1.0000
  Fe  Fe15      1.0  0.32995  0.11438  0.06036  1.0000
  S   S25       1.0  0.35325  0.10160  0.04392  1.0000
  S   S26       1.0  0.33104  0.12358  0.08288  1.0000
  Fe  Fe16      1.0  0.34327  0.12029  0.02223  1.0000
  S   S27       1.0  0.36196  0.13298  0.00063  1.0000
  Fe  Fe17      1.0  0.33593  0.08588  0.04236  1.0000
  S   S28       1.0  0.34485  0.05760  0.04477  1.0000
  S   S29       1.0  0.32101  0.13421  0.03873  1.0000
  S   S30       1.0  0.31323  0.09713  0.06071  1.0000
  Fe  Fe18      1.0  0.40571  0.15619  0.11674  1.0000
  S   S31       1.0  0.42348  0.13530  0.10486  1.0000
  S   S32       1.0  0.39809  0.18222  0.10085  1.0000
  Fe  Fe19      1.0  0.40211  0.13362  0.15243  1.0000
  S   S33       1.0  0.41997  0.11100  0.14313  1.0000
  S   S34       1.0  0.38756  0.13300  0.17959  1.0000
  Fe  Fe20      1.0  0.43586  0.12974  0.12684  1.0000
  S   S35       1.0  0.46439  0.12721  0.12126  1.0000
  Fe  Fe21      1.0  0.40566  0.11896  0.12206  1.0000
  S   S36       1.0  0.39850  0.09995  0.11218  1.0000
  S   S37       1.0  0.41910  0.15179  0.13781  1.0000
  S   S38       1.0  0.38670  0.14037  0.13239  1.0000
  Fe  Fe22      1.0  0.42219  0.21151  0.00525  1.0000
  S   S39       1.0  0.39610  0.22830  0.01075  1.0000
  S   S40       1.0  0.43820  0.19681  0.02434  1.0000
  S   S41       1.0  0.48676  0.13139  0.18555  1.0000
  S   S42       1.0  0.44302  0.34844  0.99370  1.0000
  H   H9        1.0  0.43177  0.23004  0.03118  1.0000
  S   S43       1.0  0.36399  0.20785  0.00065  1.0000
  H   H10       1.0  0.43816  0.47819  0.14706  1.0000
  C   C9        1.0  0.13318  0.00589  0.99598  1.0000
  Fe  Fe23      1.0  0.40991  0.42830  0.10735  1.0000
  S   S44       1.0  0.38843  0.41912  0.12749  1.0000
  S   S45       1.0  0.42998  0.41310  0.08992  1.0000
  Fe  Fe24      1.0  0.39843  0.46398  0.11431  1.0000
  S   S46       1.0  0.37589  0.45775  0.13480  1.0000
  C   C10       1.0  0.03722  0.35518  0.00173  1.0000
  Fe  Fe25      1.0  0.39437  0.43375  0.14318  1.0000
  S   S47       1.0  0.39867  0.42287  0.16975  1.0000
  Fe  Fe26      1.0  0.37223  0.44403  0.11697  1.0000
  S   S48       1.0  0.34632  0.44588  0.11203  1.0000
  S   S49       1.0  0.41729  0.44098  0.12374  1.0000
  S   S50       1.0  0.39343  0.45215  0.09582  1.0000
  Fe  Fe27      1.0  0.43623  0.32863  0.01676  1.0000
  H   H11       1.0  0.39203  0.30156  0.00066  1.0000
  S   S51       1.0  0.44632  0.30190  0.01292  1.0000
  Fe  Fe28      1.0  0.42145  0.35471  0.03903  1.0000
  S   S52       1.0  0.42766  0.37641  0.01769  1.0000
  S   S53       1.0  0.40732  0.35981  0.06467  1.0000
  Fe  Fe29      1.0  0.41736  0.36418  0.00310  1.0000
  Fe  Fe30      1.0  0.45256  0.35830  0.01073  1.0000
  S   S54       1.0  0.40955  0.34346  0.02485  1.0000
  S   S55       1.0  0.44731  0.33758  0.03337  1.0000
  Fe  Fe31      1.0  0.31339  0.43246  0.02148  1.0000
  S   S56       1.0  0.33064  0.45040  0.00805  1.0000
  S   S57       1.0  0.32403  0.40441  0.02427  1.0000
  Fe  Fe32      1.0  0.28229  0.46064  0.02900  1.0000
  H   H12       1.0  0.44066  0.14381  0.22682  1.0000
  H   H13       1.0  0.05756  0.00625  0.22105  1.0000
  S   S58       1.0  0.02241  0.45719  0.17101  1.0000
  Fe  Fe33      1.0  0.31785  0.46411  0.02906  1.0000
  H   H14       1.0  0.47634  0.24781  0.02799  1.0000
  S   S59       1.0  0.29220  0.44652  0.00785  1.0000
  S   S60       1.0  0.30219  0.44478  0.04386  1.0000
  Fe  Fe34      1.0  0.29615  0.99338  0.04460  1.0000
  H   H15       1.0  0.46113  0.32480  0.07436  1.0000
  Fe  Fe35      1.0  0.13839  0.45548  0.06579  1.0000
  S   S61       1.0  0.13282  0.43836  0.09139  1.0000
  Fe  Fe36      1.0  0.16762  0.45884  0.03488  1.0000
  H   H16       1.0  0.11339  0.00462  0.12675  1.0000
  S   S62       1.0  0.19518  0.44700  0.02484  1.0000
  Fe  Fe37      1.0  0.13145  0.46088  0.03096  1.0000
  S   S63       1.0  0.11523  0.45456  0.01692  1.0000
  C   C11       1.0  0.10586  0.39598  0.99470  1.0000
  S   S64       1.0  0.14957  0.44112  0.04511  1.0000
  Fe  Fe38      1.0  0.02887  0.42992  0.18397  1.0000
  S   S65       1.0  0.02650  0.42052  0.21224  1.0000
  Fe  Fe39      1.0  0.03894  0.41804  0.15054  1.0000
  S   S66       1.0  0.03303  0.44441  0.13496  1.0000
  S   S67       1.0  0.05194  0.39543  0.13887  1.0000
  Fe  Fe40      1.0  0.04634  0.45091  0.15142  1.0000
  S   S68       1.0  0.05392  0.42432  0.16564  1.0000
  Fe  Fe41      1.0  0.04384  0.37031  0.06305  1.0000
  S   S69       1.0  0.06918  0.35339  0.06710  1.0000
  S   S70       1.0  0.02283  0.38194  0.08279  1.0000
  Fe  Fe42      1.0  0.05383  0.37266  0.02525  1.0000
  S   S71       1.0  0.07999  0.35646  0.02620  1.0000
  C   C12       1.0  0.42217  0.48357  0.12911  1.0000
  Fe  Fe43      1.0  0.06640  0.33985  0.04861  1.0000
  S   S72       1.0  0.07660  0.31149  0.05083  1.0000
  Fe  Fe44      1.0  0.08045  0.37138  0.04434  1.0000
  S   S73       1.0  0.10472  0.37909  0.04338  1.0000
  S   S74       1.0  0.03993  0.35517  0.04652  1.0000
  S   S75       1.0  0.05544  0.38916  0.04145  1.0000
  H   H17       1.0  0.08250  0.43349  0.13773  1.0000
  C   C13       1.0  0.02522  0.45171  0.21798  1.0000
  C   C14       1.0  0.04321  0.39186  0.12368  1.0000
  C   C15       1.0  0.05175  0.37821  0.11587  1.0000
  C   C16       1.0  0.04556  0.37522  0.10329  1.0000
  C   C17       1.0  0.03064  0.38573  0.09856  1.0000
  C   C18       1.0  0.02191  0.39931  0.10653  1.0000
  C   C19       1.0  0.02828  0.40248  0.11898  1.0000
  H   H18       1.0  0.06321  0.36989  0.11956  1.0000
  H   H19       1.0  0.05211  0.36449  0.09758  1.0000
  C   C20       1.0  0.43015  0.27466  0.98996  1.0000
  H   H20       1.0  0.02160  0.41304  0.12499  1.0000
  C   C21       1.0  0.11193  0.43372  0.02458  1.0000
  C   C22       1.0  0.09624  0.43012  0.02504  1.0000
  C   C23       1.0  0.09361  0.41344  0.03120  1.0000
  C   C24       1.0  0.10687  0.40029  0.03641  1.0000
  C   C25       1.0  0.12256  0.40392  0.03573  1.0000
  C   C26       1.0  0.12506  0.42055  0.02988  1.0000
  H   H21       1.0  0.08602  0.44028  0.02092  1.0000
  H   H22       1.0  0.08143  0.41075  0.03180  1.0000
  H   H23       1.0  0.13289  0.39376  0.03964  1.0000
  H   H24       1.0  0.13737  0.42304  0.02905  1.0000
  C   C27       1.0  0.11375  0.44670  0.10465  1.0000
  C   C28       1.0  0.10765  0.46422  0.10283  1.0000
  C   C29       1.0  0.09275  0.47067  0.11397  1.0000
  C   C30       1.0  0.08360  0.45964  0.12658  1.0000
  C   C31       1.0  0.08947  0.44211  0.12808  1.0000
  C   C32       1.0  0.10467  0.43565  0.11732  1.0000
  S   S76       1.0  0.04878  0.38361  0.99914  1.0000
  H   H25       1.0  0.46022  0.20717  0.09710  1.0000
  H   H26       1.0  0.10933  0.42209  0.11876  1.0000
  H   H27       1.0  0.34715  0.11675  0.16644  1.0000
  H   H28       1.0  0.35466  0.11586  0.18493  1.0000
  S   S77       1.0  0.04501  0.08839  0.21471  1.0000
  C   C33       1.0  0.35876  0.11369  0.17179  1.0000
  H   H29       1.0  0.46918  0.40701  0.11962  1.0000
  S   S78       1.0  0.11878  0.47420  0.05241  1.0000
  N   N1        1.0  0.36331  0.41071  0.05488  1.0000
  H   H30       1.0  0.05105  0.15725  0.09273  1.0000
  H   H31       1.0  0.03455  0.35386  0.01524  1.0000
  H   H32       1.0  0.33221  0.48577  0.99780  1.0000
  C   C34       1.0  0.23825  0.46354  0.03634  1.0000
  C   C35       1.0  0.24208  0.45127  0.02670  1.0000
  C   C36       1.0  0.22876  0.44646  0.02306  1.0000
  C   C37       1.0  0.21157  0.45397  0.02892  1.0000
  C   C38       1.0  0.20775  0.46633  0.03845  1.0000
  C   C39       1.0  0.37753  0.15985  0.99275  1.0000
  H   H33       1.0  0.25527  0.44537  0.02219  1.0000
  H   H34       1.0  0.23180  0.43689  0.01568  1.0000
  H   H35       1.0  0.47392  0.34973  0.04306  1.0000
  H   H36       1.0  0.45683  0.22201  0.05457  1.0000
  C   C40       1.0  0.37922  0.38705  0.99625  1.0000
  C   C41       1.0  0.37166  0.37643  0.01066  1.0000
  C   C42       1.0  0.35468  0.38184  0.01906  1.0000
  C   C43       1.0  0.34529  0.39806  0.01337  1.0000
  C   C44       1.0  0.35288  0.40874  0.99900  1.0000
  H   H37       1.0  0.37871  0.36387  0.01515  1.0000
  H   H38       1.0  0.34885  0.37343  0.03006  1.0000
  C   C45       1.0  0.39192  0.43682  0.18366  1.0000
  C   C46       1.0  0.37578  0.44777  0.18488  1.0000
  C   C47       1.0  0.36978  0.45739  0.19743  1.0000
  C   C48       1.0  0.38000  0.45634  0.20861  1.0000
  C   C49       1.0  0.39639  0.44587  0.20699  1.0000
  C   C50       1.0  0.40220  0.43589  0.19474  1.0000
  H   H39       1.0  0.36765  0.44829  0.17657  1.0000
  H   H40       1.0  0.33063  0.01180  0.11782  1.0000
  C   C51       1.0  0.36933  0.41586  0.06733  1.0000
  H   H41       1.0  0.41471  0.42742  0.19382  1.0000
  H   H42       1.0  0.42295  0.47038  0.12977  1.0000
  H   H43       1.0  0.05881  0.13520  0.09178  1.0000
  H   H44       1.0  0.09972  0.99187  0.07031  1.0000
  C   C52       1.0  0.34352  0.45391  0.09109  1.0000
  H   H45       1.0  0.35810  0.02621  0.06700  1.0000
  C   C53       1.0  0.35459  0.46341  0.07904  1.0000
  H   H46       1.0  0.36490  0.46615  0.08253  1.0000
  C   C54       1.0  0.32735  0.45719  0.06980  1.0000
  C   C55       1.0  0.32983  0.45089  0.08643  1.0000
  H   H47       1.0  0.08824  0.48423  0.11274  1.0000
  C   C56       1.0  0.44052  0.28120  0.99609  1.0000
  H   H48       1.0  0.25993  0.09522  0.01700  1.0000
  H   H49       1.0  0.32109  0.44370  0.09573  1.0000
  C   C57       1.0  0.41330  0.37520  0.07111  1.0000
  C   C58       1.0  0.40298  0.38156  0.08522  1.0000
  C   C59       1.0  0.40771  0.39359  0.09082  1.0000
  C   C60       1.0  0.42297  0.39901  0.08254  1.0000
  C   C61       1.0  0.43319  0.39275  0.06837  1.0000
  C   C62       1.0  0.42830  0.38101  0.06251  1.0000
  H   H50       1.0  0.39141  0.37703  0.09195  1.0000
  H   H51       1.0  0.39978  0.39827  0.10181  1.0000
  H   H52       1.0  0.44491  0.39704  0.06194  1.0000
  H   H53       1.0  0.43628  0.37625  0.05156  1.0000
  C   C63       1.0  0.47158  0.38536  0.02230  1.0000
  H   H54       1.0  0.45847  0.38757  0.02112  1.0000
  H   H55       1.0  0.46587  0.40336  0.03815  1.0000
  C   C64       1.0  0.36972  0.40316  0.99033  1.0000
  S   S79       1.0  0.49890  0.25315  0.04725  1.0000
  H   H56       1.0  0.02024  0.14783  0.07333  1.0000
  C   C65       1.0  0.43335  0.29482  0.00423  1.0000
  C   C66       1.0  0.41592  0.30231  0.00567  1.0000
  C   C67       1.0  0.46404  0.41157  0.10789  1.0000
  C   C68       1.0  0.15328  0.43949  0.98727  1.0000
  H   H57       1.0  0.39188  0.48878  0.18809  1.0000
  C   C69       1.0  0.39809  0.12175  0.19624  1.0000
  C   C70       1.0  0.41552  0.11406  0.19300  1.0000
  H   H58       1.0  0.22250  0.10903  0.99655  1.0000
  C   C71       1.0  0.38875  0.12036  0.21306  1.0000
  H   H59       1.0  0.42284  0.11506  0.18011  1.0000
  C   C72       1.0  0.37817  0.17646  0.99258  1.0000
  C   C73       1.0  0.40924  0.18583  0.07957  1.0000
  C   C74       1.0  0.40199  0.19929  0.06782  1.0000
  C   C75       1.0  0.41067  0.20256  0.05080  1.0000
  C   C76       1.0  0.42679  0.19258  0.04549  1.0000
  C   C77       1.0  0.43422  0.17935  0.05730  1.0000
  C   C78       1.0  0.42540  0.17587  0.07426  1.0000
  H   H60       1.0  0.38959  0.20716  0.07187  1.0000
  H   H61       1.0  0.40496  0.21301  0.04195  1.0000
  H   H62       1.0  0.44673  0.17163  0.05330  1.0000
  H   H63       1.0  0.43126  0.16563  0.08320  1.0000
  C   C79       1.0  0.34965  0.11638  0.09126  1.0000
  C   C80       1.0  0.35139  0.12441  0.10309  1.0000
  C   C81       1.0  0.36644  0.11965  0.10936  1.0000
  C   C82       1.0  0.37968  0.10649  0.10416  1.0000
  C   C83       1.0  0.37778  0.09817  0.09264  1.0000
  C   C84       1.0  0.36289  0.10322  0.08605  1.0000
  H   H64       1.0  0.34114  0.13451  0.10727  1.0000
  H   H65       1.0  0.36763  0.12601  0.11837  1.0000
  H   H66       1.0  0.38793  0.08790  0.08867  1.0000
  H   H67       1.0  0.36160  0.09680  0.07710  1.0000
  C   C85       1.0  0.36366  0.18714  0.00011  1.0000
  C   C86       1.0  0.34847  0.18124  0.00751  1.0000
  C   C87       1.0  0.34789  0.16461  0.00780  1.0000
  C   C88       1.0  0.36248  0.15379  0.00065  1.0000
  H   H68       1.0  0.48257  0.17173  0.10442  1.0000
  C   C89       1.0  0.47847  0.43496  0.09835  1.0000
  H   H69       1.0  0.33714  0.18951  0.01319  1.0000
  H   H70       1.0  0.33607  0.16025  0.01343  1.0000
  H   H71       1.0  0.06114  0.43998  0.21395  1.0000
  H   H72       1.0  0.47200  0.47292  0.21911  1.0000
  C   C90       1.0  0.30663  0.03156  0.03718  1.0000
  C   C91       1.0  0.32259  0.02217  0.04032  1.0000
  C   C92       1.0  0.33440  0.03035  0.04218  1.0000
  C   C93       1.0  0.33016  0.04787  0.04138  1.0000
  C   C94       1.0  0.31411  0.05724  0.03844  1.0000
  C   C95       1.0  0.30242  0.04911  0.03618  1.0000
  H   H73       1.0  0.32601  0.00867  0.04089  1.0000
  H   H74       1.0  0.34693  0.02311  0.04402  1.0000
  H   H75       1.0  0.31072  0.07075  0.03786  1.0000
  H   H76       1.0  0.29008  0.05644  0.03381  1.0000
  H   H77       1.0  0.45444  0.13428  0.20980  1.0000
  C   C96       1.0  0.46476  0.12706  0.16914  1.0000
  C   C97       1.0  0.45972  0.12602  0.15495  1.0000
  C   C98       1.0  0.47092  0.12789  0.13910  1.0000
  H   H78       1.0  0.45611  0.12537  0.18141  1.0000
  H   H79       1.0  0.44722  0.12359  0.15631  1.0000
  H   H80       1.0  0.10866  0.40587  0.99940  1.0000
  C   C99       1.0  0.05163  0.27657  0.03644  1.0000
  C   C100      1.0  0.06769  0.27063  0.04065  1.0000
  C   C101      1.0  0.07526  0.28161  0.04477  1.0000
  C   C102      1.0  0.06678  0.29852  0.04489  1.0000
  C   C103      1.0  0.05081  0.30455  0.04046  1.0000
  C   C104      1.0  0.04335  0.29362  0.03607  1.0000
  H   H81       1.0  0.07432  0.25761  0.04065  1.0000
  H   H82       1.0  0.08773  0.27695  0.04798  1.0000
  H   H83       1.0  0.04416  0.31758  0.04049  1.0000
  H   H84       1.0  0.03096  0.29835  0.03270  1.0000
  C   C105      1.0  0.06157  0.18581  0.10793  1.0000
  C   C106      1.0  0.04392  0.18830  0.10940  1.0000
  C   C107      1.0  0.03458  0.17729  0.12179  1.0000
  C   C108      1.0  0.04298  0.16318  0.13210  1.0000
  C   C109      1.0  0.06066  0.16067  0.13065  1.0000
  C   C110      1.0  0.06985  0.17226  0.11885  1.0000
  H   H85       1.0  0.03739  0.19880  0.10111  1.0000
  H   H86       1.0  0.02086  0.17948  0.12310  1.0000
  H   H87       1.0  0.06719  0.14988  0.13869  1.0000
  H   H88       1.0  0.08342  0.17055  0.11797  1.0000
  C   C111      1.0  0.23891  0.09393  0.05406  1.0000
  C   C112      1.0  0.25579  0.08677  0.05614  1.0000
  C   C113      1.0  0.26858  0.09635  0.04939  1.0000
  C   C114      1.0  0.26453  0.11313  0.04050  1.0000
  C   C115      1.0  0.24767  0.12023  0.03841  1.0000
  C   C116      1.0  0.23489  0.11070  0.04522  1.0000
  H   H89       1.0  0.25901  0.07379  0.06294  1.0000
  H   H90       1.0  0.28156  0.09074  0.05099  1.0000
  H   H91       1.0  0.24445  0.13322  0.03162  1.0000
  H   H92       1.0  0.22189  0.11642  0.04378  1.0000
  C   C117      1.0  0.13402  0.07999  0.09724  1.0000
  C   C118      1.0  0.14466  0.08514  0.10430  1.0000
  C   C119      1.0  0.13799  0.09135  0.11922  1.0000
  C   C120      1.0  0.12073  0.09210  0.12739  1.0000
  C   C121      1.0  0.11032  0.08616  0.12078  1.0000
  C   C122      1.0  0.11688  0.08032  0.10567  1.0000
  H   H93       1.0  0.15808  0.08418  0.09838  1.0000
  H   H94       1.0  0.14622  0.09563  0.12442  1.0000
  H   H95       1.0  0.09717  0.08612  0.12724  1.0000
  H   H96       1.0  0.10855  0.07637  0.10036  1.0000
  C   C123      1.0  0.13739  0.15825  0.03578  1.0000
  C   C124      1.0  0.12753  0.17362  0.03985  1.0000
  C   C125      1.0  0.11226  0.18135  0.03419  1.0000
  C   C126      1.0  0.10698  0.17406  0.02394  1.0000
  C   C127      1.0  0.11695  0.15879  0.01962  1.0000
  C   C128      1.0  0.13204  0.15080  0.02569  1.0000
  H   H97       1.0  0.13169  0.17962  0.04742  1.0000
  H   H98       1.0  0.10484  0.19318  0.03743  1.0000
  H   H99       1.0  0.11295  0.15302  0.01175  1.0000
  H   H100      1.0  0.13967  0.13908  0.02227  1.0000
  H   H101      1.0  0.46611  0.44414  0.10131  1.0000
  H   H102      1.0  0.48150  0.30778  0.01344  1.0000
  H   H103      1.0  0.23232  0.11342  0.01098  1.0000
  H   H104      1.0  0.48722  0.44184  0.08785  1.0000
  C   C129      1.0  0.04353  0.36907  0.99092  1.0000
  H   H105      1.0  0.16761  0.41514  0.07236  1.0000
  H   H106      1.0  0.06387  0.11475  0.20934  1.0000
  H   H107      1.0  0.09559  0.02108  0.13326  1.0000
  S   S80       1.0  0.15046  0.47754  0.01863  1.0000
  C   C130      1.0  0.05047  0.01477  0.16265  1.0000
  C   C131      1.0  0.04665  0.02706  0.17235  1.0000
  C   C132      1.0  0.04869  0.04369  0.16458  1.0000
  C   C133      1.0  0.05398  0.04823  0.14699  1.0000
  C   C134      1.0  0.05758  0.03602  0.13727  1.0000
  C   C135      1.0  0.05610  0.01926  0.14510  1.0000
  H   H108      1.0  0.04196  0.02379  0.18588  1.0000
  H   H109      1.0  0.04574  0.05311  0.17211  1.0000
  H   H110      1.0  0.06132  0.03957  0.12364  1.0000
  C   C136      1.0  0.35208  0.46977  0.06246  1.0000
  C   C137      1.0  0.47573  0.39419  0.03203  1.0000
  H   H111      1.0  0.46644  0.41509  0.07466  1.0000
  H   H112      1.0  0.13450  0.15760  0.07403  1.0000
  C   C138      1.0  0.47019  0.17355  0.10080  1.0000
  H   H113      1.0  0.05308  0.45954  0.17923  1.0000
  S   S81       1.0  0.33566  0.47495  0.03692  1.0000
  S   S82       1.0  0.47953  0.36212  0.00237  1.0000
  H   H114      1.0  0.02387  0.45692  0.20508  1.0000
  H   H115      1.0  0.07992  0.44022  0.16822  1.0000
  C   C139      1.0  0.16050  0.06905  0.98772  1.0000
  C   C140      1.0  0.34521  0.40926  0.06156  1.0000
  S   S83       1.0  0.06526  0.46794  0.14072  1.0000
  N   N2        1.0  0.47696  0.34293  0.06876  1.0000
  H   H116      1.0  0.46688  0.17154  0.13386  1.0000
  H   H117      1.0  0.37327  0.38410  0.06359  1.0000
  H   H118      1.0  0.36741  0.00824  0.08148  1.0000
  C   C141      1.0  0.48324  0.34168  0.05085  1.0000
  H   H119      1.0  0.33471  0.99821  0.10333  1.0000
  H   H120      1.0  0.36990  0.38984  0.04240  1.0000
  C   C142      1.0  0.26212  0.09105  0.00496  1.0000
  H   H121      1.0  0.16400  0.07625  0.00915  1.0000
  H   H122      1.0  0.48499  0.33185  0.09236  1.0000
  C   C143      1.0  0.08509  0.45785  0.19786  1.0000
  C   C144      1.0  0.06077  0.46437  0.18505  1.0000
  H   H123      1.0  0.11428  0.01648  0.08869  1.0000
  H   H124      1.0  0.34597  0.08656  0.17512  1.0000
  C   C145      1.0  0.35731  0.08415  0.18074  1.0000
  H   H125      1.0  0.36072  0.47710  0.05321  1.0000
  H   H126      1.0  0.37039  0.48659  0.09777  1.0000
  H   H127      1.0  0.12956  0.04415  0.10617  1.0000
  H   H128      1.0  0.04738  0.99801  0.20964  1.0000
  H   H129      1.0  0.14149  0.14542  0.09288  1.0000
  H   H130      1.0  0.06394  0.31683  0.98832  1.0000
  H   H131      1.0  0.45593  0.43494  0.08061  1.0000
  H   H132      1.0  0.26934  0.09978  0.99486  1.0000
  C   C146      1.0  0.07139  0.31489  0.99809  1.0000
  Fe  Fe45      1.0  0.38950  0.21542  0.99398  1.0000
  C   C147      1.0  0.08682  0.44548  0.17452  1.0000
  N   N3        1.0  0.45586  0.23617  0.02922  1.0000
  C   C148      1.0  0.41265  0.28195  0.99169  1.0000
  H   H133      1.0  0.49155  0.31810  0.07759  1.0000
  H   H134      1.0  0.36666  0.12311  0.16428  1.0000
  H   H135      1.0  0.49564  0.32215  0.00315  1.0000
  C   C149      1.0  0.43690  0.24035  0.03270  1.0000
  C   C150      1.0  0.09831  0.04308  0.10316  1.0000
  H   H136      1.0  0.45513  0.48806  0.22895  1.0000
  H   H137      1.0  0.47155  0.18046  0.08734  1.0000
  H   H138      1.0  0.23319  0.08413  0.02708  1.0000
  H   H139      1.0  0.01035  0.40749  0.10294  1.0000
  H   H140      1.0  0.15218  0.44570  0.99778  1.0000
  H   H141      1.0  0.18307  0.41938  0.05287  1.0000
  C   C151      1.0  0.16906  0.07556  0.99600  1.0000
  H   H142      1.0  0.38305  0.41679  0.06284  1.0000
  N   N4        1.0  0.07546  0.45102  0.18984  1.0000
  H   H143      1.0  0.35209  0.00058  0.11067  1.0000
  N   N5        1.0  0.24573  0.09115  0.00112  1.0000
  H   H144      1.0  0.47595  0.10781  0.21576  1.0000
  S   S84       1.0  0.49780  0.21385  0.08632  1.0000
  H   H145      1.0  0.45044  0.34645  0.06811  1.0000
  C   C152      1.0  0.46181  0.22052  0.04125  1.0000
  H   H146      1.0  0.43740  0.17183  0.10740  1.0000
  N   N6        1.0  0.36854  0.09616  0.17132  1.0000
  H   H147      1.0  0.02058  0.17003  0.09644  1.0000
  H   H148      1.0  0.31663  0.45500  0.06642  1.0000
  H   H149      1.0  0.47727  0.43231  0.06743  1.0000
  H   H150      1.0  0.38316  0.10325  0.14616  1.0000
  Fe  Fe46      1.0  0.00971  0.44798  0.15600  1.0000
  H   H151      1.0  0.11946  0.00651  0.00241  1.0000
  H   H152      1.0  0.37961  0.48172  0.16818  1.0000
  C   C153      1.0  0.41425  0.10381  0.22334  1.0000
  S   S85       1.0  0.01449  0.42092  0.17029  1.0000
  N   N7        1.0  0.08768  0.32065  0.99062  1.0000
  H   H153      1.0  0.45743  0.20958  0.04005  1.0000
  H   H154      1.0  0.36018  0.42005  0.02920  1.0000
  H   H155      1.0  0.37525  0.12630  0.21565  1.0000
  H   H156      1.0  0.35672  0.43625  0.04075  1.0000
  C   C154      1.0  0.12224  0.02106  0.09447  1.0000
  H   H157      1.0  0.08593  0.37918  0.98836  1.0000
  H   H158      1.0  0.11530  0.04112  0.12657  1.0000
  H   H159      1.0  0.48549  0.32841  0.04933  1.0000
  H   H160      1.0  0.09624  0.44808  0.20172  1.0000
  H   H161      1.0  0.31847  0.39451  0.99091  1.0000
  N   N8        1.0  0.45580  0.18282  0.11195  1.0000
  H   H162      1.0  0.45130  0.42018  0.11079  1.0000
  H   H163      1.0  0.39241  0.10098  0.17207  1.0000
  H   H164      1.0  0.07986  0.42576  0.20526  1.0000
  C   C155      1.0  0.33986  0.00753  0.10666  1.0000
  H   H165      1.0  0.46829  0.16070  0.10153  1.0000
  N   N9        1.0  0.11783  0.14145  0.09045  1.0000
  C   C156      1.0  0.10290  0.15126  0.08306  1.0000
  C   C157      1.0  0.11202  0.13507  0.10880  1.0000
  C   C158      1.0  0.12655  0.12696  0.08223  1.0000
  H   H166      1.0  0.09335  0.14342  0.08525  1.0000
  H   H167      1.0  0.09631  0.16260  0.08860  1.0000
  H   H168      1.0  0.10687  0.15590  0.06914  1.0000
  H   H169      1.0  0.10311  0.12641  0.11145  1.0000
  H   H170      1.0  0.10526  0.14555  0.11549  1.0000
  H   H171      1.0  0.13815  0.11961  0.08718  1.0000
  H   H172      1.0  0.13085  0.13123  0.06830  1.0000
  H   H173      1.0  0.11804  0.11801  0.08444  1.0000
  N   N10       1.0  0.23887  0.02698  0.06090  1.0000
  C   C159      1.0  0.24653  0.01817  0.04671  1.0000
  C   C160      1.0  0.25142  0.03546  0.06291  1.0000
  C   C161      1.0  0.23412  0.01450  0.07663  1.0000
  C   C162      1.0  0.22335  0.03980  0.05736  1.0000
  H   H174      1.0  0.23752  0.01140  0.04497  1.0000
  H   H175      1.0  0.25832  0.00851  0.04895  1.0000
  H   H176      1.0  0.25032  0.02715  0.03461  1.0000
  H   H177      1.0  0.26324  0.02615  0.06583  1.0000
  H   H178      1.0  0.25555  0.04471  0.05114  1.0000
  H   H179      1.0  0.24592  0.04260  0.07325  1.0000
  H   H180      1.0  0.22824  0.02069  0.08762  1.0000
  H   H181      1.0  0.24549  0.00460  0.07972  1.0000
  C   C163      1.0  0.23507  0.10856  0.99925  1.0000
  H   H182      1.0  0.21715  0.04656  0.06794  1.0000
  H   H183      1.0  0.21366  0.03394  0.05554  1.0000
  H   H184      1.0  0.22647  0.04965  0.04579  1.0000
  H   H185      1.0  0.07778  0.25356  0.07326  1.0000
  C   C164      1.0  0.46209  0.25028  0.03119  1.0000
  H   H186      1.0  0.06102  0.43144  0.19669  1.0000
  S   S86       1.0  0.25455  0.46961  0.04156  1.0000
  H   H187      1.0  0.45250  0.16049  0.13127  1.0000
  C   C165      1.0  0.05809  0.11157  0.22265  1.0000
  H   H188      1.0  0.37939  0.09451  0.19239  1.0000
  H   H189      1.0  0.09003  0.46889  0.18908  1.0000
  H   H190      1.0  0.11461  0.47282  0.09309  1.0000
  H   H191      1.0  0.03767  0.11691  0.09759  1.0000
  H   H192      1.0  0.43608  0.47748  0.19892  1.0000
  H   H193      1.0  0.04168  0.25388  0.00067  1.0000
  H   H194      1.0  0.04866  0.27373  0.07453  1.0000
  H   H195      1.0  0.47700  0.23042  0.00868  1.0000
  H   H196      1.0  0.11301  0.03626  0.98771  1.0000
  H   H197      1.0  0.43001  0.99032  0.18813  1.0000
  H   H198      1.0  0.09047  0.04950  0.11366  1.0000
  H   H199      1.0  0.47608  0.21708  0.03894  1.0000
  H   H200      1.0  0.45845  0.24492  0.00231  1.0000
  C   C166      1.0  0.49203  0.13243  0.15155  1.0000
  H   H201      1.0  0.10966  0.32155  0.99896  1.0000
  H   H202      1.0  0.12303  0.12782  0.11477  1.0000
  S   S87       1.0  0.49703  0.40083  0.04786  1.0000
  H   H203      1.0  0.25706  0.07216  0.98624  1.0000
  C   C167      1.0  0.46401  0.48600  0.21675  1.0000
  C   C168      1.0  0.46856  0.42595  0.07845  1.0000
  H   H204      1.0  0.14881  0.06480  0.99454  1.0000
  H   H205      1.0  0.38225  0.08135  0.15252  1.0000
  H   H206      1.0  0.33679  0.42156  0.06406  1.0000
  C   C169      1.0  0.48445  0.37384  0.01403  1.0000
  H   H207      1.0  0.45741  0.26245  0.02278  1.0000
  H   H208      1.0  0.46986  0.36220  0.08336  1.0000
  H   H209      1.0  0.35698  0.46527  0.19876  1.0000
  H   H210      1.0  0.45843  0.22277  0.00991  1.0000
  C   C170      1.0  0.07615  0.41013  0.99573  1.0000
  C   C171      1.0  0.48707  0.13112  0.13737  1.0000
  C   C172      1.0  0.05096  0.28414  0.98755  1.0000
  H   H211      1.0  0.34368  0.39964  0.07365  1.0000
  C   C173      1.0  0.01777  0.15715  0.10191  1.0000
  N   N11       1.0  0.34257  0.02194  0.09221  1.0000
  C   C174      1.0  0.35510  0.01559  0.07785  1.0000
  C   C175      1.0  0.32608  0.03055  0.08716  1.0000
  H   H212      1.0  0.06702  0.00479  0.19935  1.0000
  S   S88       1.0  0.37181  0.46812  0.22456  1.0000
  H   H213      1.0  0.05206  0.46913  0.19621  1.0000
  H   H214      1.0  0.02647  0.12429  0.11660  1.0000
  H   H215      1.0  0.12873  0.03039  0.08435  1.0000
  H   H216      1.0  0.42829  0.19079  0.11539  1.0000
  H   H217      1.0  0.10023  0.30352  0.00998  1.0000
  H   H218      1.0  0.40451  0.44525  0.21531  1.0000
  H   H219      1.0  0.34017  0.03919  0.10791  1.0000
  C   C176      1.0  0.48942  0.33148  0.07870  1.0000
  H   H220      1.0  0.47809  0.32273  0.99425  1.0000
  H   H221      1.0  0.19458  0.47233  0.04288  1.0000
  H   H222      1.0  0.02916  0.33233  0.00350  1.0000
  N   N12       1.0  0.08028  0.41921  0.08542  1.0000
  C   C177      1.0  0.07221  0.42223  0.10264  1.0000
  C   C178      1.0  0.09891  0.41833  0.08200  1.0000
  C   C179      1.0  0.07260  0.43327  0.07292  1.0000
  C   C180      1.0  0.07733  0.40306  0.08412  1.0000
  H   H223      1.0  0.05818  0.42268  0.10578  1.0000
  H   H224      1.0  0.07394  0.43443  0.10406  1.0000
  H   H225      1.0  0.07779  0.41195  0.11244  1.0000
  H   H226      1.0  0.10510  0.40791  0.09127  1.0000
  H   H227      1.0  0.10541  0.41602  0.06911  1.0000
  H   H228      1.0  0.10160  0.43034  0.08284  1.0000
  H   H229      1.0  0.07836  0.43136  0.05979  1.0000
  H   H230      1.0  0.07463  0.44565  0.07352  1.0000
  H   H231      1.0  0.05852  0.43431  0.07518  1.0000
  H   H232      1.0  0.08362  0.40008  0.07144  1.0000
  H   H233      1.0  0.06339  0.40347  0.08618  1.0000
  H   H234      1.0  0.08245  0.39222  0.09375  1.0000
  H   H235      1.0  0.36428  0.07080  0.18060  1.0000
  H   H236      1.0  0.48258  0.28398  0.00054  1.0000
  H   H237      1.0  0.05855  0.27585  0.99692  1.0000
  H   H238      1.0  0.34026  0.40541  0.05245  1.0000
  H   H239      1.0  0.35250  0.08525  0.19421  1.0000
  C   C181      1.0  0.12991  0.15249  0.08773  1.0000
  H   H240      1.0  0.12382  0.16350  0.09387  1.0000
  H   H241      1.0  0.21519  0.40081  0.06660  1.0000
  C   C182      1.0  0.23651  0.07970  0.01509  1.0000
  H   H242      1.0  0.03966  0.29216  0.99452  1.0000
  H   H243      1.0  0.35145  0.04507  0.08640  1.0000
  H   H244      1.0  0.21802  0.48050  0.04970  1.0000
  H   H245      1.0  0.47046  0.19908  0.11465  1.0000
  C   C183      1.0  0.49256  0.39098  0.03414  1.0000
  C   C184      1.0  0.10362  0.01576  0.12215  1.0000
  C   C185      1.0  0.39679  0.11140  0.22659  1.0000
  H   H246      1.0  0.49087  0.39694  0.08685  1.0000
  N   N13       1.0  0.19166  0.41778  0.07523  1.0000
  C   C186      1.0  0.18959  0.40813  0.09296  1.0000
  C   C187      1.0  0.18544  0.43607  0.07500  1.0000
  C   C188      1.0  0.20996  0.41452  0.06656  1.0000
  H   H247      1.0  0.19701  0.41184  0.10003  1.0000
  H   H248      1.0  0.19409  0.39424  0.09364  1.0000
  H   H249      1.0  0.17586  0.41045  0.09976  1.0000
  H   H250      1.0  0.18688  0.44364  0.06180  1.0000
  H   H251      1.0  0.17161  0.43905  0.08132  1.0000
  H   H252      1.0  0.19276  0.44060  0.08151  1.0000
  H   H253      1.0  0.21183  0.42152  0.05308  1.0000
  H   H254      1.0  0.13895  0.99256  0.99474  1.0000
  H   H255      1.0  0.21794  0.41872  0.07265  1.0000
  N   N14       1.0  0.36925  0.15615  0.05421  1.0000
  C   C189      1.0  0.35519  0.16310  0.06729  1.0000
  C   C190      1.0  0.36280  0.14615  0.04627  1.0000
  C   C191      1.0  0.38344  0.14510  0.06212  1.0000
  C   C192      1.0  0.37552  0.17028  0.04121  1.0000
  H   H256      1.0  0.35970  0.17021  0.07401  1.0000
  H   H257      1.0  0.34970  0.15283  0.07692  1.0000
  H   H258      1.0  0.34446  0.17185  0.06169  1.0000
  H   H259      1.0  0.35874  0.13492  0.05557  1.0000
  H   H260      1.0  0.35142  0.15381  0.04111  1.0000
  H   H261      1.0  0.37273  0.14140  0.03571  1.0000
  H   H262      1.0  0.39422  0.13955  0.05264  1.0000
  H   H263      1.0  0.37910  0.13437  0.07206  1.0000
  H   H264      1.0  0.38862  0.15220  0.06829  1.0000
  H   H265      1.0  0.38580  0.16558  0.03085  1.0000
  H   H266      1.0  0.38083  0.17787  0.04672  1.0000
  H   H267      1.0  0.36502  0.17911  0.03531  1.0000
  C   C193      1.0  0.43961  0.18447  0.10690  1.0000
  H   H268      1.0  0.01619  0.15472  0.11588  1.0000
  H   H269      1.0  0.02324  0.27073  0.99863  1.0000
  C   C194      1.0  0.22105  0.47101  0.04224  1.0000
  C   C195      1.0  0.47506  0.36059  0.07009  1.0000
  H   H270      1.0  0.41031  0.31275  0.01205  1.0000
  C   C196      1.0  0.04829  0.09915  0.22860  1.0000
  C   C197      1.0  0.46273  0.23347  0.01176  1.0000
  H   H271      1.0  0.10403  0.05277  0.09283  1.0000
  C   C198      1.0  0.44343  0.47601  0.20867  1.0000
  H   H272      1.0  0.44409  0.17990  0.13852  1.0000
  H   H273      1.0  0.00031  0.44860  0.12440  1.0000
  H   H274      1.0  0.31937  0.42447  0.98652  1.0000
  H   H275      1.0  0.10194  0.38607  0.00596  1.0000
  C   C199      1.0  0.45477  0.17333  0.12968  1.0000
  H   H276      1.0  0.09517  0.01085  0.11726  1.0000
  C   C200      1.0  0.03267  0.14751  0.07619  1.0000
  N   N15       1.0  0.11175  0.02865  0.10895  1.0000
  H   H277      1.0  0.34578  0.42119  0.99435  1.0000
  H   H278      1.0  0.46618  0.36959  0.06229  1.0000
  H   H279      1.0  0.47993  0.13470  0.21956  1.0000
  H   H280      1.0  0.09150  0.45627  0.16494  1.0000
  H   H281      1.0  0.22424  0.07916  0.01251  1.0000
  H   H282      1.0  0.45496  0.33882  0.08883  1.0000
  C   C201      1.0  0.06055  0.11987  0.23396  1.0000
  C   C202      1.0  0.04805  0.14442  0.09775  1.0000
  N   N16       1.0  0.03150  0.14405  0.09461  1.0000
  H   H283      1.0  0.08938  0.03889  0.09823  1.0000
  H   H284      1.0  0.43198  0.25216  0.02390  1.0000
  H   H285      1.0  0.32750  0.04193  0.07679  1.0000
  H   H286      1.0  0.49659  0.46742  0.23303  1.0000
  H   H287      1.0  0.13954  0.00884  0.00458  1.0000
  H   H288      1.0  0.32107  0.02204  0.08252  1.0000
  C   C203      1.0  0.45864  0.19986  0.11043  1.0000
  H   H289      1.0  0.04270  0.13778  0.07020  1.0000
  H   H290      1.0  0.38984  0.18098  0.98655  1.0000
  H   H291      1.0  0.39084  0.07924  0.17948  1.0000
  S   S89       1.0  0.15797  0.47172  0.05683  1.0000
  H   H292      1.0  0.45944  0.09781  0.23008  1.0000
  H   H293      1.0  0.06822  0.12942  0.22919  1.0000
  C   C204      1.0  0.12285  0.03476  0.11597  1.0000
  H   H294      1.0  0.00594  0.21923  0.03570  1.0000
  H   H295      1.0  0.13290  0.02417  0.12085  1.0000
  S   S90       1.0  0.41492  0.19726  0.99027  1.0000
  C   C205      1.0  0.40559  0.29592  0.99932  1.0000
  C   C206      1.0  0.06913  0.43642  0.20194  1.0000
  H   H296      1.0  0.13239  0.01001  0.09843  1.0000
  N   N17       1.0  0.47588  0.42020  0.09374  1.0000
  C   C207      1.0  0.34927  0.03407  0.09712  1.0000
  H   H297      1.0  0.37921  0.41014  0.21362  1.0000
  H   H298      1.0  0.48428  0.43101  0.10966  1.0000
  S   S91       1.0  0.00983  0.19188  0.06505  1.0000
  N   N18       1.0  0.45976  0.12183  0.23436  1.0000
  C   C208      1.0  0.48885  0.29123  0.98828  1.0000
  N   N19       1.0  0.05522  0.25099  0.09300  1.0000
  C   C209      1.0  0.05978  0.26035  0.10309  1.0000
  C   C210      1.0  0.04318  0.26277  0.08275  1.0000
  C   C211      1.0  0.04705  0.23721  0.10446  1.0000
  C   C212      1.0  0.07094  0.24363  0.08171  1.0000
  H   H299      1.0  0.06890  0.25185  0.11094  1.0000
  H   H300      1.0  0.04823  0.26610  0.11176  1.0000
  H   H301      1.0  0.06600  0.27085  0.09479  1.0000
  H   H302      1.0  0.04009  0.25639  0.07430  1.0000
  H   H303      1.0  0.03088  0.26802  0.09086  1.0000
  H   H304      1.0  0.24156  0.11756  0.98875  1.0000
  H   H305      1.0  0.04346  0.22990  0.09724  1.0000
  H   H306      1.0  0.03520  0.24219  0.11329  1.0000
  H   H307      1.0  0.05590  0.22792  0.11218  1.0000
  H   H308      1.0  0.06793  0.23687  0.07358  1.0000
  H   H309      1.0  0.08005  0.23420  0.08904  1.0000
  H   H310      1.0  0.07193  0.40011  0.00662  1.0000
  H   H311      1.0  0.08979  0.32394  0.01436  1.0000
  H   H312      1.0  0.04783  0.14103  0.11154  1.0000
  C   C213      1.0  0.44766  0.13150  0.22331  1.0000
  H   H313      1.0  0.37815  0.42500  0.03340  1.0000
  H   H314      1.0  0.09816  0.43550  0.17752  1.0000
  H   H315      1.0  0.38778  0.39469  0.04681  1.0000
  H   H316      1.0  0.01264  0.09579  0.20576  1.0000
  Fe  Fe47      1.0  0.40584  0.24591  0.98677  1.0000
  S   S92       1.0  0.29725  0.48102  0.01591  1.0000
  H   H317      1.0  0.05875  0.00997  0.13751  1.0000
  H   H318      1.0  0.14259  0.43267  0.99113  1.0000
  H   H319      1.0  0.08098  0.16211  0.99467  1.0000
  H   H320      1.0  0.36389  0.09710  0.14705  1.0000
  C   C214      1.0  0.18156  0.41249  0.06637  1.0000
  S   S93       1.0  0.19554  0.08896  0.99712  1.0000
  C   C215      1.0  0.42357  0.10519  0.20651  1.0000
  H   H321      1.0  0.31613  0.03493  0.09788  1.0000
  C   C216      1.0  0.03407  0.34304  0.99505  1.0000
  H   H322      1.0  0.06505  0.47538  0.17553  1.0000
  H   H323      1.0  0.35832  0.40667  0.22515  1.0000
  C   C217      1.0  0.37400  0.39414  0.05176  1.0000
  H   H324      1.0  0.45412  0.27580  0.99442  1.0000
  H   H325      1.0  0.18570  0.39869  0.06648  1.0000
  C   C218      1.0  0.02619  0.43440  0.22477  1.0000
  H   H326      1.0  0.36825  0.40656  0.07968  1.0000
  H   H327      1.0  0.43711  0.09939  0.20390  1.0000
  H   H328      1.0  0.45769  0.25227  0.04438  1.0000
  C   C219      1.0  0.36467  0.42358  0.03884  1.0000
  H   H329      1.0  0.27056  0.07814  0.00640  1.0000
  H   H330      1.0  0.01510  0.12639  0.10053  1.0000
  H   H331      1.0  0.45112  0.46277  0.21072  1.0000
  H   H332      1.0  0.48757  0.36462  0.06554  1.0000
  S   S94       1.0  0.04778  0.99404  0.17271  1.0000
  H   H333      1.0  0.39262  0.38414  0.23221  1.0000
  H   H334      1.0  0.03587  0.16010  0.06981  1.0000
  H   H335      1.0  0.01460  0.07355  0.23192  1.0000
  H   H336      1.0  0.07745  0.42049  0.00087  1.0000
  H   H337      1.0  0.36175  0.02796  0.10092  1.0000
  C   C220      1.0  0.46685  0.48597  0.18743  1.0000
  H   H338      1.0  0.24436  0.06657  0.01725  1.0000
  H   H339      1.0  0.35010  0.00710  0.07321  1.0000
  H   H340      1.0  0.02562  0.47568  0.22248  1.0000
  C   C221      1.0  0.46868  0.10563  0.22914  1.0000
  H   H341      1.0  0.07681  0.46220  0.20944  1.0000
  H   H342      1.0  0.00814  0.10379  0.23292  1.0000
  H   H343      1.0  0.00519  0.15764  0.09930  1.0000
  H   H344      1.0  0.47524  0.47302  0.18886  1.0000
  C   C222      1.0  0.09732  0.31727  0.00400  1.0000
  S   S95       1.0  0.12946  0.99328  0.04332  1.0000
  H   H345      1.0  0.49553  0.34597  0.04532  1.0000
  H   H346      1.0  0.36386  0.42653  0.22291  1.0000
  H   H347      1.0  0.43792  0.12429  0.22413  1.0000
  C   C223      1.0  0.48817  0.31413  0.00086  1.0000
  H   H348      1.0  0.06313  0.32206  0.00783  1.0000
  C   C224      1.0  0.02619  0.46231  0.22787  1.0000
  N   N20       1.0  0.45453  0.48845  0.20345  1.0000
  C   C225      1.0  0.06001  0.99830  0.21166  1.0000
  H   H349      1.0  0.46020  0.48775  0.17704  1.0000
  H   H350      1.0  0.13312  0.03943  0.98910  1.0000
  H   H351      1.0  0.16557  0.42987  0.98633  1.0000
  H   H352      1.0  0.29141  0.41617  0.99374  1.0000
  H   H353      1.0  0.39989  0.41209  0.22849  1.0000
  H   H354      1.0  0.07054  0.18372  0.98832  1.0000
  C   C226      1.0  0.00056  0.07436  0.23402  1.0000
  C   C227      1.0  0.43076  0.48801  0.13892  1.0000
  H   H355      1.0  0.49866  0.40375  0.10133  1.0000
  C   C228      1.0  0.47249  0.13182  0.23282  1.0000
  H   H356      1.0  0.43404  0.47750  0.22079  1.0000
  H   H357      1.0  0.49569  0.13270  0.12508  1.0000
  C   C229      1.0  0.03457  0.26311  0.99132  1.0000
  H   H358      1.0  0.07358  0.30120  0.00437  1.0000
  H   H359      1.0  0.40407  0.99742  0.21051  1.0000
  H   H360      1.0  0.06558  0.41524  0.98873  1.0000
  C   C230      1.0  0.18421  0.08104  0.98724  1.0000
  H   H361      1.0  0.11805  0.39001  0.98697  1.0000
  H   H362      1.0  0.38878  0.15161  0.98693  1.0000
  Fe  Fe48      1.0  0.13939  0.48929  0.04141  1.0000
  C   C231      1.0  0.34099  0.09371  0.46096  1.0000
  Fe  Fe49      1.0  0.05876  0.09829  0.32551  1.0000
  S   S96       1.0  0.06369  0.12360  0.31019  1.0000
  S   S97       1.0  0.07929  0.07729  0.33563  1.0000
  Fe  Fe50      1.0  0.02121  0.10785  0.32319  1.0000
  S   S98       1.0  0.02335  0.13374  0.30761  1.0000
  H   H363      1.0  0.32197  0.47594  0.42125  1.0000
  Fe  Fe51      1.0  0.04818  0.12032  0.29351  1.0000
  S   S99       1.0  0.05730  0.12635  0.26499  1.0000
  Fe  Fe52      1.0  0.03840  0.13414  0.32595  1.0000
  S   S100      1.0  0.03007  0.15529  0.34011  1.0000
  S   S101      1.0  0.04494  0.09426  0.30786  1.0000
  S   S102      1.0  0.03459  0.10902  0.34245  1.0000
  Fe  Fe53      1.0  0.04410  0.19866  0.42196  1.0000
  S   S103      1.0  0.07007  0.20237  0.40631  1.0000
  S   S104      1.0  0.02202  0.22154  0.42362  1.0000
  Fe  Fe54      1.0  0.05757  0.16056  0.43420  1.0000
  S   S105      1.0  0.08422  0.16220  0.42003  1.0000
  S   S106      1.0  0.05431  0.13483  0.44967  1.0000
  Fe  Fe55      1.0  0.07933  0.18593  0.42944  1.0000
  S   S107      1.0  0.09799  0.19001  0.44234  1.0000
  Fe  Fe56      1.0  0.07150  0.17809  0.39889  1.0000
  S   S108      1.0  0.08268  0.16982  0.37397  1.0000
  S   S109      1.0  0.05333  0.18307  0.44531  1.0000
  S   S110      1.0  0.04483  0.17549  0.41283  1.0000
  Fe  Fe57      1.0  0.14818  0.04555  0.41590  1.0000
  S   S111      1.0  0.15971  0.05786  0.38943  1.0000
  S   S112      1.0  0.14826  0.01777  0.42657  1.0000
  Fe  Fe58      1.0  0.14030  0.07764  0.42893  1.0000
  S   S113      1.0  0.15151  0.09266  0.40391  1.0000
  S   S114      1.0  0.12778  0.08781  0.45248  1.0000
  Fe  Fe59      1.0  0.13750  0.07990  0.39333  1.0000
  S   S115      1.0  0.12282  0.09852  0.37449  1.0000
  Fe  Fe60      1.0  0.17278  0.06957  0.40210  1.0000
  S   S116      1.0  0.20095  0.06942  0.39113  1.0000
  S   S117      1.0  0.12471  0.06651  0.41870  1.0000
  S   S118      1.0  0.16283  0.05567  0.42827  1.0000
  Fe  Fe61      1.0  0.41518  0.30731  0.38217  1.0000
  S   S119      1.0  0.43337  0.32295  0.38185  1.0000
  S   S120      1.0  0.42805  0.28091  0.37765  1.0000
  Fe  Fe62      1.0  0.38411  0.33445  0.39243  1.0000
  S   S121      1.0  0.39965  0.35195  0.39349  1.0000
  S   S122      1.0  0.35534  0.34147  0.39697  1.0000
  Fe  Fe63      1.0  0.41578  0.34513  0.36916  1.0000
  S   S123      1.0  0.42641  0.36632  0.34979  1.0000
  Fe  Fe64      1.0  0.41586  0.32839  0.40603  1.0000
  S   S124      1.0  0.42794  0.32468  0.42799  1.0000
  S   S125      1.0  0.39910  0.32911  0.36703  1.0000
  S   S126      1.0  0.39875  0.31129  0.40738  1.0000
  Fe  Fe65      1.0  0.29352  0.42310  0.41032  1.0000
  S   S127      1.0  0.27944  0.41293  0.39738  1.0000
  S   S128      1.0  0.31456  0.40796  0.42416  1.0000
  Fe  Fe66      1.0  0.27569  0.45958  0.39801  1.0000
  S   S129      1.0  0.26073  0.45243  0.38360  1.0000
  C   C232      1.0  0.36440  0.21194  0.33358  1.0000
  Fe  Fe67      1.0  0.25604  0.43187  0.40678  1.0000
  S   S130      1.0  0.22970  0.42763  0.42175  1.0000
  Fe  Fe68      1.0  0.28558  0.43450  0.37563  1.0000
  S   S131      1.0  0.29833  0.42959  0.34962  1.0000
  S   S132      1.0  0.26973  0.44022  0.42167  1.0000
  S   S133      1.0  0.30089  0.44358  0.38811  1.0000
  Fe  Fe69      1.0  0.38212  0.45919  0.24857  1.0000
  S   S134      1.0  0.38530  0.47793  0.26152  1.0000
  Fe  Fe70      1.0  0.39266  0.42907  0.27654  1.0000
  S   S135      1.0  0.39740  0.44532  0.29125  1.0000
  S   S136      1.0  0.39301  0.40112  0.28608  1.0000
  Fe  Fe71      1.0  0.37269  0.46232  0.28568  1.0000
  S   S137      1.0  0.35353  0.47332  0.30690  1.0000
  Fe  Fe72      1.0  0.40960  0.45925  0.26586  1.0000
  S   S138      1.0  0.43449  0.46812  0.25818  1.0000
  S   S139      1.0  0.36722  0.44534  0.27230  1.0000
  S   S140      1.0  0.40724  0.44133  0.25148  1.0000
  H   H364      1.0  0.49621  0.15660  0.34470  1.0000
  H   H365      1.0  0.47016  0.31719  0.41416  1.0000
  H   H366      1.0  0.47328  0.37327  0.45659  1.0000
  C   C233      1.0  0.49197  0.41095  0.31029  1.0000
  H   H367      1.0  0.00490  0.35081  0.34953  1.0000
  H   H368      1.0  0.48244  0.41361  0.37207  1.0000
  H   H369      1.0  0.30255  0.46807  0.40825  1.0000
  H   H370      1.0  0.45701  0.05287  0.35173  1.0000
  H   H371      1.0  0.26534  0.06625  0.46750  1.0000
  S   S141      1.0  0.47771  0.21390  0.41135  1.0000
  N   N21       1.0  0.11856  0.14129  0.46786  1.0000
  Fe  Fe73      1.0  0.41622  0.09344  0.30087  1.0000
  S   S142      1.0  0.39919  0.10864  0.28302  1.0000
  S   S143      1.0  0.42983  0.10271  0.31523  1.0000
  Fe  Fe74      1.0  0.41085  0.05954  0.29849  1.0000
  S   S144      1.0  0.39296  0.07182  0.28073  1.0000
  S   S145      1.0  0.41821  0.03166  0.31007  1.0000
  Fe  Fe75      1.0  0.41185  0.08867  0.26760  1.0000
  H   H372      1.0  0.09729  0.48378  0.39666  1.0000
  Fe  Fe76      1.0  0.38183  0.09059  0.29768  1.0000
  S   S146      1.0  0.35395  0.10106  0.30780  1.0000
  S   S147      1.0  0.43057  0.07492  0.28435  1.0000
  S   S148      1.0  0.39809  0.07689  0.31651  1.0000
  Fe  Fe77      1.0  0.39517  0.20150  0.38261  1.0000
  S   S149      1.0  0.40252  0.18108  0.40455  1.0000
  S   S150      1.0  0.38275  0.22860  0.38453  1.0000
  Fe  Fe78      1.0  0.40235  0.17637  0.35985  1.0000
  S   S151      1.0  0.41068  0.15405  0.37975  1.0000
  S   S152      1.0  0.39854  0.17447  0.33494  1.0000
  Fe  Fe79      1.0  0.38801  0.16597  0.39749  1.0000
  S   S153      1.0  0.37080  0.14976  0.41659  1.0000
  Fe  Fe80      1.0  0.42442  0.17121  0.38473  1.0000
  S   S154      1.0  0.45159  0.16191  0.38785  1.0000
  S   S155      1.0  0.37872  0.18726  0.37731  1.0000
  S   S156      1.0  0.41814  0.19269  0.36316  1.0000
  Fe  Fe81      1.0  0.27158  0.09619  0.41540  1.0000
  S   S157      1.0  0.28807  0.07035  0.42183  1.0000
  S   S158      1.0  0.24280  0.09950  0.42438  1.0000
  Fe  Fe82      1.0  0.30261  0.11289  0.40303  1.0000
  S   S159      1.0  0.32125  0.08840  0.40931  1.0000
  S   S160      1.0  0.31234  0.13669  0.38986  1.0000
  Fe  Fe83      1.0  0.30621  0.07832  0.39735  1.0000
  S   S161      1.0  0.32121  0.06087  0.37973  1.0000
  Fe  Fe84      1.0  0.30128  0.08312  0.43307  1.0000
  S   S162      1.0  0.28842  0.10313  0.38976  1.0000
  S   S163      1.0  0.28396  0.10867  0.42790  1.0000
  H   H373      1.0  0.47128  0.00552  0.28104  1.0000
  Fe  Fe85      1.0  0.10849  0.44545  0.39136  1.0000
  S   S164      1.0  0.12944  0.42493  0.38173  1.0000
  S   S165      1.0  0.09022  0.46400  0.37597  1.0000
  Fe  Fe86      1.0  0.11543  0.43308  0.42688  1.0000
  S   S166      1.0  0.13687  0.41151  0.41990  1.0000
  S   S167      1.0  0.10588  0.43426  0.45432  1.0000
  Fe  Fe87      1.0  0.14491  0.43089  0.39665  1.0000
  S   S168      1.0  0.17204  0.43316  0.38297  1.0000
  Fe  Fe88      1.0  0.11925  0.40782  0.40582  1.0000
  S   S169      1.0  0.11629  0.38206  0.40519  1.0000
  S   S170      1.0  0.12457  0.45288  0.40462  1.0000
  S   S171      1.0  0.09726  0.42798  0.41447  1.0000
  Fe  Fe89      1.0  0.02932  0.46095  0.28426  1.0000
  H   H374      1.0  0.07624  0.13497  0.39353  1.0000
  Fe  Fe90      1.0  0.04877  0.44817  0.31287  1.0000
  S   S172      1.0  0.02500  0.45212  0.33314  1.0000
  S   S173      1.0  0.07448  0.43707  0.31974  1.0000
  H   H375      1.0  0.49348  0.40371  0.32322  1.0000
  S   S174      1.0  0.03838  0.43495  0.29920  1.0000
  Fe  Fe91      1.0  0.03492  0.34801  0.42291  1.0000
  S   S175      1.0  0.05157  0.33045  0.40618  1.0000
  S   S176      1.0  0.04203  0.36588  0.43425  1.0000
  C   C234      1.0  0.46505  0.28141  0.38837  1.0000
  Fe  Fe92      1.0  0.03376  0.31271  0.42040  1.0000
  S   S177      1.0  0.04562  0.28521  0.42991  1.0000
  Fe  Fe93      1.0  0.03225  0.34189  0.38987  1.0000
  S   S178      1.0  0.04036  0.35103  0.36182  1.0000
  H   H376      1.0  0.42132  0.21727  0.45333  1.0000
  C   C235      1.0  0.03518  0.38068  0.33853  1.0000
  H   H377      1.0  0.23715  0.47845  0.40498  1.0000
  H   H378      1.0  0.04803  0.37609  0.33177  1.0000
  H   H379      1.0  0.32987  0.41654  0.46850  1.0000
  C   C236      1.0  0.08564  0.45611  0.36073  1.0000
  C   C237      1.0  0.09758  0.44340  0.35332  1.0000
  C   C238      1.0  0.09401  0.43770  0.34073  1.0000
  C   C239      1.0  0.07845  0.44459  0.33552  1.0000
  C   C240      1.0  0.06641  0.45723  0.34299  1.0000
  C   C241      1.0  0.07005  0.46299  0.35554  1.0000
  H   H380      1.0  0.10976  0.43826  0.35692  1.0000
  H   H381      1.0  0.10341  0.42800  0.33492  1.0000
  H   H382      1.0  0.05436  0.46263  0.33907  1.0000
  H   H383      1.0  0.06074  0.47274  0.36134  1.0000
  C   C242      1.0  0.09552  0.37780  0.41306  1.0000
  C   C243      1.0  0.08262  0.38794  0.42291  1.0000
  C   C244      1.0  0.06625  0.38422  0.42924  1.0000
  C   C245      1.0  0.06262  0.37034  0.42576  1.0000
  C   C246      1.0  0.07545  0.36023  0.41583  1.0000
  C   C247      1.0  0.09187  0.36391  0.40956  1.0000
  H   H384      1.0  0.08527  0.39849  0.42590  1.0000
  H   H385      1.0  0.05636  0.39214  0.43683  1.0000
  H   H386      1.0  0.07285  0.34936  0.41325  1.0000
  H   H387      1.0  0.10180  0.35591  0.40206  1.0000
  C   C248      1.0  0.11788  0.44338  0.46219  1.0000
  C   C249      1.0  0.12986  0.45251  0.45120  1.0000
  C   C250      1.0  0.13886  0.46028  0.45771  1.0000
  H   H388      1.0  0.24631  0.07422  0.45879  1.0000
  C   C251      1.0  0.38933  0.41403  0.23973  1.0000
  H   H389      1.0  0.48381  0.34606  0.37294  1.0000
  H   H390      1.0  0.13201  0.45383  0.43769  1.0000
  H   H391      1.0  0.14791  0.46757  0.44916  1.0000
  H   H392      1.0  0.37614  0.23486  0.30664  1.0000
  H   H393      1.0  0.49839  0.16281  0.45837  1.0000
  C   C252      1.0  0.02841  0.43851  0.25166  1.0000
  H   H394      1.0  0.37821  0.23577  0.44369  1.0000
  H   H395      1.0  0.02983  0.43331  0.26458  1.0000
  C   C253      1.0  0.35485  0.14580  0.40893  1.0000
  C   C254      1.0  0.34976  0.15627  0.39433  1.0000
  C   C255      1.0  0.33653  0.15348  0.38876  1.0000
  C   C256      1.0  0.32848  0.14002  0.39759  1.0000
  C   C257      1.0  0.33356  0.12943  0.41218  1.0000
  C   C258      1.0  0.34665  0.13241  0.41790  1.0000
  H   H396      1.0  0.35573  0.16671  0.38744  1.0000
  H   H397      1.0  0.33257  0.16175  0.37753  1.0000
  H   H398      1.0  0.32731  0.11907  0.41914  1.0000
  H   H399      1.0  0.35049  0.12426  0.42921  1.0000
  C   C259      1.0  0.34467  0.08932  0.32735  1.0000
  C   C260      1.0  0.35272  0.07275  0.33389  1.0000
  C   C261      1.0  0.34535  0.06395  0.34987  1.0000
  C   C262      1.0  0.33011  0.07182  0.35951  1.0000
  C   C263      1.0  0.32209  0.08836  0.35291  1.0000
  C   C264      1.0  0.32924  0.09700  0.33682  1.0000
  H   H400      1.0  0.36448  0.06660  0.32654  1.0000
  H   H401      1.0  0.35156  0.05111  0.35482  1.0000
  H   H402      1.0  0.31018  0.09443  0.36000  1.0000
  H   H403      1.0  0.32285  0.10973  0.33175  1.0000
  C   C265      1.0  0.42056  0.12254  0.32081  1.0000
  C   C266      1.0  0.42605  0.12657  0.33328  1.0000
  C   C267      1.0  0.41917  0.14237  0.33781  1.0000
  C   C268      1.0  0.40693  0.15436  0.32974  1.0000
  C   C269      1.0  0.40142  0.15035  0.31726  1.0000
  C   C270      1.0  0.40812  0.13442  0.31288  1.0000
  H   H404      1.0  0.43567  0.11744  0.33943  1.0000
  H   H405      1.0  0.42361  0.14539  0.34730  1.0000
  H   H406      1.0  0.39200  0.15958  0.31090  1.0000
  H   H407      1.0  0.40391  0.13149  0.30315  1.0000
  C   C271      1.0  0.47095  0.19978  0.40387  1.0000
  C   C272      1.0  0.48202  0.18464  0.40048  1.0000
  C   C273      1.0  0.47604  0.17308  0.39544  1.0000
  C   C274      1.0  0.45906  0.17673  0.39361  1.0000
  C   C275      1.0  0.44814  0.19210  0.39652  1.0000
  C   C276      1.0  0.45407  0.20357  0.40172  1.0000
  H   H408      1.0  0.46051  0.28830  0.37654  1.0000
  H   H409      1.0  0.48455  0.16126  0.39307  1.0000
  H   H410      1.0  0.43515  0.19509  0.39480  1.0000
  H   H411      1.0  0.44562  0.21544  0.40392  1.0000
  H   H412      1.0  0.45314  0.35498  0.41217  1.0000
  C   C277      1.0  0.41963  0.01142  0.27103  1.0000
  C   C278      1.0  0.41890  0.02306  0.28058  1.0000
  C   C279      1.0  0.41702  0.01793  0.29813  1.0000
  H   H413      1.0  0.06939  0.08718  0.27616  1.0000
  H   H414      1.0  0.44324  0.13026  0.25648  1.0000
  H   H415      1.0  0.49509  0.18168  0.40199  1.0000
  H   H416      1.0  0.42023  0.03588  0.27430  1.0000
  H   H417      1.0  0.45888  0.11095  0.26082  1.0000
  C   C280      1.0  0.36403  0.23244  0.34910  1.0000
  H   H418      1.0  0.21751  0.47407  0.41894  1.0000
  H   H419      1.0  0.45348  0.27887  0.39833  1.0000
  C   C281      1.0  0.06945  0.20580  0.46232  1.0000
  C   C282      1.0  0.07838  0.11188  0.46575  1.0000
  H   H420      1.0  0.21896  0.42001  0.46149  1.0000
  H   H421      1.0  0.33123  0.39526  0.37315  1.0000
  H   H422      1.0  0.00354  0.08300  0.27949  1.0000
  C   C283      1.0  0.44243  0.47119  0.27415  1.0000
  C   C284      1.0  0.43258  0.47056  0.29065  1.0000
  C   C285      1.0  0.43921  0.47328  0.30312  1.0000
  C   C286      1.0  0.45581  0.47630  0.29918  1.0000
  H   H423      1.0  0.47793  0.09796  0.23716  1.0000
  C   C287      1.0  0.45890  0.47445  0.27020  1.0000
  H   H424      1.0  0.41983  0.46808  0.29376  1.0000
  C   C288      1.0  0.41806  0.99473  0.27901  1.0000
  H   H425      1.0  0.03134  0.40409  0.32018  1.0000
  H   H426      1.0  0.47508  0.13498  0.37410  1.0000
  C   C289      1.0  0.21372  0.42939  0.41082  1.0000
  C   C290      1.0  0.21721  0.43256  0.39316  1.0000
  C   C291      1.0  0.20425  0.43381  0.38480  1.0000
  C   C292      1.0  0.18772  0.43201  0.39401  1.0000
  C   C293      1.0  0.18420  0.42888  0.41168  1.0000
  C   C294      1.0  0.19719  0.42755  0.42005  1.0000
  H   H427      1.0  0.22991  0.43395  0.38594  1.0000
  H   H428      1.0  0.20706  0.43621  0.37112  1.0000
  H   H429      1.0  0.17149  0.42749  0.41889  1.0000
  H   H430      1.0  0.19439  0.42508  0.43371  1.0000
  C   C295      1.0  0.31363  0.44184  0.33803  1.0000
  C   C296      1.0  0.32633  0.43611  0.32475  1.0000
  C   C297      1.0  0.33883  0.44548  0.31546  1.0000
  C   C298      1.0  0.33844  0.46093  0.31903  1.0000
  C   C299      1.0  0.32577  0.46665  0.33238  1.0000
  C   C300      1.0  0.31345  0.45708  0.34193  1.0000
  H   H431      1.0  0.32652  0.42437  0.32164  1.0000
  H   H432      1.0  0.34868  0.44076  0.30548  1.0000
  H   H433      1.0  0.32537  0.47858  0.33518  1.0000
  H   H434      1.0  0.30354  0.46172  0.35200  1.0000
  C   C301      1.0  0.41532  0.26635  0.38008  1.0000
  C   C302      1.0  0.42330  0.24969  0.37823  1.0000
  C   C303      1.0  0.41345  0.23792  0.37973  1.0000
  C   C304      1.0  0.39556  0.24280  0.38302  1.0000
  C   C305      1.0  0.38758  0.25935  0.38517  1.0000
  C   C306      1.0  0.39742  0.27109  0.38375  1.0000
  H   H435      1.0  0.43714  0.24592  0.37538  1.0000
  H   H436      1.0  0.41972  0.22518  0.37807  1.0000
  H   H437      1.0  0.37373  0.26317  0.38779  1.0000
  H   H438      1.0  0.39116  0.28389  0.38522  1.0000
  C   C307      1.0  0.42508  0.34267  0.43605  1.0000
  C   C308      1.0  0.41883  0.35891  0.42716  1.0000
  C   C309      1.0  0.41635  0.37307  0.43404  1.0000
  C   C310      1.0  0.41964  0.37095  0.45002  1.0000
  H   H439      1.0  0.46946  0.01787  0.32842  1.0000
  H   H440      1.0  0.45332  0.99307  0.26079  1.0000
  H   H441      1.0  0.41607  0.36062  0.41493  1.0000
  H   H442      1.0  0.41149  0.38564  0.42717  1.0000
  H   H443      1.0  0.10831  0.18981  0.47279  1.0000
  H   H444      1.0  0.45195  0.14902  0.35839  1.0000
  C   C311      1.0  0.34437  0.35971  0.40502  1.0000
  C   C312      1.0  0.35207  0.36734  0.41298  1.0000
  C   C313      1.0  0.34284  0.38206  0.41902  1.0000
  C   C314      1.0  0.32598  0.38929  0.41693  1.0000
  C   C315      1.0  0.31834  0.38152  0.40911  1.0000
  C   C316      1.0  0.32745  0.36678  0.40326  1.0000
  H   H445      1.0  0.36504  0.36183  0.41463  1.0000
  H   H446      1.0  0.34881  0.38792  0.42518  1.0000
  H   H447      1.0  0.30524  0.38660  0.40790  1.0000
  H   H448      1.0  0.32134  0.36082  0.39732  1.0000
  C   C317      1.0  0.41667  0.37586  0.33238  1.0000
  C   C318      1.0  0.40595  0.36814  0.32814  1.0000
  C   C319      1.0  0.39877  0.37592  0.31386  1.0000
  C   C320      1.0  0.40215  0.39152  0.30389  1.0000
  C   C321      1.0  0.41277  0.39927  0.30823  1.0000
  C   C322      1.0  0.42002  0.39144  0.32241  1.0000
  H   H449      1.0  0.40351  0.35600  0.33562  1.0000
  H   H450      1.0  0.39067  0.36980  0.31050  1.0000
  H   H451      1.0  0.41573  0.41110  0.30045  1.0000
  H   H452      1.0  0.42827  0.39744  0.32568  1.0000
  C   C323      1.0  0.21245  0.07760  0.40069  1.0000
  C   C324      1.0  0.20445  0.08462  0.41491  1.0000
  C   C325      1.0  0.21392  0.09126  0.42209  1.0000
  C   C326      1.0  0.23142  0.09087  0.41514  1.0000
  C   C327      1.0  0.23947  0.08373  0.40100  1.0000
  C   C328      1.0  0.22998  0.07714  0.39379  1.0000
  H   H453      1.0  0.19095  0.08502  0.42031  1.0000
  H   H454      1.0  0.20763  0.09680  0.43301  1.0000
  H   H455      1.0  0.25289  0.08360  0.39544  1.0000
  H   H456      1.0  0.23616  0.07189  0.38267  1.0000
  C   C329      1.0  0.02848  0.23959  0.42473  1.0000
  C   C330      1.0  0.01722  0.25558  0.42337  1.0000
  C   C331      1.0  0.02238  0.26988  0.42446  1.0000
  C   C332      1.0  0.03877  0.26815  0.42713  1.0000
  C   C333      1.0  0.04993  0.25218  0.42847  1.0000
  C   C334      1.0  0.04485  0.23803  0.42720  1.0000
  H   H457      1.0  0.06373  0.40724  0.38864  1.0000
  C   C335      1.0  0.22295  0.48281  0.40737  1.0000
  H   H458      1.0  0.06266  0.25071  0.43038  1.0000
  H   H459      1.0  0.05363  0.22587  0.42822  1.0000
  C   C336      1.0  0.07454  0.12122  0.45023  1.0000
  C   C337      1.0  0.10711  0.10004  0.45142  1.0000
  C   C338      1.0  0.10314  0.10898  0.43582  1.0000
  C   C339      1.0  0.08697  0.11979  0.43526  1.0000
  H   H460      1.0  0.11268  0.10787  0.42424  1.0000
  H   H461      1.0  0.08405  0.12693  0.42326  1.0000
  C   C340      1.0  0.04497  0.15908  0.34933  1.0000
  C   C341      1.0  0.03908  0.16975  0.36090  1.0000
  C   C342      1.0  0.05055  0.17305  0.36852  1.0000
  C   C343      1.0  0.06805  0.16581  0.36453  1.0000
  C   C344      1.0  0.07400  0.15518  0.35288  1.0000
  C   C345      1.0  0.06247  0.15170  0.34539  1.0000
  H   H462      1.0  0.02560  0.17566  0.36386  1.0000
  H   H463      1.0  0.04588  0.18163  0.37709  1.0000
  H   H464      1.0  0.08753  0.14963  0.34959  1.0000
  H   H465      1.0  0.06716  0.14353  0.33640  1.0000
  C   C346      1.0  0.09161  0.08309  0.34629  1.0000
  C   C347      1.0  0.09238  0.10005  0.34379  1.0000
  C   C348      1.0  0.10249  0.10447  0.35212  1.0000
  C   C349      1.0  0.11149  0.09205  0.36338  1.0000
  C   C350      1.0  0.11068  0.07508  0.36599  1.0000
  C   C351      1.0  0.10089  0.07059  0.35731  1.0000
  H   H466      1.0  0.08538  0.10976  0.33528  1.0000
  H   H467      1.0  0.10321  0.11760  0.34988  1.0000
  H   H468      1.0  0.11760  0.06541  0.37466  1.0000
  H   H469      1.0  0.10035  0.05743  0.35927  1.0000
  H   H470      1.0  0.33578  0.04765  0.47277  1.0000
  C   C352      1.0  0.08678  0.19787  0.46067  1.0000
  H   H471      1.0  0.39750  0.21392  0.32155  1.0000
  C   C353      1.0  0.13937  0.00797  0.41609  1.0000
  C   C354      1.0  0.13186  0.01728  0.40246  1.0000
  H   H472      1.0  0.35597  0.42352  0.25392  1.0000
  H   H473      1.0  0.13109  0.03081  0.39843  1.0000
  H   H474      1.0  0.11959  0.01625  0.38335  1.0000
  H   H475      1.0  0.36239  0.40983  0.36939  1.0000
  H   H476      1.0  0.17287  0.99101  0.39639  1.0000
  C   C355      1.0  0.25650  0.07795  0.46238  1.0000
  H   H477      1.0  0.46283  0.40163  0.32929  1.0000
  C   C356      1.0  0.46943  0.25414  0.38164  1.0000
  H   H478      1.0  0.05427  0.25009  0.46159  1.0000
  H   H479      1.0  0.18254  0.00215  0.37607  1.0000
  H   H480      1.0  0.45970  0.43790  0.29246  1.0000
  C   C357      1.0  0.13093  0.16279  0.37511  1.0000
  H   H481      1.0  0.46258  0.35675  0.38165  1.0000
  H   H482      1.0  0.45324  0.06432  0.31509  1.0000
  H   H483      1.0  0.49588  0.40173  0.30190  1.0000
  H   H484      1.0  0.47175  0.36087  0.41350  1.0000
  C   C358      1.0  0.04334  0.10351  0.25732  1.0000
  C   C359      1.0  0.05324  0.11588  0.25131  1.0000
  H   H485      1.0  0.15413  0.13497  0.38633  1.0000
  C   C360      1.0  0.00899  0.40248  0.34040  1.0000
  H   H486      1.0  0.03337  0.08551  0.25074  1.0000
  H   H487      1.0  0.03758  0.10034  0.27065  1.0000
  C   C361      1.0  0.48257  0.19571  0.45553  1.0000
  C   C362      1.0  0.37001  0.23952  0.31855  1.0000
  H   H488      1.0  0.09865  0.38504  0.45298  1.0000
  C   C363      1.0  0.05985  0.21033  0.47752  1.0000
  H   H489      1.0  0.48824  0.27564  0.35993  1.0000
  H   H490      1.0  0.47294  0.25404  0.41254  1.0000
  H   H491      1.0  0.45647  0.44066  0.32179  1.0000
  H   H492      1.0  0.06577  0.37207  0.38299  1.0000
  H   H493      1.0  0.13878  0.11892  0.46995  1.0000
  C   C364      1.0  0.47603  0.35239  0.38345  1.0000
  H   H494      1.0  0.41214  0.21193  0.41431  1.0000
  H   H495      1.0  0.19635  0.42787  0.46261  1.0000
  C   C365      1.0  0.32753  0.14071  0.46967  1.0000
  H   H496      1.0  0.35532  0.03279  0.47609  1.0000
  H   H497      1.0  0.42857  0.35298  0.47121  1.0000
  H   H498      1.0  0.08338  0.27830  0.45844  1.0000
  H   H499      1.0  0.05166  0.42265  0.35495  1.0000
  C   C366      1.0  0.00010  0.19951  0.46786  1.0000
  H   H500      1.0  0.09039  0.08962  0.29942  1.0000
  H   H501      1.0  0.00806  0.35314  0.46454  1.0000
  C   C367      1.0  0.38274  0.33944  0.46044  1.0000
  H   H502      1.0  0.46523  0.40002  0.30788  1.0000
  H   H503      1.0  0.08430  0.24002  0.46278  1.0000
  H   H504      1.0  0.45455  0.02787  0.31475  1.0000
  C   C368      1.0  0.37821  0.31299  0.45820  1.0000
  H   H505      1.0  0.06113  0.28542  0.45746  1.0000
  H   H506      1.0  0.01323  0.09219  0.30027  1.0000
  C   C369      1.0  0.46415  0.04437  0.34284  1.0000
  H   H507      1.0  0.44876  0.41625  0.31643  1.0000
  H   H508      1.0  0.31998  0.02382  0.46321  1.0000
  H   H509      1.0  0.43382  0.32809  0.45868  1.0000
  H   H510      1.0  0.32925  0.13110  0.48145  1.0000
  S   S179      1.0  0.42508  0.09288  0.23984  1.0000
  H   H511      1.0  0.22439  0.44925  0.47354  1.0000
  S   S180      1.0  0.00396  0.46589  0.30235  1.0000
  H   H512      1.0  0.49560  0.20744  0.47503  1.0000
  C   C370      1.0  0.33856  0.16008  0.47833  1.0000
  H   H513      1.0  0.45748  0.41877  0.43849  1.0000
  H   H514      1.0  0.43424  0.40448  0.47146  1.0000
  C   C371      1.0  0.31658  0.08082  0.46679  1.0000
  S   S181      1.0  0.46426  0.47900  0.31499  1.0000
  H   H515      1.0  0.41445  0.19937  0.45191  1.0000
  H   H516      1.0  0.08395  0.38217  0.35537  1.0000
  C   C372      1.0  0.46965  0.43273  0.32171  1.0000
  H   H517      1.0  0.09233  0.13905  0.47821  1.0000
  C   C373      1.0  0.05511  0.38288  0.37975  1.0000
  H   H518      1.0  0.47062  0.29004  0.39217  1.0000
  H   H519      1.0  0.46432  0.37484  0.47818  1.0000
  S   S182      1.0  0.01708  0.36083  0.40539  1.0000
  H   H520      1.0  0.00785  0.37402  0.46618  1.0000
  H   H521      1.0  0.32731  0.44705  0.46712  1.0000
  H   H522      1.0  0.47859  0.24203  0.37963  1.0000
  C   C374      1.0  0.49536  0.40752  0.36678  1.0000
  H   H523      1.0  0.33177  0.08827  0.44186  1.0000
  H   H524      1.0  0.01362  0.28212  0.42352  1.0000
  H   H525      1.0  0.44586  0.01999  0.35357  1.0000
  H   H526      1.0  0.39160  0.34025  0.44779  1.0000
  H   H527      1.0  0.35045  0.21645  0.33382  1.0000
  S   S183      1.0  0.01868  0.32944  0.43868  1.0000
  H   H528      1.0  0.42175  0.23643  0.41658  1.0000
  C   C375      1.0  0.35853  0.37742  0.35476  1.0000
  H   H529      1.0  0.35009  0.23781  0.34985  1.0000
  H   H530      1.0  0.36046  0.41893  0.33901  1.0000
  H   H531      1.0  0.35239  0.37610  0.34512  1.0000
  H   H532      1.0  0.47958  0.39779  0.47416  1.0000
  H   H533      1.0  0.47855  0.44158  0.31776  1.0000
  C   C376      1.0  0.09481  0.19557  0.47403  1.0000
  C   C377      1.0  0.46538  0.99428  0.28697  1.0000
  N   N22       1.0  0.37533  0.40587  0.24072  1.0000
  C   C378      1.0  0.49233  0.26941  0.37209  1.0000
  H   H534      1.0  0.06881  0.11290  0.47733  1.0000
  H   H535      1.0  0.00094  0.14817  0.36913  1.0000
  S   S184      1.0  0.41560  0.38851  0.45905  1.0000
  S   S185      1.0  0.03013  0.46938  0.25619  1.0000
  C   C379      1.0  0.39079  0.21909  0.33309  1.0000
  H   H536      1.0  0.09772  0.09456  0.47844  1.0000
  C   C380      1.0  0.32981  0.08783  0.45520  1.0000
  H   H537      1.0  0.43158  0.47282  0.31587  1.0000
  H   H538      1.0  0.37836  0.39118  0.36513  1.0000
  H   H539      1.0  0.36588  0.40506  0.26738  1.0000
  C   C381      1.0  0.36953  0.32111  0.48522  1.0000
  C   C382      1.0  0.36129  0.40961  0.25531  1.0000
  S   S186      1.0  0.30363  0.07175  0.46004  1.0000
  H   H540      1.0  0.35152  0.09869  0.45203  1.0000
  H   H541      1.0  0.37686  0.40055  0.33497  1.0000
  H   H542      1.0  0.33005  0.40165  0.35128  1.0000
  H   H543      1.0  0.38412  0.21509  0.45660  1.0000
  Fe  Fe94      1.0  0.49311  0.47235  0.30902  1.0000
  H   H544      1.0  0.40971  0.31300  0.46094  1.0000
  H   H545      1.0  0.28945  0.44810  0.47768  1.0000
  H   H546      1.0  0.07659  0.41484  0.36840  1.0000
  H   H547      1.0  0.43084  0.02974  0.34007  1.0000
  C   C383      1.0  0.04711  0.41141  0.36380  1.0000
  H   H548      1.0  0.29122  0.45411  0.44622  1.0000
  H   H549      1.0  0.08291  0.39355  0.37991  1.0000
  H   H550      1.0  0.00568  0.36893  0.37394  1.0000
  H   H551      1.0  0.04693  0.38608  0.39186  1.0000
  H   H552      1.0  0.04726  0.37822  0.37392  1.0000
  C   C384      1.0  0.46659  0.34991  0.41368  1.0000
  C   C385      1.0  0.36429  0.39646  0.36837  1.0000
  C   C386      1.0  0.48896  0.13358  0.33244  1.0000
  H   H553      1.0  0.37061  0.20634  0.32222  1.0000
  H   H554      1.0  0.06777  0.38373  0.46488  1.0000
  H   H555      1.0  0.37246  0.37166  0.35142  1.0000
  C   C387      1.0  0.26312  0.09385  0.47880  1.0000
  H   H556      1.0  0.12164  0.12375  0.39042  1.0000
  H   H557      1.0  0.43173  0.04017  0.35571  1.0000
  H   H558      1.0  0.10901  0.13325  0.45077  1.0000
  H   H559      1.0  0.47835  0.47947  0.27950  1.0000
  H   H560      1.0  0.33431  0.41589  0.36129  1.0000
  H   H561      1.0  0.13616  0.05136  0.46536  1.0000
  H   H562      1.0  0.47496  0.16374  0.35603  1.0000
  C   C388      1.0  0.46283  0.03033  0.32184  1.0000
  H   H563      1.0  0.36534  0.22235  0.36070  1.0000
  H   H564      1.0  0.09026  0.11439  0.39765  1.0000
  N   N23       1.0  0.09628  0.08245  0.27544  1.0000
  C   C389      1.0  0.10053  0.09042  0.25725  1.0000
  C   C390      1.0  0.08019  0.07647  0.27921  1.0000
  C   C391      1.0  0.09404  0.09504  0.28561  1.0000
  C   C392      1.0  0.11026  0.06791  0.27977  1.0000
  H   H565      1.0  0.11259  0.09512  0.25391  1.0000
  H   H566      1.0  0.09018  0.10150  0.25370  1.0000
  H   H567      1.0  0.10212  0.08136  0.24915  1.0000
  H   H568      1.0  0.07656  0.07039  0.29285  1.0000
  H   H569      1.0  0.44648  0.40213  0.44153  1.0000
  N   N24       1.0  0.47694  0.34089  0.40015  1.0000
  H   H570      1.0  0.36555  0.31945  0.45493  1.0000
  H   H571      1.0  0.08381  0.10633  0.28242  1.0000
  H   H572      1.0  0.34816  0.16814  0.47499  1.0000
  H   H573      1.0  0.19300  0.45981  0.47477  1.0000
  H   H574      1.0  0.31119  0.46278  0.45775  1.0000
  H   H575      1.0  0.06239  0.40638  0.46249  1.0000
  S   S187      1.0  0.49310  0.38398  0.39679  1.0000
  H   H576      1.0  0.47067  0.03236  0.35026  1.0000
  H   H577      1.0  0.06341  0.20856  0.45180  1.0000
  C   C393      1.0  0.46013  0.14336  0.34753  1.0000
  H   H578      1.0  0.47694  0.41612  0.45727  1.0000
  N   N25       1.0  0.40445  0.22296  0.43622  1.0000
  H   H579      1.0  0.17899  0.44521  0.48357  1.0000
  C   C394      1.0  0.12736  0.14437  0.35936  1.0000
  N   N26       1.0  0.13226  0.14495  0.37478  1.0000
  C   C395      1.0  0.29853  0.47959  0.41302  1.0000
  H   H580      1.0  0.34700  0.17223  0.44424  1.0000
  C   C396      1.0  0.42888  0.34062  0.45179  1.0000
  C   C397      1.0  0.46563  0.47690  0.28270  1.0000
  H   H581      1.0  0.33136  0.42094  0.44601  1.0000
  N   N27       1.0  0.37229  0.22576  0.33358  1.0000
  N   N28       1.0  0.06166  0.39760  0.36822  1.0000
  H   H582      1.0  0.37588  0.25010  0.31818  1.0000
  H   H583      1.0  0.38951  0.11046  0.23951  1.0000
  N   N29       1.0  0.47763  0.26551  0.38596  1.0000
  N   N30       1.0  0.08291  0.39356  0.47541  1.0000
  N   N31       1.0  0.38251  0.32161  0.46915  1.0000
  H   H584      1.0  0.21872  0.48114  0.39658  1.0000
  H   H585      1.0  0.45656  0.32981  0.40006  1.0000
  H   H586      1.0  0.36982  0.34670  0.45838  1.0000
  C   C398      1.0  0.38191  0.38734  0.24296  1.0000
  H   H587      1.0  0.14072  0.99792  0.48426  1.0000
  C   C399      1.0  0.47009  0.32595  0.40155  1.0000
  C   C400      1.0  0.01134  0.37663  0.36228  1.0000
  H   H588      1.0  0.09254  0.40763  0.45074  1.0000
  C   C401      1.0  0.30944  0.48396  0.42048  1.0000
  H   H589      1.0  0.16667  0.01032  0.47484  1.0000
  H   H590      1.0  0.02120  0.48324  0.35019  1.0000
  C   C402      1.0  0.12969  0.15271  0.46700  1.0000
  H   H591      1.0  0.16117  0.99896  0.37985  1.0000
  H   H592      1.0  0.32554  0.99924  0.42995  1.0000
  H   H593      1.0  0.35311  0.36967  0.36712  1.0000
  N   N32       1.0  0.34024  0.15155  0.46455  1.0000
  H   H594      1.0  0.45672  0.13103  0.34896  1.0000
  C   C403      1.0  0.34316  0.03453  0.47203  1.0000
  C   C404      1.0  0.48265  0.12970  0.36286  1.0000
  H   H595      1.0  0.45652  0.15188  0.33577  1.0000
  H   H596      1.0  0.02833  0.41446  0.24703  1.0000
  N   N33       1.0  0.33315  0.02180  0.48265  1.0000
  C   C405      1.0  0.31425  0.08012  0.48408  1.0000
  H   H597      1.0  0.34647  0.03379  0.45847  1.0000
  H   H598      1.0  0.01224  0.33402  0.36602  1.0000
  H   H599      1.0  0.14312  0.14817  0.46043  1.0000
  C   C406      1.0  0.30040  0.44167  0.44600  1.0000
  H   H600      1.0  0.47941  0.16673  0.33340  1.0000
  H   H601      1.0  0.33752  0.15830  0.43877  1.0000
  H   H602      1.0  0.08530  0.12315  0.37722  1.0000
  C   C407      1.0  0.11795  0.14108  0.45053  1.0000
  N   N34       1.0  0.24911  0.08915  0.47458  1.0000
  N   N35       1.0  0.45267  0.04111  0.33397  1.0000
  C   C408      1.0  0.43971  0.03236  0.34642  1.0000
  C   C409      1.0  0.44392  0.05738  0.32475  1.0000
  H   H603      1.0  0.49042  0.26504  0.40521  1.0000
  H   H604      1.0  0.06564  0.38795  0.34594  1.0000
  H   H605      1.0  0.47367  0.20680  0.46032  1.0000
  C   C410      1.0  0.34339  0.00459  0.48138  1.0000
  H   H606      1.0  0.49641  0.12776  0.36297  1.0000
  N   N36       1.0  0.47855  0.14110  0.34700  1.0000
  H   H607      1.0  0.45839  0.25078  0.39193  1.0000
  H   H608      1.0  0.38800  0.31285  0.44611  1.0000
  H   H609      1.0  0.49885  0.27794  0.37493  1.0000
  C   C411      1.0  0.07186  0.27406  0.45831  1.0000
  C   C412      1.0  0.13119  0.03997  0.46643  1.0000
  H   H610      1.0  0.08862  0.48307  0.30949  1.0000
  C   C413      1.0  0.13386  0.00979  0.47699  1.0000
  N   N37       1.0  0.20576  0.43362  0.48135  1.0000
  H   H611      1.0  0.37171  0.38072  0.24375  1.0000
  C   C414      1.0  0.17414  0.99291  0.38251  1.0000
  H   H612      1.0  0.35681  0.40442  0.32890  1.0000
  H   H613      1.0  0.21074  0.44213  0.45421  1.0000
  H   H614      1.0  0.39720  0.22898  0.33346  1.0000
  H   H615      1.0  0.46658  0.47497  0.25745  1.0000
  H   H616      1.0  0.16104  0.01995  0.45468  1.0000
  C   C415      1.0  0.33703  0.40232  0.36056  1.0000
  H   H617      1.0  0.15153  0.12195  0.37384  1.0000
  H   H618      1.0  0.10703  0.14391  0.39018  1.0000
  C   C416      1.0  0.02808  0.37075  0.35377  1.0000
  H   H619      1.0  0.07453  0.26938  0.44647  1.0000
  H   H620      1.0  0.00453  0.25692  0.42143  1.0000
  H   H621      1.0  0.13080  0.13575  0.44333  1.0000
  H   H622      1.0  0.39284  0.20850  0.34407  1.0000
  H   H623      1.0  0.03844  0.41567  0.37524  1.0000
  H   H624      1.0  0.47464  0.18797  0.45352  1.0000
  H   H625      1.0  0.35916  0.38920  0.38113  1.0000
  C   C417      1.0  0.36276  0.40524  0.33891  1.0000
  N   N38       1.0  0.17907  0.38227  0.38546  1.0000
  C   C418      1.0  0.17679  0.39580  0.37024  1.0000
  C   C419      1.0  0.16308  0.37588  0.39286  1.0000
  C   C420      1.0  0.18302  0.38913  0.39803  1.0000
  C   C421      1.0  0.19337  0.36828  0.38069  1.0000
  H   H626      1.0  0.16564  0.40622  0.37326  1.0000
  H   H627      1.0  0.17448  0.39096  0.36020  1.0000
  H   H628      1.0  0.18821  0.40167  0.36484  1.0000
  H   H629      1.0  0.16418  0.36572  0.40444  1.0000
  H   H630      1.0  0.15204  0.38618  0.39652  1.0000
  H   H631      1.0  0.15958  0.37068  0.38374  1.0000
  H   H632      1.0  0.18520  0.37922  0.40955  1.0000
  H   H633      1.0  0.17236  0.39947  0.40218  1.0000
  H   H634      1.0  0.19466  0.39466  0.39270  1.0000
  H   H635      1.0  0.20559  0.37277  0.37503  1.0000
  H   H636      1.0  0.19083  0.36277  0.37123  1.0000
  H   H637      1.0  0.19548  0.35785  0.39188  1.0000
  H   H638      1.0  0.39503  0.40880  0.25108  1.0000
  H   H639      1.0  0.12504  0.16580  0.46004  1.0000
  H   H640      1.0  0.24509  0.11178  0.45525  1.0000
  H   H641      1.0  0.46440  0.26021  0.36993  1.0000
  C   C422      1.0  0.32223  0.42047  0.45853  1.0000
  H   H642      1.0  0.48856  0.39586  0.45268  1.0000
  H   H643      1.0  0.10600  0.09964  0.28337  1.0000
  S   S188      1.0  0.01582  0.32277  0.40251  1.0000
  H   H644      1.0  0.03928  0.40730  0.35745  1.0000
  C   C423      1.0  0.12535  0.00903  0.39395  1.0000
  C   C424      1.0  0.33710  0.16440  0.44912  1.0000
  H   H645      1.0  0.43027  0.20816  0.43492  1.0000
  H   H646      1.0  0.43620  0.06595  0.33343  1.0000
  H   H647      1.0  0.38690  0.38199  0.25479  1.0000
  H   H648      1.0  0.47298  0.03639  0.31246  1.0000
  H   H649      1.0  0.01071  0.32926  0.34707  1.0000
  H   H650      1.0  0.26402  0.08445  0.45051  1.0000
  N   N39       1.0  0.31017  0.43698  0.45945  1.0000
  H   H651      1.0  0.32557  0.16827  0.48128  1.0000
  H   H652      1.0  0.35907  0.13311  0.45187  1.0000
  C   C425      1.0  0.05196  0.25574  0.47274  1.0000
  H   H653      1.0  0.48161  0.43956  0.28808  1.0000
  S   S189      1.0  0.04225  0.47368  0.29599  1.0000
  H   H654      1.0  0.09396  0.24938  0.47371  1.0000
  H   H655      1.0  0.29299  0.43197  0.44734  1.0000
  H   H656      1.0  0.44045  0.11084  0.25371  1.0000
  H   H657      1.0  0.36760  0.14885  0.45559  1.0000
  H   H658      1.0  0.11221  0.05805  0.27247  1.0000
  C   C426      1.0  0.22149  0.43759  0.48287  1.0000
  H   H659      1.0  0.45123  0.99889  0.28875  1.0000
  C   C427      1.0  0.07280  0.39255  0.35259  1.0000
  C   C428      1.0  0.42592  0.35471  0.45888  1.0000
  H   H660      1.0  0.04635  0.21616  0.47869  1.0000
  H   H661      1.0  0.08131  0.06705  0.27167  1.0000
  H   H662      1.0  0.37000  0.24256  0.34979  1.0000
  C   C429      1.0  0.45019  0.11833  0.25213  1.0000
  C   C430      1.0  0.29818  0.43565  0.47617  1.0000
  H   H663      1.0  0.22729  0.10160  0.46335  1.0000
  N   N40       1.0  0.36228  0.11829  0.35369  1.0000
  C   C431      1.0  0.37169  0.12734  0.35964  1.0000
  C   C432      1.0  0.37408  0.10992  0.34022  1.0000
  C   C433      1.0  0.34791  0.13050  0.34692  1.0000
  C   C434      1.0  0.35541  0.10540  0.36795  1.0000
  H   H664      1.0  0.36327  0.13357  0.37000  1.0000
  H   H665      1.0  0.37680  0.13736  0.34924  1.0000
  H   H666      1.0  0.38278  0.11856  0.36460  1.0000
  H   H667      1.0  0.36759  0.10249  0.33584  1.0000
  H   H668      1.0  0.37889  0.11933  0.32894  1.0000
  H   H669      1.0  0.38543  0.10105  0.34463  1.0000
  H   H670      1.0  0.33857  0.13682  0.35685  1.0000
  H   H671      1.0  0.34074  0.12407  0.34208  1.0000
  H   H672      1.0  0.35254  0.14054  0.33624  1.0000
  H   H673      1.0  0.34826  0.09832  0.36384  1.0000
  H   H674      1.0  0.34630  0.11134  0.37826  1.0000
  H   H675      1.0  0.36582  0.09596  0.37347  1.0000
  H   H676      1.0  0.47446  0.05042  0.33374  1.0000
  C   C435      1.0  0.41826  0.21146  0.44440  1.0000
  C   C436      1.0  0.02756  0.42786  0.24171  1.0000
  H   H677      1.0  0.44535  0.42095  0.46859  1.0000
  H   H678      1.0  0.13229  0.03865  0.45333  1.0000
  H   H679      1.0  0.45046  0.37673  0.46438  1.0000
  H   H680      1.0  0.32912  0.45140  0.44468  1.0000
  H   H681      1.0  0.49016  0.20073  0.44291  1.0000
  C   C437      1.0  0.31720  0.02465  0.47672  1.0000
  H   H682      1.0  0.47323  0.99998  0.25305  1.0000
  H   H683      1.0  0.15929  0.14098  0.36360  1.0000
  H   H684      1.0  0.30909  0.44257  0.43322  1.0000
  C   C438      1.0  0.40992  0.23888  0.42653  1.0000
  H   H685      1.0  0.12370  0.13796  0.40182  1.0000
  C   C439      1.0  0.02794  0.45574  0.24467  1.0000
  H   H686      1.0  0.35644  0.32739  0.48304  1.0000
  C   C440      1.0  0.14025  0.99044  0.42126  1.0000
  C   C441      1.0  0.48319  0.17916  0.48385  1.0000
  H   H687      1.0  0.36113  0.13215  0.47275  1.0000
  H   H688      1.0  0.41264  0.24559  0.43491  1.0000
  H   H689      1.0  0.34664  0.00278  0.46814  1.0000
  H   H690      1.0  0.37767  0.29957  0.46455  1.0000
  C   C442      1.0  0.47297  0.43043  0.29294  1.0000
  H   H691      1.0  0.49294  0.24492  0.40039  1.0000
  H   H692      1.0  0.11758  0.11495  0.47740  1.0000
  H   H693      1.0  0.47651  0.42188  0.28392  1.0000
  C   C443      1.0  0.07165  0.40358  0.37665  1.0000
  C   C444      1.0  0.10104  0.14745  0.47723  1.0000
  H   H694      1.0  0.38706  0.34604  0.46784  1.0000
  H   H695      1.0  0.49612  0.32680  0.41448  1.0000
  H   H696      1.0  0.32430  0.17305  0.45144  1.0000
  C   C445      1.0  0.46233  0.38003  0.46504  1.0000
  H   H697      1.0  0.47017  0.42591  0.33497  1.0000
  H   H698      1.0  0.39987  0.24773  0.41997  1.0000
  N   N41       1.0  0.28440  0.03207  0.39136  1.0000
  C   C446      1.0  0.28516  0.01548  0.38794  1.0000
  C   C447      1.0  0.28870  0.04419  0.37519  1.0000
  C   C448      1.0  0.29684  0.02994  0.40180  1.0000
  C   C449      1.0  0.26692  0.03869  0.40053  1.0000
  H   H699      1.0  0.28198  0.00603  0.39988  1.0000
  H   H700      1.0  0.29823  0.01004  0.38118  1.0000
  H   H701      1.0  0.27601  0.01654  0.38002  1.0000
  H   H702      1.0  0.28793  0.05694  0.37733  1.0000
  H   H703      1.0  0.30204  0.03993  0.36817  1.0000
  H   H704      1.0  0.27984  0.04586  0.36678  1.0000
  H   H705      1.0  0.29664  0.04219  0.40461  1.0000
  H   H706      1.0  0.31021  0.02523  0.39514  1.0000
  H   H707      1.0  0.29407  0.02082  0.41407  1.0000
  H   H708      1.0  0.26599  0.05110  0.40349  1.0000
  H   H709      1.0  0.26316  0.02980  0.41272  1.0000
  H   H710      1.0  0.25719  0.04070  0.39292  1.0000
  N   N42       1.0  0.35565  0.39537  0.35564  1.0000
  S   S190      1.0  0.27028  0.48682  0.39936  1.0000
  H   H711      1.0  0.27127  0.10025  0.46728  1.0000
  H   H712      1.0  0.12825  0.13112  0.35862  1.0000
  H   H713      1.0  0.13519  0.00778  0.46409  1.0000
  C   C450      1.0  0.35775  0.14099  0.46106  1.0000
  C   C451      1.0  0.44661  0.40697  0.47185  1.0000
  H   H714      1.0  0.07642  0.42009  0.47598  1.0000
  N   N43       1.0  0.49380  0.18569  0.46732  1.0000
  C   C452      1.0  0.15009  0.13533  0.37465  1.0000
  H   H715      1.0  0.13009  0.15353  0.47986  1.0000
  N   N44       1.0  0.46116  0.39854  0.46015  1.0000
  C   C453      1.0  0.15908  0.02177  0.46776  1.0000
  H   H716      1.0  0.48643  0.12096  0.33340  1.0000
  C   C454      1.0  0.46225  0.40916  0.31624  1.0000
  Fe  Fe95      1.0  0.01397  0.44086  0.31833  1.0000
  C   C455      1.0  0.09473  0.10152  0.46637  1.0000
  H   H717      1.0  0.13942  0.16905  0.36380  1.0000
  C   C456      1.0  0.12653  0.99144  0.39889  1.0000
  H   H718      1.0  0.46625  0.34141  0.42645  1.0000
  C   C457      1.0  0.02575  0.39660  0.33198  1.0000
  H   H719      1.0  0.29017  0.42632  0.47810  1.0000
  C   C458      1.0  0.06656  0.39418  0.47121  1.0000
  H   H720      1.0  0.39692  0.20245  0.43143  1.0000
  H   H721      1.0  0.35618  0.24485  0.31848  1.0000
  H   H722      1.0  0.36589  0.20134  0.34479  1.0000
  C   C459      1.0  0.49497  0.33531  0.40192  1.0000
  C   C460      1.0  0.48243  0.15778  0.34518  1.0000
  C   C461      1.0  0.12065  0.13732  0.38997  1.0000
  N   N45       1.0  0.06743  0.26081  0.47343  1.0000
  H   H723      1.0  0.11396  0.15135  0.35902  1.0000
  H   H724      1.0  0.48092  0.36391  0.38204  1.0000
  H   H725      1.0  0.13581  0.15013  0.34768  1.0000
  Fe  Fe96      1.0  0.01753  0.47667  0.31523  1.0000
  H   H726      1.0  0.27170  0.08252  0.48487  1.0000
  H   H727      1.0  0.11757  0.17032  0.37526  1.0000
  C   C462      1.0  0.39957  0.31281  0.47273  1.0000
  H   H728      1.0  0.42151  0.01536  0.25741  1.0000
  C   C463      1.0  0.04093  0.09514  0.24599  1.0000
  C   C464      1.0  0.13614  0.45864  0.47521  1.0000
  C   C465      1.0  0.38881  0.22681  0.44934  1.0000
  H   H729      1.0  0.35055  0.40347  0.25667  1.0000
  C   C466      1.0  0.11521  0.44170  0.47971  1.0000
  H   H730      1.0  0.49712  0.42590  0.34310  1.0000
  H   H731      1.0  0.07789  0.40341  0.34355  1.0000
  C   C467      1.0  0.33867  0.09304  0.47824  1.0000
  H   H732      1.0  0.39989  0.29925  0.47901  1.0000
  H   H733      1.0  0.13455  0.16375  0.38656  1.0000
  N   N46       1.0  0.06488  0.11388  0.39640  1.0000
  C   C468      1.0  0.07035  0.09650  0.39326  1.0000
  C   C469      1.0  0.05764  0.11316  0.41466  1.0000
  C   C470      1.0  0.05175  0.12396  0.38666  1.0000
  C   C471      1.0  0.07982  0.12195  0.39101  1.0000
  H   H734      1.0  0.08098  0.08879  0.39961  1.0000
  H   H735      1.0  0.07507  0.09662  0.37952  1.0000
  H   H736      1.0  0.05959  0.08972  0.39788  1.0000
  H   H737      1.0  0.05373  0.12604  0.41756  1.0000
  H   H738      1.0  0.04612  0.10748  0.41916  1.0000
  H   H739      1.0  0.06712  0.10535  0.42240  1.0000
  H   H740      1.0  0.04767  0.13729  0.38838  1.0000
  H   H741      1.0  0.04015  0.11844  0.39057  1.0000
  H   H742      1.0  0.05674  0.12445  0.37286  1.0000
  H   H743      1.0  0.47769  0.31871  0.39168  1.0000
  C   C472      1.0  0.40075  0.21468  0.42462  1.0000
  N   N47       1.0  0.47422  0.42081  0.31029  1.0000
  H   H744      1.0  0.47543  0.17080  0.48264  1.0000
  H   H745      1.0  0.12262  0.07195  0.27705  1.0000
  H   H746      1.0  0.43502  0.05532  0.31813  1.0000
  H   H747      1.0  0.04097  0.26681  0.47168  1.0000
  C   C473      1.0  0.08190  0.24594  0.47380  1.0000
  H   H748      1.0  0.11335  0.15407  0.44335  1.0000
  H   H749      1.0  0.23280  0.42703  0.48077  1.0000
  H   H750      1.0  0.00528  0.18561  0.47134  1.0000
  H   H751      1.0  0.06661  0.48413  0.31035  1.0000
  H   H752      1.0  0.00596  0.12658  0.36712  1.0000
  H   H753      1.0  0.39012  0.22284  0.41850  1.0000
  C   C474      1.0  0.23784  0.10466  0.46700  1.0000
  C   C475      1.0  0.20805  0.43078  0.46421  1.0000
  C   C476      1.0  0.31988  0.45013  0.45711  1.0000
  H   H754      1.0  0.47993  0.11699  0.36462  1.0000
  H   H755      1.0  0.48626  0.14186  0.32024  1.0000
  H   H756      1.0  0.41397  0.99723  0.31972  1.0000
  H   H757      1.0  0.10868  0.39569  0.46228  1.0000
  H   H758      1.0  0.39125  0.23253  0.45870  1.0000
  C   C477      1.0  0.12555  0.12396  0.47665  1.0000
  C   C478      1.0  0.41539  0.00125  0.30614  1.0000
  H   H759      1.0  0.10737  0.06181  0.29350  1.0000
  C   C479      1.0  0.45850  0.40483  0.44265  1.0000
  H   H760      1.0  0.40323  0.31875  0.48118  1.0000
  H   H761      1.0  0.16460  0.03279  0.46676  1.0000
  H   H762      1.0  0.09532  0.16041  0.47077  1.0000
  H   H763      1.0  0.38456  0.42790  0.23888  1.0000
  H   H764      1.0  0.31531  0.41027  0.46018  1.0000
  N   N48       1.0  0.14070  0.02458  0.47618  1.0000
  H   H765      1.0  0.12000  0.01148  0.48324  1.0000
  H   H766      1.0  0.00985  0.20489  0.45721  1.0000
  C   C480      1.0  0.47724  0.40229  0.46108  1.0000
  H   H767      1.0  0.30897  0.03737  0.47784  1.0000
  H   H768      1.0  0.31417  0.14827  0.47202  1.0000
  C   C481      1.0  0.00001  0.09137  0.30252  1.0000
  C   C482      1.0  0.48371  0.25707  0.40175  1.0000
  C   C483      1.0  0.09629  0.39549  0.45968  1.0000
  H   H769      1.0  0.46928  0.39868  0.43352  1.0000
  H   H770      1.0  0.32886  0.13362  0.45979  1.0000
  H   H771      1.0  0.23192  0.11337  0.47593  1.0000
  S   S191      1.0  0.14724  0.46877  0.48301  1.0000
  H   H772      1.0  0.48191  0.12487  0.24089  1.0000
  C   C484      1.0  0.00432  0.33752  0.35634  1.0000
  H   H773      1.0  0.04795  0.24613  0.48422  1.0000
  H   H774      1.0  0.09055  0.36635  0.48044  1.0000
  H   H775      1.0  0.46623  0.14415  0.23659  1.0000
  C   C485      1.0  0.99979  0.36446  0.46936  1.0000
  C   C486      1.0  0.19112  0.44795  0.48428  1.0000
  Fe  Fe97      1.0  0.00212  0.34093  0.41970  1.0000
  C   C487      1.0  0.00172  0.39238  0.35548  1.0000
  H   H776      1.0  0.31922  0.99265  0.40574  1.0000
  H   H777      1.0  0.30951  0.01502  0.48412  1.0000
  H   H778      1.0  0.11729  0.04265  0.47248  1.0000
  H   H779      1.0  0.05610  0.39301  0.48278  1.0000
  C   C488      1.0  0.08065  0.40746  0.48402  1.0000
  S   S192      1.0  0.35299  0.10024  0.48513  1.0000
  H   H780      1.0  0.99909  0.20503  0.47880  1.0000
  H   H781      1.0  0.07925  0.23607  0.48543  1.0000
  H   H782      1.0  0.44814  0.40236  0.48520  1.0000
  C   C489      1.0  0.41567  0.98974  0.29663  1.0000
  N   N49       1.0  0.48122  0.32406  0.51854  1.0000
  S   S193      1.0  0.42457  0.43878  0.72709  1.0000
  C   C490      1.0  0.48969  0.21501  0.53026  1.0000
  S   S194      1.0  0.46273  0.22560  0.48691  1.0000
  H   H783      1.0  0.36549  0.03304  0.64107  1.0000
  S   S195      1.0  0.41390  0.23546  0.48611  1.0000
  H   H784      1.0  0.47885  0.43930  0.62989  1.0000
  C   C491      1.0  0.49723  0.32317  0.50534  1.0000
  Fe  Fe98      1.0  0.06728  0.22005  0.56239  1.0000
  S   S196      1.0  0.09034  0.23154  0.55568  1.0000
  S   S197      1.0  0.05157  0.21250  0.58843  1.0000
  Fe  Fe99      1.0  0.06941  0.21910  0.52616  1.0000
  S   S198      1.0  0.09274  0.23026  0.51618  1.0000
  C   C492      1.0  0.08138  0.09629  0.73399  1.0000
  Fe  Fe100     1.0  0.10158  0.21270  0.53893  1.0000
  S   S199      1.0  0.12862  0.19788  0.53783  1.0000
  Fe  Fe101     1.0  0.07924  0.24811  0.53364  1.0000
  S   S200      1.0  0.07878  0.27597  0.52306  1.0000
  S   S201      1.0  0.07934  0.19985  0.54746  1.0000
  S   S202      1.0  0.05507  0.23830  0.54186  1.0000
  Fe  Fe102     1.0  0.16915  0.11514  0.51940  1.0000
  S   S203      1.0  0.18197  0.12281  0.53550  1.0000
  S   S204      1.0  0.14795  0.13294  0.50727  1.0000
  Fe  Fe103     1.0  0.18885  0.07863  0.52627  1.0000
  S   S205      1.0  0.20323  0.08334  0.54300  1.0000
  S   S206      1.0  0.19594  0.05259  0.52051  1.0000
  Fe  Fe104     1.0  0.17773  0.09864  0.55381  1.0000
  S   S207      1.0  0.16837  0.10037  0.58118  1.0000
  Fe  Fe105     1.0  0.20617  0.10699  0.52316  1.0000
  S   S208      1.0  0.23027  0.11726  0.51205  1.0000
  S   S209      1.0  0.16306  0.09204  0.53873  1.0000
  S   S210      1.0  0.19370  0.10119  0.50549  1.0000
  Fe  Fe106     1.0  0.06113  0.10537  0.66819  1.0000
  S   S211      1.0  0.05268  0.09818  0.64831  1.0000
  Fe  Fe107     1.0  0.07836  0.13228  0.64252  1.0000
  S   S212      1.0  0.07138  0.12746  0.62075  1.0000
  S   S213      1.0  0.09270  0.15309  0.63609  1.0000
  Fe  Fe108     1.0  0.04568  0.12621  0.63801  1.0000
  H   H785      1.0  0.47661  0.13510  0.68316  1.0000
  Fe  Fe109     1.0  0.07926  0.10005  0.63280  1.0000
  S   S214      1.0  0.09539  0.08277  0.61522  1.0000
  S   S215      1.0  0.05206  0.13329  0.65898  1.0000
  S   S216      1.0  0.08831  0.10491  0.65355  1.0000
  H   H786      1.0  0.09287  0.40766  0.48697  1.0000
  H   H787      1.0  0.00424  0.43786  0.73250  1.0000
  N   N50       1.0  0.39227  0.03371  0.63449  1.0000
  Fe  Fe110     1.0  0.41766  0.45593  0.61565  1.0000
  S   S217      1.0  0.41545  0.43084  0.63338  1.0000
  S   S218      1.0  0.44423  0.46086  0.60517  1.0000
  Fe  Fe111     1.0  0.37974  0.46581  0.61477  1.0000
  S   S219      1.0  0.37501  0.44135  0.63229  1.0000
  S   S220      1.0  0.35824  0.48578  0.60489  1.0000
  Fe  Fe112     1.0  0.39139  0.44585  0.64712  1.0000
  S   S221      1.0  0.37947  0.44495  0.67486  1.0000
  Fe  Fe113     1.0  0.39933  0.42928  0.61648  1.0000
  S   S222      1.0  0.40094  0.40535  0.60812  1.0000
  S   S223      1.0  0.39474  0.47115  0.63046  1.0000
  S   S224      1.0  0.40302  0.45351  0.59796  1.0000
  S   S225      1.0  0.04665  0.48280  0.63128  1.0000
  Fe  Fe114     1.0  0.29964  0.46828  0.55767  1.0000
  H   H788      1.0  0.45270  0.42374  0.60517  1.0000
  S   S226      1.0  0.31381  0.45272  0.57794  1.0000
  Fe  Fe115     1.0  0.29947  0.46794  0.52205  1.0000
  S   S227      1.0  0.31462  0.45555  0.50030  1.0000
  S   S228      1.0  0.28594  0.45506  0.54730  1.0000
  H   H789      1.0  0.05212  0.14930  0.70676  1.0000
  S   S229      1.0  0.39506  0.35923  0.49944  1.0000
  Fe  Fe116     1.0  0.41295  0.38441  0.52092  1.0000
  S   S230      1.0  0.39882  0.36393  0.53603  1.0000
  S   S231      1.0  0.42225  0.40219  0.53044  1.0000
  Fe  Fe117     1.0  0.41429  0.34939  0.51594  1.0000
  S   S232      1.0  0.42883  0.32216  0.51940  1.0000
  Fe  Fe118     1.0  0.38100  0.37572  0.51806  1.0000
  S   S233      1.0  0.35244  0.38064  0.52780  1.0000
  S   S234      1.0  0.43010  0.36892  0.50231  1.0000
  S   S235      1.0  0.39409  0.39720  0.50437  1.0000
  Fe  Fe119     1.0  0.40130  0.24611  0.50940  1.0000
  C   C493      1.0  0.47110  0.42980  0.63751  1.0000
  S   S236      1.0  0.38779  0.27350  0.50898  1.0000
  Fe  Fe120     1.0  0.41245  0.21266  0.53311  1.0000
  S   S237      1.0  0.42655  0.19927  0.51201  1.0000
  S   S238      1.0  0.41036  0.20093  0.56080  1.0000
  Fe  Fe121     1.0  0.43567  0.22337  0.49930  1.0000
  N   N51       1.0  0.02779  0.17677  0.58312  1.0000
  Fe  Fe122     1.0  0.40342  0.21229  0.50086  1.0000
  C   C494      1.0  0.46878  0.33981  0.51343  1.0000
  S   S239      1.0  0.42383  0.23550  0.52152  1.0000
  S   S240      1.0  0.38857  0.22415  0.52295  1.0000
  Fe  Fe123     1.0  0.44407  0.10891  0.59975  1.0000
  S   S241      1.0  0.42398  0.11661  0.62183  1.0000
  S   S242      1.0  0.45619  0.12739  0.57786  1.0000
  Fe  Fe124     1.0  0.44474  0.07123  0.61427  1.0000
  S   S243      1.0  0.42488  0.07598  0.63764  1.0000
  S   S244      1.0  0.45695  0.04414  0.61261  1.0000
  Fe  Fe125     1.0  0.41172  0.09687  0.61931  1.0000
  S   S245      1.0  0.38365  0.10204  0.61943  1.0000
  Fe  Fe126     1.0  0.43928  0.09509  0.63770  1.0000
  S   S246      1.0  0.44927  0.09857  0.65863  1.0000
  S   S247      1.0  0.43069  0.09089  0.59590  1.0000
  S   S248      1.0  0.46029  0.08852  0.61570  1.0000
  Fe  Fe127     1.0  0.31401  0.10437  0.54185  1.0000
  S   S249      1.0  0.33637  0.08392  0.53392  1.0000
  S   S250      1.0  0.28848  0.09674  0.55351  1.0000
  Fe  Fe128     1.0  0.33656  0.13038  0.53286  1.0000
  S   S251      1.0  0.36040  0.11208  0.52391  1.0000
  S   S252      1.0  0.33741  0.15644  0.53480  1.0000
  Fe  Fe129     1.0  0.34370  0.10435  0.51171  1.0000
  H   H790      1.0  0.37401  0.04614  0.54640  1.0000
  Fe  Fe130     1.0  0.35071  0.09354  0.54705  1.0000
  S   S253      1.0  0.36920  0.07540  0.56236  1.0000
  S   S254      1.0  0.32041  0.12440  0.51861  1.0000
  S   S255      1.0  0.32780  0.11229  0.55698  1.0000
  H   H791      1.0  0.10785  0.13286  0.56440  1.0000
  Fe  Fe131     1.0  0.40976  0.37977  0.48726  1.0000
  Fe  Fe132     1.0  0.03888  0.45525  0.67676  1.0000
  S   S256      1.0  0.01708  0.47093  0.66454  1.0000
  S   S257      1.0  0.03389  0.43963  0.70346  1.0000
  Fe  Fe133     1.0  0.06604  0.46607  0.64588  1.0000
  S   S258      1.0  0.09448  0.46238  0.63523  1.0000
  Fe  Fe134     1.0  0.03272  0.46154  0.64122  1.0000
  S   S259      1.0  0.02119  0.45781  0.62155  1.0000
  H   H792      1.0  0.47314  0.32501  0.54490  1.0000
  S   S260      1.0  0.05325  0.44387  0.65413  1.0000
  Fe  Fe135     1.0  0.17116  0.44771  0.53363  1.0000
  S   S261      1.0  0.19999  0.44012  0.52984  1.0000
  Fe  Fe136     1.0  0.13788  0.43488  0.54405  1.0000
  S   S262      1.0  0.12274  0.45977  0.53246  1.0000
  S   S263      1.0  0.12475  0.41384  0.56001  1.0000
  Fe  Fe137     1.0  0.14581  0.46004  0.51098  1.0000
  Fe  Fe138     1.0  0.13673  0.47096  0.54454  1.0000
  S   S264      1.0  0.15972  0.43403  0.52143  1.0000
  S   S265      1.0  0.15065  0.44596  0.55749  1.0000
  Fe  Fe139     1.0  0.03970  0.35034  0.56759  1.0000
  S   S266      1.0  0.04012  0.36690  0.54172  1.0000
  S   S267      1.0  0.03777  0.32300  0.57472  1.0000
  Fe  Fe140     1.0  0.04011  0.37916  0.58313  1.0000
  S   S268      1.0  0.04036  0.39824  0.55860  1.0000
  S   S269      1.0  0.04104  0.38369  0.60795  1.0000
  Fe  Fe141     1.0  0.02089  0.38602  0.55533  1.0000
  H   H793      1.0  0.10965  0.14705  0.60165  1.0000
  Fe  Fe142     1.0  0.05957  0.37739  0.54740  1.0000
  S   S270      1.0  0.08333  0.38246  0.52788  1.0000
  S   S271      1.0  0.01901  0.36864  0.58090  1.0000
  S   S272      1.0  0.06079  0.35907  0.57227  1.0000
  C   C495      1.0  0.44479  0.48462  0.64085  1.0000
  C   C496      1.0  0.11378  0.40521  0.55045  1.0000
  C   C497      1.0  0.11528  0.40900  0.53289  1.0000
  C   C498      1.0  0.10618  0.40177  0.52584  1.0000
  C   C499      1.0  0.09521  0.39121  0.53639  1.0000
  C   C500      1.0  0.09368  0.38761  0.55389  1.0000
  C   C501      1.0  0.10316  0.39431  0.56085  1.0000
  H   H794      1.0  0.12351  0.41738  0.52478  1.0000
  H   H795      1.0  0.10741  0.40465  0.51229  1.0000
  H   H796      1.0  0.08531  0.37953  0.56215  1.0000
  H   H797      1.0  0.10212  0.39117  0.57440  1.0000
  C   C502      1.0  0.02730  0.43730  0.61749  1.0000
  C   C503      1.0  0.02545  0.43477  0.60234  1.0000
  C   C504      1.0  0.03007  0.41840  0.59902  1.0000
  C   C505      1.0  0.03622  0.40449  0.61103  1.0000
  C   C506      1.0  0.03818  0.40707  0.62609  1.0000
  C   C507      1.0  0.03383  0.42344  0.62928  1.0000
  H   H798      1.0  0.02049  0.44549  0.59314  1.0000
  H   H799      1.0  0.02868  0.41650  0.58733  1.0000
  H   H800      1.0  0.04290  0.39633  0.63542  1.0000
  H   H801      1.0  0.03513  0.42524  0.64107  1.0000
  C   C508      1.0  0.10177  0.47170  0.61391  1.0000
  H   H802      1.0  0.39470  0.11458  0.57046  1.0000
  H   H803      1.0  0.41143  0.12612  0.56515  1.0000
  C   C509      1.0  0.10942  0.01400  0.58604  1.0000
  H   H804      1.0  0.40503  0.15738  0.55462  1.0000
  C   C510      1.0  0.47137  0.12622  0.61663  1.0000
  H   H805      1.0  0.00584  0.17027  0.57963  1.0000
  S   S273      1.0  0.23692  0.48365  0.55364  1.0000
  C   C511      1.0  0.46441  0.48172  0.69756  1.0000
  C   C512      1.0  0.44773  0.01754  0.60745  1.0000
  C   C513      1.0  0.13873  0.02680  0.49350  1.0000
  H   H806      1.0  0.44444  0.43174  0.56218  1.0000
  S   S274      1.0  0.02180  0.14243  0.62943  1.0000
  H   H807      1.0  0.01308  0.37957  0.52451  1.0000
  C   C514      1.0  0.46407  0.44269  0.66159  1.0000
  Fe  Fe143     1.0  0.26578  0.47922  0.54602  1.0000
  H   H808      1.0  0.34060  0.02107  0.50543  1.0000
  C   C515      1.0  0.03670  0.44846  0.71903  1.0000
  C   C516      1.0  0.03563  0.46589  0.71623  1.0000
  C   C517      1.0  0.08813  0.37711  0.48672  1.0000
  H   H809      1.0  0.43332  0.47360  0.70831  1.0000
  H   H810      1.0  0.03277  0.47412  0.70456  1.0000
  H   H811      1.0  0.05264  0.16056  0.57720  1.0000
  H   H812      1.0  0.06433  0.15838  0.66876  1.0000
  H   H813      1.0  0.21307  0.40706  0.49228  1.0000
  S   S275      1.0  0.05516  0.21396  0.50968  1.0000
  H   H814      1.0  0.38606  0.03894  0.57200  1.0000
  N   N52       1.0  0.22651  0.01436  0.54911  1.0000
  H   H815      1.0  0.32319  0.08602  0.50312  1.0000
  H   H816      1.0  0.38138  0.04466  0.61246  1.0000
  C   C518      1.0  0.20050  0.46547  0.54465  1.0000
  H   H817      1.0  0.46150  0.15740  0.59891  1.0000
  C   C519      1.0  0.37945  0.09425  0.60396  1.0000
  C   C520      1.0  0.36421  0.10145  0.59820  1.0000
  C   C521      1.0  0.36102  0.09587  0.58530  1.0000
  C   C522      1.0  0.37290  0.08283  0.57836  1.0000
  C   C523      1.0  0.38792  0.07532  0.58445  1.0000
  C   C524      1.0  0.39124  0.08108  0.59714  1.0000
  H   H818      1.0  0.35492  0.11149  0.60359  1.0000
  H   H819      1.0  0.34924  0.10151  0.58094  1.0000
  H   H820      1.0  0.39710  0.06519  0.57916  1.0000
  H   H821      1.0  0.40286  0.07520  0.60173  1.0000
  C   C525      1.0  0.37924  0.18480  0.50181  1.0000
  H   H822      1.0  0.30564  0.47344  0.67203  1.0000
  C   C526      1.0  0.36493  0.16127  0.50781  1.0000
  C   C527      1.0  0.35402  0.16668  0.52216  1.0000
  C   C528      1.0  0.35606  0.18088  0.52650  1.0000
  C   C529      1.0  0.36873  0.18979  0.51649  1.0000
  C   C530      1.0  0.37539  0.03227  0.57885  1.0000
  H   H823      1.0  0.36363  0.15019  0.50449  1.0000
  H   H824      1.0  0.34764  0.18517  0.53756  1.0000
  H   H825      1.0  0.36991  0.20087  0.51985  1.0000
  C   C531      1.0  0.42301  0.18045  0.56513  1.0000
  C   C532      1.0  0.43817  0.17521  0.55378  1.0000
  C   C533      1.0  0.44832  0.15889  0.55777  1.0000
  C   C534      1.0  0.44316  0.14767  0.57295  1.0000
  C   C535      1.0  0.42792  0.15292  0.58418  1.0000
  C   C536      1.0  0.41798  0.16933  0.58038  1.0000
  H   H826      1.0  0.44226  0.18382  0.54210  1.0000
  H   H827      1.0  0.46015  0.15493  0.54906  1.0000
  H   H828      1.0  0.42383  0.14449  0.59589  1.0000
  H   H829      1.0  0.40629  0.17337  0.58923  1.0000
  C   C537      1.0  0.43019  0.01979  0.58780  1.0000
  C   C538      1.0  0.43024  0.03711  0.58221  1.0000
  C   C539      1.0  0.43838  0.04479  0.58977  1.0000
  C   C540      1.0  0.44705  0.03500  0.60248  1.0000
  H   H830      1.0  0.42363  0.04468  0.57231  1.0000
  H   H831      1.0  0.43810  0.05821  0.58561  1.0000
  H   H832      1.0  0.45736  0.13145  0.62042  1.0000
  C   C541      1.0  0.47740  0.20599  0.53134  1.0000
  C   C542      1.0  0.46917  0.20928  0.51799  1.0000
  C   C543      1.0  0.47367  0.22115  0.50321  1.0000
  H   H833      1.0  0.47405  0.19656  0.54262  1.0000
  H   H834      1.0  0.45937  0.20256  0.51911  1.0000
  C   C544      1.0  0.41735  0.30830  0.51727  1.0000
  C   C545      1.0  0.42621  0.29285  0.51269  1.0000
  C   C546      1.0  0.41724  0.28193  0.51042  1.0000
  C   C547      1.0  0.39932  0.28621  0.51311  1.0000
  C   C548      1.0  0.39047  0.30149  0.51806  1.0000
  C   C549      1.0  0.39945  0.31258  0.51996  1.0000
  H   H835      1.0  0.44006  0.28952  0.51045  1.0000
  H   H836      1.0  0.42426  0.27047  0.50609  1.0000
  H   H837      1.0  0.49008  0.23880  0.49025  1.0000
  H   H838      1.0  0.39248  0.32434  0.52378  1.0000
  C   C550      1.0  0.22684  0.47164  0.54670  1.0000
  C   C551      1.0  0.23645  0.45876  0.53817  1.0000
  C   C552      1.0  0.22808  0.44916  0.53305  1.0000
  C   C553      1.0  0.21010  0.45246  0.53631  1.0000
  H   H839      1.0  0.25030  0.45607  0.53572  1.0000
  H   H840      1.0  0.23556  0.43906  0.52668  1.0000
  C   C554      1.0  0.32487  0.43452  0.50760  1.0000
  C   C555      1.0  0.01885  0.16417  0.58215  1.0000
  C   C556      1.0  0.34915  0.41079  0.50422  1.0000
  C   C557      1.0  0.34164  0.40107  0.51942  1.0000
  C   C558      1.0  0.32548  0.40792  0.52836  1.0000
  C   C559      1.0  0.31715  0.42462  0.52251  1.0000
  H   H841      1.0  0.13717  0.02634  0.56840  1.0000
  H   H842      1.0  0.31946  0.40036  0.53997  1.0000
  H   H843      1.0  0.30463  0.42969  0.52944  1.0000
  C   C560      1.0  0.40568  0.40509  0.58639  1.0000
  C   C561      1.0  0.40544  0.39045  0.58153  1.0000
  C   C562      1.0  0.41008  0.38955  0.56436  1.0000
  C   C563      1.0  0.41525  0.40320  0.55197  1.0000
  C   C564      1.0  0.41533  0.41789  0.55679  1.0000
  C   C565      1.0  0.41034  0.41892  0.57391  1.0000
  H   H844      1.0  0.40187  0.37968  0.59111  1.0000
  H   H845      1.0  0.41012  0.37810  0.56080  1.0000
  H   H846      1.0  0.41924  0.42854  0.54725  1.0000
  H   H847      1.0  0.41047  0.43028  0.57740  1.0000
  C   C566      1.0  0.34608  0.47696  0.59672  1.0000
  C   C567      1.0  0.34770  0.45940  0.60043  1.0000
  C   C568      1.0  0.33729  0.45229  0.59505  1.0000
  C   C569      1.0  0.32586  0.46256  0.58501  1.0000
  C   C570      1.0  0.32447  0.48016  0.58079  1.0000
  C   C571      1.0  0.33439  0.48738  0.58691  1.0000
  H   H848      1.0  0.35686  0.45119  0.60756  1.0000
  H   H849      1.0  0.33832  0.43871  0.59845  1.0000
  H   H850      1.0  0.31564  0.48818  0.57303  1.0000
  H   H851      1.0  0.47241  0.40825  0.60127  1.0000
  C   C572      1.0  0.46201  0.48561  0.63737  1.0000
  H   H852      1.0  0.39000  0.00252  0.56952  1.0000
  C   C573      1.0  0.43924  0.47705  0.63099  1.0000
  C   C574      1.0  0.45075  0.47098  0.61727  1.0000
  C   C575      1.0  0.46788  0.47240  0.61352  1.0000
  C   C576      1.0  0.47358  0.47945  0.62373  1.0000
  H   H853      1.0  0.37661  0.30476  0.52046  1.0000
  H   H854      1.0  0.42604  0.47596  0.63401  1.0000
  H   H855      1.0  0.47682  0.46779  0.60287  1.0000
  H   H856      1.0  0.34681  0.43500  0.48671  1.0000
  C   C577      1.0  0.11059  0.13277  0.57665  1.0000
  H   H857      1.0  0.40279  0.12370  0.54874  1.0000
  C   C578      1.0  0.48499  0.32402  0.53473  1.0000
  H   H858      1.0  0.47055  0.30902  0.50878  1.0000
  C   C579      1.0  0.24736  0.11008  0.52261  1.0000
  C   C580      1.0  0.26121  0.11822  0.51685  1.0000
  C   C581      1.0  0.27432  0.11375  0.52585  1.0000
  C   C582      1.0  0.27359  0.10115  0.54069  1.0000
  C   C583      1.0  0.26005  0.09260  0.54611  1.0000
  C   C584      1.0  0.24698  0.09701  0.53707  1.0000
  H   H859      1.0  0.26161  0.12831  0.50562  1.0000
  H   H860      1.0  0.28470  0.12042  0.52159  1.0000
  H   H861      1.0  0.25954  0.08274  0.55752  1.0000
  H   H862      1.0  0.23648  0.09053  0.54151  1.0000
  C   C585      1.0  0.14860  0.09444  0.59107  1.0000
  C   C586      1.0  0.13910  0.09975  0.60596  1.0000
  C   C587      1.0  0.12271  0.09634  0.61333  1.0000
  C   C588      1.0  0.11596  0.08707  0.60620  1.0000
  C   C589      1.0  0.12570  0.08128  0.59161  1.0000
  C   C590      1.0  0.14195  0.08502  0.58403  1.0000
  H   H863      1.0  0.14430  0.10676  0.61167  1.0000
  H   H864      1.0  0.11539  0.10076  0.62463  1.0000
  H   H865      1.0  0.12057  0.07415  0.58600  1.0000
  H   H866      1.0  0.14937  0.08040  0.57288  1.0000
  C   C591      1.0  0.06680  0.28902  0.53727  1.0000
  C   C592      1.0  0.05961  0.28199  0.55395  1.0000
  C   C593      1.0  0.05049  0.29258  0.56527  1.0000
  C   C594      1.0  0.04859  0.31021  0.56000  1.0000
  C   C595      1.0  0.05552  0.31728  0.54324  1.0000
  C   C596      1.0  0.06465  0.30668  0.53190  1.0000
  H   H867      1.0  0.06120  0.26837  0.55818  1.0000
  H   H868      1.0  0.04512  0.28705  0.57823  1.0000
  H   H869      1.0  0.05388  0.33087  0.53902  1.0000
  H   H870      1.0  0.07003  0.31214  0.51893  1.0000
  C   C597      1.0  0.12426  0.47151  0.58834  1.0000
  H   H871      1.0  0.13707  0.46625  0.58206  1.0000
  H   H872      1.0  0.13325  0.14515  0.55004  1.0000
  H   H873      1.0  0.00335  0.09316  0.62541  1.0000
  H   H874      1.0  0.25104  0.00011  0.55429  1.0000
  H   H875      1.0  0.18664  0.46809  0.54724  1.0000
  H   H876      1.0  0.45653  0.34090  0.52313  1.0000
  C   C598      1.0  0.06331  0.19691  0.60212  1.0000
  C   C599      1.0  0.05452  0.18696  0.61626  1.0000
  C   C600      1.0  0.06360  0.17356  0.62664  1.0000
  C   C601      1.0  0.08148  0.17049  0.62343  1.0000
  C   C602      1.0  0.09031  0.18082  0.60964  1.0000
  C   C603      1.0  0.08124  0.19380  0.59875  1.0000
  H   H877      1.0  0.04067  0.18936  0.61903  1.0000
  H   H878      1.0  0.05666  0.16573  0.63725  1.0000
  H   H879      1.0  0.10413  0.17861  0.60718  1.0000
  H   H880      1.0  0.08809  0.20152  0.58789  1.0000
  C   C604      1.0  0.13406  0.18142  0.52698  1.0000
  C   C605      1.0  0.15110  0.17252  0.52384  1.0000
  C   C606      1.0  0.15552  0.15823  0.51676  1.0000
  C   C607      1.0  0.14287  0.15250  0.51319  1.0000
  C   C608      1.0  0.12593  0.16188  0.51552  1.0000
  C   C609      1.0  0.12154  0.17641  0.52234  1.0000
  H   H881      1.0  0.16088  0.17661  0.52701  1.0000
  H   H882      1.0  0.16876  0.15170  0.51396  1.0000
  H   H883      1.0  0.11612  0.15764  0.51257  1.0000
  H   H884      1.0  0.10842  0.18345  0.52440  1.0000
  C   C610      1.0  0.15129  0.02633  0.53217  1.0000
  C   C611      1.0  0.14802  0.04362  0.53205  1.0000
  C   C612      1.0  0.16166  0.05186  0.52810  1.0000
  C   C613      1.0  0.17860  0.04287  0.52420  1.0000
  C   C614      1.0  0.18181  0.02571  0.52374  1.0000
  C   C615      1.0  0.16818  0.01743  0.52778  1.0000
  H   H885      1.0  0.13496  0.05065  0.53511  1.0000
  H   H886      1.0  0.15902  0.06519  0.52794  1.0000
  H   H887      1.0  0.19484  0.01871  0.52043  1.0000
  S   S276      1.0  0.39432  0.19667  0.48839  1.0000
  C   C616      1.0  0.13509  0.14534  0.56259  1.0000
  H   H888      1.0  0.09832  0.13331  0.58630  1.0000
  H   H889      1.0  0.35019  0.47862  0.66616  1.0000
  C   C617      1.0  0.05512  0.09491  0.72752  1.0000
  C   C618      1.0  0.20816  0.01484  0.55692  1.0000
  N   N53       1.0  0.11861  0.14697  0.57513  1.0000
  C   C619      1.0  0.08972  0.09630  0.71706  1.0000
  H   H890      1.0  0.44362  0.21083  0.55574  1.0000
  H   H891      1.0  0.48299  0.13983  0.63561  1.0000
  H   H892      1.0  0.41866  0.23513  0.55637  1.0000
  S   S277      1.0  0.13419  0.01592  0.53822  1.0000
  H   H893      1.0  0.14429  0.13337  0.56659  1.0000
  C   C620      1.0  0.41180  0.44113  0.71260  1.0000
  C   C621      1.0  0.39392  0.44401  0.71749  1.0000
  C   C622      1.0  0.38416  0.44524  0.70576  1.0000
  C   C623      1.0  0.39218  0.44382  0.68903  1.0000
  C   C624      1.0  0.41006  0.44129  0.68403  1.0000
  C   C625      1.0  0.41983  0.43983  0.69583  1.0000
  C   C626      1.0  0.48883  0.41976  0.65817  1.0000
  H   H894      1.0  0.37035  0.44717  0.70973  1.0000
  H   H895      1.0  0.41631  0.44022  0.67116  1.0000
  H   H896      1.0  0.43364  0.43757  0.69203  1.0000
  H   H897      1.0  0.37246  0.15567  0.58274  1.0000
  C   C627      1.0  0.44090  0.10012  0.69204  1.0000
  C   C628      1.0  0.43477  0.09985  0.67818  1.0000
  C   C629      1.0  0.41729  0.10082  0.68006  1.0000
  C   C630      1.0  0.40597  0.10216  0.69574  1.0000
  C   C631      1.0  0.01754  0.18571  0.59674  1.0000
  H   H898      1.0  0.41246  0.10065  0.66942  1.0000
  H   H899      1.0  0.39244  0.10298  0.69713  1.0000
  H   H900      1.0  0.45443  0.09915  0.69066  1.0000
  S   S278      1.0  0.15841  0.47376  0.52181  1.0000
  H   H901      1.0  0.36051  0.15242  0.55993  1.0000
  C   C632      1.0  0.35631  0.01601  0.57699  1.0000
  N   N54       1.0  0.38636  0.14167  0.56342  1.0000
  C   C633      1.0  0.41209  0.10248  0.70960  1.0000
  H   H902      1.0  0.37799  0.39662  0.55373  1.0000
  H   H903      1.0  0.00247  0.36314  0.51078  1.0000
  H   H904      1.0  0.46523  0.40198  0.66133  1.0000
  C   C634      1.0  0.20887  0.47498  0.54989  1.0000
  H   H905      1.0  0.46382  0.44081  0.67526  1.0000
  C   C635      1.0  0.47550  0.15185  0.59583  1.0000
  H   H906      1.0  0.37323  0.13885  0.54586  1.0000
  H   H907      1.0  0.36695  0.40312  0.53674  1.0000
  H   H908      1.0  0.47654  0.47542  0.72552  1.0000
  H   H909      1.0  0.37727  0.13305  0.59017  1.0000
  H   H910      1.0  0.08732  0.09575  0.69230  1.0000
  H   H911      1.0  0.38359  0.16845  0.55276  1.0000
  H   H912      1.0  0.01603  0.17679  0.60932  1.0000
  H   H913      1.0  0.49477  0.32402  0.49275  1.0000
  N   N55       1.0  0.48128  0.13971  0.61063  1.0000
  C   C636      1.0  0.99976  0.10654  0.62556  1.0000
  H   H914      1.0  0.13307  0.04361  0.57872  1.0000
  H   H915      1.0  0.09618  0.12528  0.69034  1.0000
  H   H916      1.0  0.47700  0.45060  0.71434  1.0000
  H   H917      1.0  0.35276  0.04834  0.55922  1.0000
  H   H918      1.0  0.05215  0.17722  0.58699  1.0000
  C   C637      1.0  0.44901  0.40390  0.58690  1.0000
  H   H919      1.0  0.44151  0.25016  0.57994  1.0000
  C   C638      1.0  0.10425  0.04307  0.57054  1.0000
  H   H920      1.0  0.23469  0.00404  0.57273  1.0000
  C   C639      1.0  0.49142  0.02753  0.63235  1.0000
  H   H921      1.0  0.19981  0.02485  0.54922  1.0000
  C   C640      1.0  0.37734  0.17047  0.49751  1.0000
  C   C641      1.0  0.11376  0.48484  0.57935  1.0000
  H   H922      1.0  0.13085  0.13472  0.59606  1.0000
  H   H923      1.0  0.24445  0.00870  0.52640  1.0000
  C   C642      1.0  0.23032  0.03105  0.54730  1.0000
  C   C643      1.0  0.46276  0.45451  0.71645  1.0000
  H   H924      1.0  0.46002  0.20923  0.56667  1.0000
  H   H925      1.0  0.08977  0.03742  0.60379  1.0000
  C   C644      1.0  0.38502  0.01318  0.55967  1.0000
  H   H926      1.0  0.38810  0.04845  0.65312  1.0000
  H   H927      1.0  0.45075  0.44836  0.65972  1.0000
  H   H928      1.0  0.43838  0.22970  0.59255  1.0000
  H   H929      1.0  0.43441  0.10163  0.71836  1.0000
  H   H930      1.0  0.44628  0.25549  0.54825  1.0000
  C   C645      1.0  0.34681  0.47747  0.65465  1.0000
  H   H931      1.0  0.11543  0.00933  0.57411  1.0000
  H   H932      1.0  0.43959  0.99662  0.60435  1.0000
  H   H933      1.0  0.37759  0.43218  0.55630  1.0000
  H   H934      1.0  0.34129  0.44361  0.54819  1.0000
  C   C646      1.0  0.49446  0.22669  0.51534  1.0000
  C   C647      1.0  0.12173  0.14653  0.59172  1.0000
  H   H935      1.0  0.12721  0.15742  0.59117  1.0000
  C   C648      1.0  0.39308  0.15627  0.55178  1.0000
  H   H936      1.0  0.17080  0.00415  0.52752  1.0000
  H   H937      1.0  0.41798  0.25216  0.56573  1.0000
  H   H938      1.0  0.44680  0.41909  0.66377  1.0000
  H   H939      1.0  0.48627  0.01496  0.60839  1.0000
  H   H940      1.0  0.39982  0.05686  0.63257  1.0000
  H   H941      1.0  0.36512  0.12986  0.56758  1.0000
  H   H942      1.0  0.24712  0.06827  0.49601  1.0000
  H   H943      1.0  0.41485  0.23180  0.57877  1.0000
  C   C649      1.0  0.35155  0.43438  0.54166  1.0000
  C   C650      1.0  0.10707  0.16324  0.56955  1.0000
  H   H944      1.0  0.48291  0.40000  0.57365  1.0000
  N   N56       1.0  0.33214  0.46913  0.65907  1.0000
  H   H945      1.0  0.33500  0.42001  0.57208  1.0000
  C   C651      1.0  0.36388  0.03898  0.55385  1.0000
  S   S279      1.0  0.31442  0.47965  0.53248  1.0000
  N   N57       1.0  0.45911  0.41725  0.58084  1.0000
  H   H946      1.0  0.34789  0.44394  0.66315  1.0000
  H   H947      1.0  0.04364  0.15912  0.59945  1.0000
  H   H948      1.0  0.41950  0.02910  0.63226  1.0000
  C   C652      1.0  0.36683  0.42612  0.56424  1.0000
  H   H949      1.0  0.48291  0.10185  0.72187  1.0000
  C   C653      1.0  0.08437  0.15472  0.70021  1.0000
  C   C654      1.0  0.02998  0.18920  0.56680  1.0000
  H   H950      1.0  0.49123  0.17177  0.49314  1.0000
  C   C655      1.0  0.40849  0.02282  0.63868  1.0000
  C   C656      1.0  0.48066  0.12268  0.69160  1.0000
  H   H951      1.0  0.47257  0.14889  0.70744  1.0000
  H   H952      1.0  0.06739  0.12981  0.71100  1.0000
  H   H953      1.0  0.08498  0.13059  0.67351  1.0000
  N   N58       1.0  0.35902  0.41990  0.55395  1.0000
  H   H954      1.0  0.49096  0.33480  0.53352  1.0000
  H   H955      1.0  0.35728  0.43572  0.57075  1.0000
  H   H956      1.0  0.34563  0.43010  0.53364  1.0000
  H   H957      1.0  0.05997  0.17246  0.68283  1.0000
  N   N59       1.0  0.37014  0.02510  0.56734  1.0000
  H   H958      1.0  0.45923  0.23216  0.57987  1.0000
  H   H959      1.0  0.02448  0.10749  0.62848  1.0000
  C   C657      1.0  0.23903  0.08013  0.49010  1.0000
  H   H960      1.0  0.32127  0.03637  0.50187  1.0000
  C   C658      1.0  0.37234  0.40786  0.54482  1.0000
  H   H961      1.0  0.12234  0.44783  0.49976  1.0000
  H   H962      1.0  0.07460  0.16410  0.70693  1.0000
  H   H963      1.0  0.11280  0.17425  0.56814  1.0000
  H   H964      1.0  0.46451  0.23802  0.54912  1.0000
  H   H965      1.0  0.39390  0.14466  0.58475  1.0000
  H   H966      1.0  0.45865  0.45003  0.70721  1.0000
  H   H967      1.0  0.36132  0.40539  0.49691  1.0000
  H   H968      1.0  0.10546  0.04992  0.59956  1.0000
  H   H969      1.0  0.23348  0.08812  0.49968  1.0000
  H   H970      1.0  0.36070  0.00521  0.58707  1.0000
  H   H971      1.0  0.40391  0.04346  0.60882  1.0000
  H   H972      1.0  0.14127  0.15614  0.56068  1.0000
  C   C659      1.0  0.23049  0.01030  0.53224  1.0000
  C   C660      1.0  0.37798  0.02514  0.64377  1.0000
  H   H973      1.0  0.39606  0.15514  0.53834  1.0000
  C   C661      1.0  0.37065  0.14065  0.55903  1.0000
  H   H974      1.0  0.37992  0.01279  0.64023  1.0000
  C   C662      1.0  0.38918  0.05015  0.63931  1.0000
  H   H975      1.0  0.00623  0.34562  0.55203  1.0000
  H   H976      1.0  0.48960  0.11404  0.68348  1.0000
  H   H977      1.0  0.33969  0.45267  0.68159  1.0000
  H   H978      1.0  0.48244  0.16243  0.59117  1.0000
  H   H979      1.0  0.36461  0.04167  0.58455  1.0000
  C   C663      1.0  0.34077  0.42748  0.49831  1.0000
  H   H980      1.0  0.30519  0.43142  0.48663  1.0000
  C   C664      1.0  0.39347  0.03672  0.61611  1.0000
  H   H981      1.0  0.37719  0.05884  0.63606  1.0000
  H   H982      1.0  0.48593  0.15890  0.62026  1.0000
  H   H983      1.0  0.03684  0.48621  0.72660  1.0000
  C   C665      1.0  0.32883  0.02345  0.50047  1.0000
  H   H984      1.0  0.45593  0.44359  0.56839  1.0000
  C   C666      1.0  0.06342  0.09520  0.71051  1.0000
  H   H985      1.0  0.48688  0.48027  0.62091  1.0000
  C   C667      1.0  0.32512  0.08648  0.48978  1.0000
  H   H986      1.0  0.22688  0.99825  0.53300  1.0000
  C   C668      1.0  0.47642  0.13590  0.71499  1.0000
  H   H987      1.0  0.46477  0.15446  0.62849  1.0000
  H   H988      1.0  0.35846  0.47004  0.64764  1.0000
  H   H989      1.0  0.46454  0.13098  0.72128  1.0000
  H   H990      1.0  0.18917  0.45063  0.49701  1.0000
  H   H991      1.0  0.03783  0.18298  0.55622  1.0000
  H   H992      1.0  0.47931  0.02280  0.63632  1.0000
  C   C669      1.0  0.09141  0.48542  0.60509  1.0000
  H   H993      1.0  0.46064  0.47793  0.68764  1.0000
  H   H994      1.0  0.44843  0.23817  0.53865  1.0000
  H   H995      1.0  0.47151  0.43018  0.59123  1.0000
  H   H996      1.0  0.22341  0.02042  0.52342  1.0000
  C   C670      1.0  0.44866  0.43326  0.57304  1.0000
  S   S280      1.0  0.05353  0.47587  0.66961  1.0000
  H   H997      1.0  0.00264  0.41241  0.57646  1.0000
  N   N60       1.0  0.10122  0.32470  0.54956  1.0000
  C   C671      1.0  0.08957  0.31493  0.56281  1.0000
  C   C672      1.0  0.10736  0.33524  0.55718  1.0000
  C   C673      1.0  0.09196  0.33579  0.53646  1.0000
  C   C674      1.0  0.11603  0.31281  0.54173  1.0000
  H   H998      1.0  0.08531  0.30630  0.55761  1.0000
  H   H999      1.0  0.07779  0.32339  0.56853  1.0000
  H   H1000     1.0  0.09590  0.30693  0.57325  1.0000
  H   H1001     1.0  0.11448  0.32734  0.56708  1.0000
  H   H1002     1.0  0.11602  0.34292  0.54749  1.0000
  H   H1003     1.0  0.09654  0.34435  0.56322  1.0000
  H   H1004     1.0  0.10013  0.34388  0.52665  1.0000
  H   H1005     1.0  0.08034  0.34451  0.54200  1.0000
  H   H1006     1.0  0.08773  0.32825  0.52998  1.0000
  H   H1007     1.0  0.11182  0.30464  0.53588  1.0000
  H   H1008     1.0  0.12330  0.30422  0.55126  1.0000
  H   H1009     1.0  0.12509  0.31970  0.53164  1.0000
  N   N61       1.0  0.21575  0.12958  0.56840  1.0000
  C   C675      1.0  0.21539  0.13143  0.55052  1.0000
  C   C676      1.0  0.23151  0.11735  0.57225  1.0000
  C   C677      1.0  0.20054  0.12329  0.57946  1.0000
  C   C678      1.0  0.21556  0.14622  0.57130  1.0000
  H   H1010     1.0  0.20392  0.14086  0.54698  1.0000
  H   H1011     1.0  0.21504  0.11920  0.54800  1.0000
  H   H1012     1.0  0.22694  0.13563  0.54174  1.0000
  H   H1013     1.0  0.23252  0.11601  0.58549  1.0000
  H   H1014     1.0  0.23178  0.10453  0.57071  1.0000
  H   H1015     1.0  0.24329  0.12132  0.56370  1.0000
  H   H1016     1.0  0.20020  0.12188  0.59307  1.0000
  H   H1017     1.0  0.20045  0.11063  0.57768  1.0000
  H   H1018     1.0  0.18838  0.13195  0.57666  1.0000
  H   H1019     1.0  0.21584  0.14532  0.58468  1.0000
  H   H1020     1.0  0.20386  0.15576  0.56847  1.0000
  H   H1021     1.0  0.22691  0.15124  0.56309  1.0000
  C   C679      1.0  0.48660  0.22959  0.50170  1.0000
  C   C680      1.0  0.34537  0.41123  0.56509  1.0000
  H   H1022     1.0  0.22257  0.04127  0.53915  1.0000
  H   H1023     1.0  0.47317  0.11929  0.60652  1.0000
  H   H1024     1.0  0.20139  0.48492  0.55648  1.0000
  S   S281      1.0  0.41812  0.01081  0.57978  1.0000
  H   H1025     1.0  0.48259  0.42174  0.56337  1.0000
  H   H1026     1.0  0.49673  0.99438  0.63253  1.0000
  H   H1027     1.0  0.24408  0.03107  0.54144  1.0000
  H   H1028     1.0  0.43701  0.43769  0.58236  1.0000
  H   H1029     1.0  0.10607  0.05615  0.56882  1.0000
  C   C681      1.0  0.00060  0.31446  0.56750  1.0000
  H   H1030     1.0  0.19040  0.41494  0.49347  1.0000
  H   H1031     1.0  0.22818  0.07666  0.48738  1.0000
  C   C682      1.0  0.11834  0.46505  0.60558  1.0000
  H   H1032     1.0  0.48191  0.13699  0.72526  1.0000
  H   H1033     1.0  0.33934  0.40626  0.55768  1.0000
  C   C683      1.0  0.46413  0.41993  0.59530  1.0000
  H   H1034     1.0  0.04166  0.09449  0.73156  1.0000
  H   H1035     1.0  0.03656  0.19897  0.56723  1.0000
  S   S282      1.0  0.39760  0.10422  0.72909  1.0000
  H   H1036     1.0  0.09456  0.16497  0.57880  1.0000
  H   H1037     1.0  0.37203  0.41562  0.57410  1.0000
  Fe  Fe144     1.0  0.49635  0.48221  0.65233  1.0000
  C   C684      1.0  0.39941  0.12584  0.56185  1.0000
  H   H1038     1.0  0.49480  0.40791  0.65336  1.0000
  H   H1039     1.0  0.11008  0.03906  0.55826  1.0000
  H   H1040     1.0  0.00447  0.19216  0.59457  1.0000
  C   C685      1.0  0.09030  0.13600  0.68112  1.0000
  C   C686      1.0  0.33646  0.45205  0.66980  1.0000
  C   C687      1.0  0.07006  0.16273  0.67689  1.0000
  H   H1041     1.0  0.11913  0.12032  0.58053  1.0000
  C   C688      1.0  0.46231  0.47839  0.72744  1.0000
  H   H1042     1.0  0.35048  0.40030  0.57462  1.0000
  H   H1043     1.0  0.35183  0.01066  0.56865  1.0000
  H   H1044     1.0  0.39585  0.01956  0.55261  1.0000
  H   H1045     1.0  0.22737  0.03459  0.55977  1.0000
  H   H1046     1.0  0.09022  0.04371  0.57313  1.0000
  H   H1047     1.0  0.38164  0.00764  0.55075  1.0000
  C   C689      1.0  0.42960  0.10143  0.70773  1.0000
  H   H1048     1.0  0.00127  0.34355  0.57450  1.0000
  C   C690      1.0  0.04482  0.16801  0.58683  1.0000
  H   H1049     1.0  0.10446  0.16405  0.55704  1.0000
  H   H1050     1.0  0.32570  0.44534  0.67348  1.0000
  C   C691      1.0  0.47387  0.30923  0.52067  1.0000
  H   H1051     1.0  0.43874  0.20691  0.57832  1.0000
  H   H1052     1.0  0.09504  0.16099  0.69237  1.0000
  H   H1053     1.0  0.35976  0.03411  0.54491  1.0000
  C   C692      1.0  0.99953  0.37995  0.52713  1.0000
  N   N62       1.0  0.11201  0.03120  0.58435  1.0000
  H   H1054     1.0  0.07101  0.40614  0.49622  1.0000
  H   H1055     1.0  0.45451  0.00986  0.61717  1.0000
  H   H1056     1.0  0.07802  0.37503  0.49845  1.0000
  H   H1057     1.0  0.44500  0.40149  0.57634  1.0000
  H   H1058     1.0  0.10077  0.14196  0.67223  1.0000
  H   H1059     1.0  0.01720  0.15454  0.59425  1.0000
  H   H1060     1.0  0.10597  0.43463  0.48826  1.0000
  H   H1061     1.0  0.10319  0.09668  0.71301  1.0000
  H   H1062     1.0  0.12506  0.02872  0.50040  1.0000
  H   H1063     1.0  0.47777  0.14553  0.58513  1.0000
  S   S283      1.0  0.05180  0.09487  0.69604  1.0000
  C   C693      1.0  0.49409  0.10777  0.71511  1.0000
  H   H1064     1.0  0.43715  0.40751  0.59644  1.0000
  H   H1065     1.0  0.38003  0.02220  0.58925  1.0000
  H   H1066     1.0  0.46182  0.30947  0.53063  1.0000
  C   C694      1.0  0.38230  0.14388  0.58103  1.0000
  N   N63       1.0  0.47107  0.42662  0.65568  1.0000
  H   H1067     1.0  0.38762  0.44499  0.73039  1.0000
  H   H1068     1.0  0.47399  0.35126  0.51150  1.0000
  N   N64       1.0  0.44100  0.23253  0.56585  1.0000
  C   C695      1.0  0.45043  0.24148  0.54979  1.0000
  C   C696      1.0  0.44611  0.21406  0.56672  1.0000
  C   C697      1.0  0.31695  0.47938  0.66845  1.0000
  C   C698      1.0  0.44520  0.23631  0.58021  1.0000
  H   H1069     1.0  0.12653  0.45462  0.61240  1.0000
  C   C699      1.0  0.43911  0.01002  0.60030  1.0000
  H   H1070     1.0  0.01741  0.19602  0.56353  1.0000
  C   C700      1.0  0.47461  0.41197  0.56815  1.0000
  C   C701      1.0  0.08526  0.20048  0.48922  1.0000
  H   H1071     1.0  0.37235  0.32766  0.49369  1.0000
  H   H1072     1.0  0.36922  0.30780  0.49222  1.0000
  H   H1073     1.0  0.30402  0.07473  0.49309  1.0000
  H   H1074     1.0  0.49282  0.00140  0.70932  1.0000
  C   C702      1.0  0.08077  0.09581  0.70532  1.0000
  H   H1075     1.0  0.39633  0.02459  0.61186  1.0000
  H   H1076     1.0  0.40787  0.01981  0.65253  1.0000
  H   H1077     1.0  0.47128  0.40982  0.55708  1.0000
  H   H1078     1.0  0.49720  0.42896  0.65132  1.0000
  H   H1079     1.0  0.22013  0.43977  0.49572  1.0000
  H   H1080     1.0  0.14362  0.03795  0.49337  1.0000
  H   H1081     1.0  0.10938  0.02834  0.61110  1.0000
  H   H1082     1.0  0.37693  0.02230  0.65768  1.0000
  H   H1083     1.0  0.00609  0.31229  0.57878  1.0000
  H   H1084     1.0  0.02612  0.15724  0.57194  1.0000
  C   C703      1.0  0.46028  0.41428  0.66543  1.0000
  C   C704      1.0  0.43794  0.47762  0.71753  1.0000
  S   S284      1.0  0.38574  0.98981  0.61480  1.0000
  H   H1085     1.0  0.48934  0.41689  0.67177  1.0000
  C   C705      1.0  0.13059  0.03080  0.58035  1.0000
  C   C706      1.0  0.12446  0.44918  0.48623  1.0000
  H   H1086     1.0  0.48805  0.04126  0.62643  1.0000
  N   N65       1.0  0.07688  0.14840  0.68972  1.0000
  H   H1087     1.0  0.10002  0.37657  0.49073  1.0000
  H   H1088     1.0  0.38301  0.41387  0.53648  1.0000
  H   H1089     1.0  0.25804  0.10268  0.48762  1.0000
  H   H1090     1.0  0.34060  0.15068  0.49023  1.0000
  H   H1091     1.0  0.05328  0.27878  0.48898  1.0000
  H   H1092     1.0  0.45986  0.41167  0.67923  1.0000
  H   H1093     1.0  0.49589  0.02650  0.64399  1.0000
  H   H1094     1.0  0.36143  0.44129  0.53309  1.0000
  N   N66       1.0  0.08428  0.43694  0.59557  1.0000
  C   C707      1.0  0.07093  0.44555  0.60801  1.0000
  C   C708      1.0  0.09036  0.44971  0.58070  1.0000
  C   C709      1.0  0.07701  0.42557  0.59016  1.0000
  C   C710      1.0  0.09885  0.42692  0.60342  1.0000
  H   H1095     1.0  0.05978  0.45339  0.60251  1.0000
  H   H1096     1.0  0.07603  0.45403  0.61258  1.0000
  H   H1097     1.0  0.06596  0.43621  0.61927  1.0000
  H   H1098     1.0  0.07975  0.45755  0.57443  1.0000
  H   H1099     1.0  0.09598  0.45843  0.58434  1.0000
  H   H1100     1.0  0.10052  0.44361  0.57110  1.0000
  H   H1101     1.0  0.08668  0.41919  0.58049  1.0000
  H   H1102     1.0  0.06576  0.43265  0.58452  1.0000
  H   H1103     1.0  0.07264  0.41549  0.60099  1.0000
  H   H1104     1.0  0.10924  0.42035  0.59432  1.0000
  H   H1105     1.0  0.09479  0.41708  0.61464  1.0000
  H   H1106     1.0  0.10456  0.43514  0.60773  1.0000
  H   H1107     1.0  0.41147  0.01050  0.63473  1.0000
  C   C711      1.0  0.06766  0.20756  0.49105  1.0000
  H   H1108     1.0  0.08964  0.14417  0.71003  1.0000
  C   C712      1.0  0.42233  0.23822  0.56674  1.0000
  H   H1109     1.0  0.45732  0.44757  0.72927  1.0000
  H   H1110     1.0  0.45651  0.39168  0.59296  1.0000
  H   H1111     1.0  0.43581  0.48933  0.65144  1.0000
  H   H1112     1.0  0.10103  0.14808  0.49027  1.0000
  H   H1113     1.0  0.11518  0.00465  0.59628  1.0000
  C   C713      1.0  0.32835  0.46765  0.64342  1.0000
  H   H1114     1.0  0.12618  0.12368  0.48978  1.0000
  C   C714      1.0  0.06285  0.14014  0.70067  1.0000
  C   C715      1.0  0.20232  0.41817  0.49409  1.0000
  H   H1115     1.0  0.08038  0.16908  0.66823  1.0000
  H   H1116     1.0  0.47198  0.45224  0.65454  1.0000
  C   C716      1.0  0.47856  0.14866  0.62435  1.0000
  H   H1117     1.0  0.05747  0.13435  0.69340  1.0000
  H   H1118     1.0  0.33945  0.45982  0.63614  1.0000
  H   H1119     1.0  0.47532  0.11676  0.62781  1.0000
  H   H1120     1.0  0.49406  0.31213  0.53912  1.0000
  H   H1121     1.0  0.47669  0.41806  0.63244  1.0000
  H   H1122     1.0  0.20473  0.01756  0.56980  1.0000
  H   H1123     1.0  0.46551  0.34012  0.50136  1.0000
  C   C717      1.0  0.10381  0.03695  0.60039  1.0000
  H   H1124     1.0  0.31942  0.48077  0.68031  1.0000
  H   H1125     1.0  0.47868  0.47861  0.69510  1.0000
  H   H1126     1.0  0.20478  0.00255  0.55805  1.0000
  C   C718      1.0  0.00711  0.13188  0.62750  1.0000
  H   H1127     1.0  0.48300  0.29712  0.52437  1.0000
  H   H1128     1.0  0.49487  0.03352  0.59876  1.0000
  C   C719      1.0  0.01170  0.11461  0.62737  1.0000
  C   C720      1.0  0.03961  0.43802  0.73459  1.0000
  H   H1129     1.0  0.13687  0.02207  0.59054  1.0000
  H   H1130     1.0  0.06056  0.25777  0.50052  1.0000
  H   H1131     1.0  0.00868  0.41889  0.71302  1.0000
  H   H1132     1.0  0.09554  0.01379  0.58902  1.0000
  H   H1133     1.0  0.38551  0.16646  0.48623  1.0000
  H   H1134     1.0  0.33620  0.99473  0.48934  1.0000
  H   H1135     1.0  0.34499  0.02456  0.58322  1.0000
  H   H1136     1.0  0.02371  0.19557  0.59760  1.0000
  H   H1137     1.0  0.46903  0.11728  0.69775  1.0000
  H   H1138     1.0  0.32546  0.48026  0.63480  1.0000
  H   H1139     1.0  0.09145  0.19857  0.49955  1.0000
  H   H1140     1.0  0.00172  0.39459  0.60512  1.0000
  N   N67       1.0  0.45686  0.47307  0.71473  1.0000
  H   H1141     1.0  0.07551  0.27120  0.48996  1.0000
  C   C721      1.0  0.49817  0.01993  0.60520  1.0000
  H   H1142     1.0  0.20059  0.41988  0.50718  1.0000
  H   H1143     1.0  0.01153  0.31457  0.55629  1.0000
  H   H1144     1.0  0.32119  0.01409  0.50883  1.0000
  C   C722      1.0  0.03797  0.47273  0.72870  1.0000
  N   N68       1.0  0.48880  0.12459  0.70435  1.0000
  C   C723      1.0  0.23708  0.00124  0.56001  1.0000
  H   H1145     1.0  0.31722  0.46161  0.64619  1.0000
  H   H1146     1.0  0.45790  0.43484  0.63513  1.0000
  C   C724      1.0  0.06404  0.26746  0.48887  1.0000
  H   H1147     1.0  0.43191  0.47129  0.73039  1.0000
  H   H1148     1.0  0.47406  0.18969  0.48940  1.0000
  H   H1149     1.0  0.14592  0.01549  0.50116  1.0000
  H   H1150     1.0  0.35554  0.00195  0.48575  1.0000
  S   S285      1.0  0.49770  0.21230  0.54828  1.0000
  H   H1151     1.0  0.07048  0.48489  0.71961  1.0000
  H   H1152     1.0  0.08784  0.03840  0.73489  1.0000
  C   C725      1.0  0.26711  0.01707  0.90812  1.0000
  H   H1153     1.0  0.16201  0.42954  0.86602  1.0000
  S   S286      1.0  0.01424  0.00705  0.81235  1.0000
  C   C726      1.0  0.04387  0.35844  0.96667  1.0000
  C   C727      1.0  0.03588  0.28563  0.96630  1.0000
  H   H1154     1.0  0.05396  0.28818  0.89427  1.0000
  Fe  Fe145     1.0  0.05843  0.17770  0.90674  1.0000
  S   S287      1.0  0.07156  0.19051  0.88135  1.0000
  S   S288      1.0  0.07294  0.16305  0.92725  1.0000
  Fe  Fe146     1.0  0.04852  0.21186  0.88345  1.0000
  H   H1155     1.0  0.37443  0.13337  0.96546  1.0000
  Fe  Fe147     1.0  0.05616  0.17885  0.87129  1.0000
  S   S289      1.0  0.07122  0.16539  0.85036  1.0000
  S   S290      1.0  0.04435  0.16465  0.89661  1.0000
  Fe  Fe148     1.0  0.07529  0.06431  0.80719  1.0000
  S   S291      1.0  0.10017  0.06924  0.79025  1.0000
  S   S292      1.0  0.07590  0.03637  0.81413  1.0000
  Fe  Fe149     1.0  0.06214  0.10114  0.80963  1.0000
  S   S293      1.0  0.08602  0.10882  0.79233  1.0000
  S   S294      1.0  0.04065  0.11923  0.82306  1.0000
  Fe  Fe150     1.0  0.08409  0.09202  0.77656  1.0000
  S   S295      1.0  0.09309  0.09747  0.74799  1.0000
  Fe  Fe151     1.0  0.09970  0.08529  0.80772  1.0000
  S   S296      1.0  0.12378  0.08439  0.81581  1.0000
  S   S297      1.0  0.05892  0.08617  0.79252  1.0000
  S   S298      1.0  0.07601  0.07856  0.82583  1.0000
  Fe  Fe152     1.0  0.15618  0.10177  0.90488  1.0000
  S   S299      1.0  0.13769  0.08581  0.92124  1.0000
  S   S300      1.0  0.15005  0.13026  0.89761  1.0000
  Fe  Fe153     1.0  0.18439  0.07108  0.89786  1.0000
  S   S301      1.0  0.16809  0.05255  0.91370  1.0000
  S   S302      1.0  0.21074  0.06308  0.88204  1.0000
  Fe  Fe154     1.0  0.14720  0.07037  0.90130  1.0000
  S   S303      1.0  0.12730  0.06236  0.89336  1.0000
  Fe  Fe155     1.0  0.16021  0.06976  0.93210  1.0000
  S   S304      1.0  0.16409  0.08758  0.88404  1.0000
  S   S305      1.0  0.17811  0.08698  0.91714  1.0000
  Fe  Fe156     1.0  0.40225  0.11887  0.78115  1.0000
  S   S306      1.0  0.42496  0.10151  0.79037  1.0000
  S   S307      1.0  0.38405  0.13690  0.79669  1.0000
  H   H1156     1.0  0.17939  0.45218  0.96529  1.0000
  S   S308      1.0  0.43260  0.08466  0.75735  1.0000
  H   H1157     1.0  0.44013  0.07216  0.81678  1.0000
  Fe  Fe157     1.0  0.41696  0.08120  0.78395  1.0000
  S   S309      1.0  0.41892  0.05630  0.80279  1.0000
  Fe  Fe158     1.0  0.43855  0.10675  0.76310  1.0000
  H   H1158     1.0  0.36537  0.03509  0.83587  1.0000
  S   S310      1.0  0.39283  0.09807  0.77692  1.0000
  S   S311      1.0  0.41630  0.12592  0.75424  1.0000
  Fe  Fe159     1.0  0.39635  0.17856  0.85917  1.0000
  S   S312      1.0  0.36999  0.19392  0.85658  1.0000
  S   S313      1.0  0.41637  0.16721  0.83869  1.0000
  Fe  Fe160     1.0  0.38982  0.17937  0.89630  1.0000
  S   S314      1.0  0.36302  0.19442  0.89680  1.0000
  S   S315      1.0  0.39749  0.16989  0.92139  1.0000
  Fe  Fe161     1.0  0.36109  0.17715  0.88156  1.0000
  S   S316      1.0  0.33950  0.16315  0.89061  1.0000
  Fe  Fe162     1.0  0.37454  0.20973  0.87201  1.0000
  S   S317      1.0  0.36606  0.23827  0.86687  1.0000
  S   S318      1.0  0.38707  0.16077  0.88311  1.0000
  S   S319      1.0  0.40173  0.19577  0.87252  1.0000
  Fe  Fe163     1.0  0.33500  0.07385  0.86322  1.0000
  S   S320      1.0  0.33406  0.08781  0.83671  1.0000
  S   S321      1.0  0.36065  0.05990  0.86914  1.0000
  Fe  Fe164     1.0  0.29594  0.08318  0.87493  1.0000
  S   S322      1.0  0.29236  0.09789  0.84899  1.0000
  S   S323      1.0  0.27347  0.08104  0.89728  1.0000
  Fe  Fe165     1.0  0.31205  0.07590  0.84009  1.0000
  S   S324      1.0  0.31291  0.06091  0.82129  1.0000
  Fe  Fe166     1.0  0.31489  0.10812  0.84868  1.0000
  S   S325      1.0  0.31859  0.13500  0.83822  1.0000
  S   S326      1.0  0.31409  0.06049  0.86609  1.0000
  S   S327      1.0  0.31728  0.09479  0.87516  1.0000
  H   H1159     1.0  0.49449  0.17183  0.81522  1.0000
  H   H1160     1.0  0.38415  0.14187  0.94411  1.0000
  H   H1161     1.0  0.49848  0.44590  0.77442  1.0000
  S   S328      1.0  0.43610  0.21395  0.94175  1.0000
  H   H1162     1.0  0.18938  0.42318  0.83498  1.0000
  S   S329      1.0  0.46634  0.37852  0.91741  1.0000
  C   C728      1.0  0.08703  0.01213  0.85720  1.0000
  Fe  Fe167     1.0  0.38325  0.45795  0.78066  1.0000
  S   S330      1.0  0.40085  0.45963  0.79577  1.0000
  S   S331      1.0  0.35450  0.46548  0.78854  1.0000
  Fe  Fe168     1.0  0.41654  0.47006  0.77069  1.0000
  Fe  Fe169     1.0  0.41480  0.43400  0.79045  1.0000
  S   S332      1.0  0.43230  0.44470  0.76673  1.0000
  S   S333      1.0  0.39764  0.47078  0.75586  1.0000
  S   S334      1.0  0.39625  0.43160  0.77665  1.0000
  Fe  Fe170     1.0  0.39187  0.30427  0.89855  1.0000
  S   S335      1.0  0.39405  0.31641  0.91830  1.0000
  S   S336      1.0  0.39352  0.27600  0.90613  1.0000
  Fe  Fe171     1.0  0.39647  0.33596  0.87065  1.0000
  S   S337      1.0  0.39988  0.35010  0.88814  1.0000
  S   S338      1.0  0.39674  0.34720  0.84293  1.0000
  Fe  Fe172     1.0  0.41589  0.32537  0.89888  1.0000
  S   S339      1.0  0.44070  0.31898  0.90714  1.0000
  Fe  Fe173     1.0  0.37763  0.33991  0.90584  1.0000
  S   S340      1.0  0.35824  0.35821  0.92060  1.0000
  S   S341      1.0  0.41473  0.31211  0.87967  1.0000
  S   S342      1.0  0.37316  0.32688  0.88779  1.0000
  Fe  Fe174     1.0  0.27655  0.45467  0.90865  1.0000
  S   S343      1.0  0.26554  0.43783  0.90000  1.0000
  H   H1163     1.0  0.21300  0.00528  0.85152  1.0000
  Fe  Fe175     1.0  0.29588  0.46808  0.87333  1.0000
  S   S344      1.0  0.28544  0.45324  0.86153  1.0000
  H   H1164     1.0  0.38884  0.35977  0.94448  1.0000
  Fe  Fe176     1.0  0.26012  0.46048  0.87926  1.0000
  S   S345      1.0  0.23353  0.47069  0.87349  1.0000
  Fe  Fe177     1.0  0.29169  0.43204  0.88336  1.0000
  S   S346      1.0  0.30603  0.40708  0.87665  1.0000
  H   H1165     1.0  0.47476  0.06199  0.77986  1.0000
  S   S347      1.0  0.30338  0.44649  0.89431  1.0000
  C   C729      1.0  0.11196  0.00576  0.83523  1.0000
  H   H1166     1.0  0.41242  0.36170  0.95605  1.0000
  H   H1167     1.0  0.43541  0.26894  0.94730  1.0000
  Fe  Fe178     1.0  0.14924  0.43611  0.90735  1.0000
  S   S348      1.0  0.12619  0.43936  0.92857  1.0000
  S   S349      1.0  0.17545  0.42937  0.91339  1.0000
  Fe  Fe179     1.0  0.12743  0.44137  0.88184  1.0000
  S   S350      1.0  0.10264  0.44576  0.90079  1.0000
  S   S351      1.0  0.12834  0.44039  0.85518  1.0000
  Fe  Fe180     1.0  0.11547  0.46115  0.90946  1.0000
  S   S352      1.0  0.04827  0.23989  0.87568  1.0000
  Fe  Fe181     1.0  0.11577  0.42353  0.91788  1.0000
  S   S353      1.0  0.10092  0.40415  0.93491  1.0000
  S   S354      1.0  0.13919  0.45893  0.88877  1.0000
  S   S355      1.0  0.13987  0.41806  0.89844  1.0000
  Fe  Fe182     1.0  0.04809  0.45959  0.81956  1.0000
  S   S356      1.0  0.06544  0.44605  0.79956  1.0000
  S   S357      1.0  0.05676  0.47344  0.83406  1.0000
  S   S358      1.0  0.03162  0.43408  0.79738  1.0000
  Fe  Fe183     1.0  0.05127  0.42516  0.81337  1.0000
  S   S359      1.0  0.06481  0.39793  0.82019  1.0000
  Fe  Fe184     1.0  0.04390  0.45652  0.78566  1.0000
  S   S360      1.0  0.04598  0.47123  0.75856  1.0000
  S   S361      1.0  0.02760  0.47202  0.80463  1.0000
  Fe  Fe185     1.0  0.07867  0.33219  0.91393  1.0000
  S   S362      1.0  0.05389  0.35041  0.92066  1.0000
  S   S363      1.0  0.10332  0.34136  0.90581  1.0000
  Fe  Fe186     1.0  0.06129  0.30252  0.92053  1.0000
  S   S364      1.0  0.06416  0.27406  0.92655  1.0000
  Fe  Fe187     1.0  0.04453  0.33840  0.90516  1.0000
  Fe  Fe188     1.0  0.04711  0.32894  0.94205  1.0000
  S   S365      1.0  0.06987  0.32135  0.89691  1.0000
  S   S366      1.0  0.07281  0.31171  0.93666  1.0000
  S   S367      1.0  0.42459  0.41503  0.81229  1.0000
  H   H1168     1.0  0.29554  0.04052  0.90591  1.0000
  H   H1169     1.0  0.32957  0.14888  0.95955  1.0000
  C   C730      1.0  0.05461  0.38637  0.83929  1.0000
  C   C731      1.0  0.03796  0.39303  0.84736  1.0000
  C   C732      1.0  0.02979  0.38355  0.86239  1.0000
  C   C733      1.0  0.03832  0.36747  0.86958  1.0000
  C   C734      1.0  0.05509  0.36088  0.86169  1.0000
  C   C735      1.0  0.06317  0.37027  0.84647  1.0000
  H   H1170     1.0  0.03116  0.40527  0.84183  1.0000
  N   N69       1.0  0.47760  0.46467  0.78456  1.0000
  H   H1171     1.0  0.07603  0.36498  0.84024  1.0000
  H   H1172     1.0  0.06965  0.05588  0.73646  1.0000
  H   H1173     1.0  0.09597  0.34388  0.97741  1.0000
  H   H1174     1.0  0.45201  0.06576  0.78814  1.0000
  C   C736      1.0  0.10833  0.44937  0.84953  1.0000
  C   C737      1.0  0.10400  0.44371  0.83736  1.0000
  C   C738      1.0  0.08803  0.45072  0.83283  1.0000
  C   C739      1.0  0.07649  0.46373  0.84014  1.0000
  C   C740      1.0  0.08089  0.46946  0.85221  1.0000
  C   C741      1.0  0.09668  0.46219  0.85702  1.0000
  H   H1175     1.0  0.11298  0.43384  0.83148  1.0000
  H   H1176     1.0  0.08482  0.44624  0.82347  1.0000
  H   H1177     1.0  0.34122  0.04088  0.80248  1.0000
  H   H1178     1.0  0.09999  0.46680  0.86625  1.0000
  C   C742      1.0  0.10179  0.38662  0.92683  1.0000
  C   C743      1.0  0.11410  0.38290  0.91248  1.0000
  C   C744      1.0  0.11472  0.36874  0.90635  1.0000
  C   C745      1.0  0.10281  0.35843  0.91434  1.0000
  C   C746      1.0  0.09047  0.36214  0.92870  1.0000
  C   C747      1.0  0.09006  0.37613  0.93502  1.0000
  H   H1179     1.0  0.12328  0.39077  0.90617  1.0000
  H   H1180     1.0  0.12434  0.36585  0.89530  1.0000
  H   H1181     1.0  0.08132  0.35417  0.93502  1.0000
  H   H1182     1.0  0.08050  0.37895  0.94612  1.0000
  H   H1183     1.0  0.18745  0.07261  0.94897  1.0000
  C   C748      1.0  0.05154  0.26682  0.88609  1.0000
  H   H1184     1.0  0.08123  0.01829  0.86820  1.0000
  C   C749      1.0  0.21737  0.45913  0.88436  1.0000
  C   C750      1.0  0.20012  0.46669  0.88386  1.0000
  C   C751      1.0  0.18706  0.45775  0.89269  1.0000
  C   C752      1.0  0.19122  0.44118  0.90203  1.0000
  C   C753      1.0  0.20841  0.43370  0.90253  1.0000
  C   C754      1.0  0.22142  0.44258  0.89366  1.0000
  H   H1185     1.0  0.19685  0.47955  0.87678  1.0000
  H   H1186     1.0  0.17380  0.46377  0.89250  1.0000
  H   H1187     1.0  0.21175  0.42088  0.90968  1.0000
  H   H1188     1.0  0.23461  0.43645  0.89387  1.0000
  C   C755      1.0  0.39283  0.33939  0.97465  1.0000
  Fe  Fe189     1.0  0.01657  0.44901  0.81710  1.0000
  H   H1189     1.0  0.39410  0.37231  0.81215  1.0000
  C   C756      1.0  0.30138  0.47370  0.95831  1.0000
  C   C757      1.0  0.27969  0.46454  0.94371  1.0000
  C   C758      1.0  0.29575  0.46732  0.93414  1.0000
  C   C759      1.0  0.40719  0.39133  0.81202  1.0000
  H   H1190     1.0  0.17296  0.46291  0.86231  1.0000
  C   C760      1.0  0.11537  0.00613  0.86270  1.0000
  C   C761      1.0  0.06840  0.05736  0.76814  1.0000
  C   C762      1.0  0.34380  0.37216  0.90845  1.0000
  C   C763      1.0  0.33237  0.38617  0.91426  1.0000
  C   C764      1.0  0.32075  0.39717  0.90455  1.0000
  C   C765      1.0  0.32037  0.39394  0.88920  1.0000
  C   C766      1.0  0.33172  0.37993  0.88352  1.0000
  C   C767      1.0  0.34357  0.36928  0.89294  1.0000
  H   H1191     1.0  0.33250  0.38846  0.92625  1.0000
  H   H1192     1.0  0.31190  0.40790  0.90908  1.0000
  H   H1193     1.0  0.33132  0.37725  0.87178  1.0000
  H   H1194     1.0  0.35232  0.35866  0.88829  1.0000
  C   C768      1.0  0.34436  0.47012  0.80859  1.0000
  C   C769      1.0  0.32663  0.47132  0.81409  1.0000
  C   C770      1.0  0.31800  0.47517  0.82988  1.0000
  C   C771      1.0  0.32699  0.47819  0.84018  1.0000
  C   C772      1.0  0.34475  0.47711  0.83467  1.0000
  C   C773      1.0  0.35346  0.47284  0.81901  1.0000
  H   H1195     1.0  0.31949  0.46928  0.80609  1.0000
  H   H1196     1.0  0.30428  0.47624  0.83388  1.0000
  H   H1197     1.0  0.42529  0.34286  0.96621  1.0000
  H   H1198     1.0  0.36713  0.47179  0.81499  1.0000
  C   C774      1.0  0.41660  0.39632  0.82057  1.0000
  N   N70       1.0  0.47182  0.16418  0.83189  1.0000
  S   S368      1.0  0.02747  0.35565  0.88798  1.0000
  C   C775      1.0  0.40447  0.36606  0.83446  1.0000
  C   C776      1.0  0.41385  0.37110  0.84300  1.0000
  C   C777      1.0  0.41988  0.38617  0.83608  1.0000
  H   H1199     1.0  0.45188  0.08872  0.81130  1.0000
  H   H1200     1.0  0.22940  0.10743  0.88232  1.0000
  H   H1201     1.0  0.41676  0.36325  0.85478  1.0000
  H   H1202     1.0  0.42711  0.38998  0.84276  1.0000
  C   C778      1.0  0.45808  0.36202  0.91605  1.0000
  C   C779      1.0  0.44273  0.36547  0.91065  1.0000
  C   C780      1.0  0.43712  0.35226  0.90800  1.0000
  C   C781      1.0  0.44683  0.33566  0.91091  1.0000
  C   C782      1.0  0.46189  0.33222  0.91675  1.0000
  C   C783      1.0  0.46749  0.34537  0.91935  1.0000
  H   H1203     1.0  0.43543  0.37838  0.90811  1.0000
  H   H1204     1.0  0.42547  0.35497  0.90350  1.0000
  H   H1205     1.0  0.46941  0.31937  0.91905  1.0000
  H   H1206     1.0  0.26178  0.46488  0.96769  1.0000
  C   C784      1.0  0.17545  0.42951  0.86594  1.0000
  C   C785      1.0  0.05488  0.27461  0.89731  1.0000
  H   H1207     1.0  0.39107  0.03217  0.81236  1.0000
  C   C786      1.0  0.30175  0.04486  0.83272  1.0000
  C   C787      1.0  0.30646  0.02869  0.82895  1.0000
  C   C788      1.0  0.29853  0.01557  0.83971  1.0000
  C   C789      1.0  0.28581  0.01879  0.85405  1.0000
  C   C790      1.0  0.28059  0.03518  0.85716  1.0000
  C   C791      1.0  0.28865  0.04806  0.84663  1.0000
  H   H1208     1.0  0.31655  0.02615  0.81810  1.0000
  H   H1209     1.0  0.45196  0.46607  0.78258  1.0000
  H   H1210     1.0  0.27050  0.03795  0.86789  1.0000
  H   H1211     1.0  0.28487  0.06057  0.84927  1.0000
  C   C792      1.0  0.37367  0.24865  0.87789  1.0000
  C   C793      1.0  0.36538  0.26529  0.87946  1.0000
  C   C794      1.0  0.37138  0.27386  0.88809  1.0000
  C   C795      1.0  0.38585  0.26589  0.89492  1.0000
  C   C796      1.0  0.39405  0.24922  0.89347  1.0000
  C   C797      1.0  0.38801  0.24063  0.88492  1.0000
  H   H1212     1.0  0.35415  0.27146  0.87419  1.0000
  H   H1213     1.0  0.36466  0.28653  0.88967  1.0000
  H   H1214     1.0  0.40515  0.24293  0.89891  1.0000
  H   H1215     1.0  0.39450  0.22784  0.88373  1.0000
  C   C798      1.0  0.40902  0.18181  0.92641  1.0000
  C   C799      1.0  0.41117  0.17832  0.94302  1.0000
  C   C800      1.0  0.41971  0.18804  0.94764  1.0000
  C   C801      1.0  0.42620  0.20126  0.93567  1.0000
  C   C802      1.0  0.42447  0.20449  0.91892  1.0000
  C   C803      1.0  0.41578  0.19483  0.91431  1.0000
  H   H1216     1.0  0.40606  0.16819  0.95241  1.0000
  H   H1217     1.0  0.47178  0.15295  0.97496  1.0000
  H   H1218     1.0  0.42957  0.21465  0.90958  1.0000
  H   H1219     1.0  0.41428  0.19751  0.90143  1.0000
  C   C804      1.0  0.33268  0.15674  0.87571  1.0000
  C   C805      1.0  0.32220  0.14486  0.88156  1.0000
  C   C806      1.0  0.31740  0.13860  0.87011  1.0000
  C   C807      1.0  0.32304  0.14412  0.85269  1.0000
  C   C808      1.0  0.33304  0.15646  0.84678  1.0000
  C   C809      1.0  0.33790  0.16273  0.85827  1.0000
  H   H1220     1.0  0.31787  0.14039  0.89502  1.0000
  H   H1221     1.0  0.30910  0.12966  0.87481  1.0000
  H   H1222     1.0  0.33728  0.16096  0.83332  1.0000
  H   H1223     1.0  0.34583  0.17205  0.85363  1.0000
  H   H1224     1.0  0.01661  0.04130  0.81029  1.0000
  H   H1225     1.0  0.27276  0.04476  0.91397  1.0000
  H   H1226     1.0  0.44717  0.12164  0.78562  1.0000
  C   C810      1.0  0.40329  0.05780  0.82153  1.0000
  C   C811      1.0  0.40337  0.04403  0.83539  1.0000
  C   C812      1.0  0.39044  0.04487  0.85013  1.0000
  C   C813      1.0  0.37721  0.05933  0.85092  1.0000
  C   C814      1.0  0.37733  0.07316  0.83714  1.0000
  C   C815      1.0  0.39042  0.07246  0.82254  1.0000
  H   H1227     1.0  0.41335  0.03267  0.83470  1.0000
  H   H1228     1.0  0.39050  0.03417  0.86081  1.0000
  H   H1229     1.0  0.36761  0.08461  0.83780  1.0000
  H   H1230     1.0  0.39044  0.08327  0.81206  1.0000
  C   C816      1.0  0.39336  0.14578  0.80764  1.0000
  C   C817      1.0  0.38267  0.15486  0.81969  1.0000
  C   C818      1.0  0.38971  0.16133  0.82928  1.0000
  C   C819      1.0  0.40749  0.15909  0.82665  1.0000
  C   C820      1.0  0.41822  0.15018  0.81442  1.0000
  C   C821      1.0  0.41115  0.14346  0.80497  1.0000
  H   H1231     1.0  0.36890  0.15676  0.82174  1.0000
  H   H1232     1.0  0.38133  0.16808  0.83869  1.0000
  H   H1233     1.0  0.43198  0.14852  0.81219  1.0000
  H   H1234     1.0  0.41943  0.13674  0.79546  1.0000
  S   S369      1.0  0.27705  0.00261  0.86924  1.0000
  C   C822      1.0  0.22783  0.06837  0.88657  1.0000
  C   C823      1.0  0.22695  0.07093  0.90257  1.0000
  C   C824      1.0  0.24095  0.07495  0.90583  1.0000
  C   C825      1.0  0.25570  0.07669  0.89302  1.0000
  C   C826      1.0  0.25633  0.07450  0.87701  1.0000
  C   C827      1.0  0.24256  0.07013  0.87383  1.0000
  H   H1235     1.0  0.21569  0.06943  0.91254  1.0000
  H   H1236     1.0  0.24038  0.07662  0.91829  1.0000
  H   H1237     1.0  0.26749  0.07620  0.86707  1.0000
  H   H1238     1.0  0.24329  0.06828  0.86139  1.0000
  H   H1239     1.0  0.06189  0.02613  0.77838  1.0000
  C   C828      1.0  0.06403  0.09562  0.73922  1.0000
  H   H1240     1.0  0.40481  0.39892  0.79994  1.0000
  H   H1241     1.0  0.48210  0.37752  0.88107  1.0000
  S   S370      1.0  0.03645  0.20003  0.90975  1.0000
  H   H1242     1.0  0.26450  0.02281  0.89528  1.0000
  H   H1243     1.0  0.05743  0.09593  0.75218  1.0000
  H   H1244     1.0  0.46834  0.25512  0.90201  1.0000
  H   H1245     1.0  0.31931  0.47344  0.93433  1.0000
  C   C829      1.0  0.12450  0.07818  0.83743  1.0000
  C   C830      1.0  0.13905  0.07896  0.84232  1.0000
  C   C831      1.0  0.14007  0.07407  0.85943  1.0000
  C   C832      1.0  0.12654  0.06831  0.87177  1.0000
  C   C833      1.0  0.11204  0.06739  0.86689  1.0000
  C   C834      1.0  0.11097  0.07240  0.84979  1.0000
  H   H1246     1.0  0.14960  0.08332  0.83281  1.0000
  H   H1247     1.0  0.15145  0.07450  0.86297  1.0000
  H   H1248     1.0  0.10151  0.06296  0.87639  1.0000
  H   H1249     1.0  0.09970  0.07179  0.84621  1.0000
  C   C835      1.0  0.05288  0.24922  0.88984  1.0000
  C   C836      1.0  0.05964  0.26480  0.91230  1.0000
  C   C837      1.0  0.06084  0.24721  0.91611  1.0000
  C   C838      1.0  0.05744  0.23943  0.90493  1.0000
  H   H1250     1.0  0.06457  0.23956  0.92766  1.0000
  H   H1251     1.0  0.05857  0.22584  0.90787  1.0000
  C   C839      1.0  0.09451  0.15422  0.91921  1.0000
  C   C840      1.0  0.10406  0.16295  0.90468  1.0000
  C   C841      1.0  0.12120  0.15567  0.89830  1.0000
  C   C842      1.0  0.12886  0.13956  0.90638  1.0000
  C   C843      1.0  0.11944  0.13098  0.92114  1.0000
  C   C844      1.0  0.10231  0.13830  0.92755  1.0000
  H   H1252     1.0  0.12846  0.16248  0.88699  1.0000
  H   H1253     1.0  0.12538  0.11880  0.92777  1.0000
  H   H1254     1.0  0.09505  0.13150  0.93887  1.0000
  C   C845      1.0  0.06204  0.15253  0.84360  1.0000
  C   C846      1.0  0.04438  0.15310  0.84787  1.0000
  C   C847      1.0  0.03772  0.14284  0.84163  1.0000
  C   C848      1.0  0.04879  0.13173  0.83150  1.0000
  C   C849      1.0  0.06643  0.13082  0.82789  1.0000
  C   C850      1.0  0.07297  0.14144  0.83354  1.0000
  H   H1255     1.0  0.03586  0.16165  0.85567  1.0000
  H   H1256     1.0  0.02407  0.14352  0.84465  1.0000
  H   H1257     1.0  0.07513  0.12204  0.82059  1.0000
  H   H1258     1.0  0.08663  0.14093  0.83018  1.0000
  C   C851      1.0  0.18211  0.07367  0.96195  1.0000
  C   C852      1.0  0.03115  0.01551  0.81286  1.0000
  H   H1259     1.0  0.47819  0.03864  0.80520  1.0000
  C   C853      1.0  0.06054  0.01136  0.81513  1.0000
  C   C854      1.0  0.05835  0.02876  0.81384  1.0000
  C   C855      1.0  0.04255  0.03963  0.81199  1.0000
  C   C856      1.0  0.02890  0.03297  0.81157  1.0000
  H   H1260     1.0  0.47588  0.18876  0.81745  1.0000
  H   H1261     1.0  0.47411  0.41906  0.94061  1.0000
  H   H1262     1.0  0.04080  0.05308  0.81107  1.0000
  H   H1263     1.0  0.22883  0.12909  0.88175  1.0000
  S   S371      1.0  0.03511  0.31867  0.92730  1.0000
  N   N71       1.0  0.22476  0.01771  0.86311  1.0000
  H   H1264     1.0  0.46919  0.46223  0.81152  1.0000
  H   H1265     1.0  0.02523  0.37650  0.83074  1.0000
  H   H1266     1.0  0.45812  0.15066  0.82366  1.0000
  C   C857      1.0  0.08134  0.04900  0.74151  1.0000
  H   H1267     1.0  0.48183  0.47782  0.80119  1.0000
  H   H1268     1.0  0.04390  0.29399  0.95675  1.0000
  H   H1269     1.0  0.24550  0.99594  0.86430  1.0000
  C   C858      1.0  0.46622  0.11992  0.79916  1.0000
  N   N72       1.0  0.04557  0.27406  0.97883  1.0000
  C   C859      1.0  0.16665  0.46109  0.96682  1.0000
  C   C860      1.0  0.08979  0.38982  0.97802  1.0000
  C   C861      1.0  0.07569  0.17146  0.98412  1.0000
  Fe  Fe190     1.0  0.40909  0.10339  0.75068  1.0000
  H   H1270     1.0  0.35990  0.03988  0.78557  1.0000
  C   C862      1.0  0.22180  0.47763  0.91725  1.0000
  H   H1271     1.0  0.49025  0.42719  0.85642  1.0000
  N   N73       1.0  0.45154  0.26500  0.92323  1.0000
  C   C863      1.0  0.46279  0.27613  0.92283  1.0000
  C   C864      1.0  0.46191  0.25063  0.91538  1.0000
  H   H1272     1.0  0.07158  0.01964  0.75867  1.0000
  H   H1273     1.0  0.46897  0.28146  0.90960  1.0000
  H   H1274     1.0  0.47335  0.26909  0.92951  1.0000
  H   H1275     1.0  0.45549  0.28703  0.92879  1.0000
  H   H1276     1.0  0.21461  0.02666  0.84056  1.0000
  N   N74       1.0  0.20444  0.12393  0.88299  1.0000
  C   C865      1.0  0.19783  0.11249  0.87698  1.0000
  C   C866      1.0  0.19679  0.14172  0.87600  1.0000
  H   H1277     1.0  0.20151  0.11424  0.86297  1.0000
  H   H1278     1.0  0.18359  0.11479  0.88067  1.0000
  H   H1279     1.0  0.20148  0.15076  0.88022  1.0000
  H   H1280     1.0  0.18252  0.14439  0.88018  1.0000
  H   H1281     1.0  0.19991  0.14461  0.86191  1.0000
  H   H1282     1.0  0.22737  0.12317  0.86328  1.0000
  N   N75       1.0  0.36664  0.22565  0.94044  1.0000
  C   C867      1.0  0.34807  0.22686  0.94753  1.0000
  C   C868      1.0  0.37066  0.24256  0.93698  1.0000
  C   C869      1.0  0.37152  0.21950  0.92455  1.0000
  C   C870      1.0  0.37635  0.21367  0.95274  1.0000
  H   H1283     1.0  0.07947  0.39480  0.97068  1.0000
  H   H1284     1.0  0.34405  0.23135  0.95962  1.0000
  H   H1285     1.0  0.45345  0.38208  0.95922  1.0000
  H   H1286     1.0  0.36375  0.25193  0.92755  1.0000
  H   H1287     1.0  0.36709  0.24764  0.94868  1.0000
  H   H1288     1.0  0.38463  0.24210  0.93178  1.0000
  H   H1289     1.0  0.38536  0.21889  0.91873  1.0000
  H   H1290     1.0  0.36415  0.22801  0.91505  1.0000
  H   H1291     1.0  0.36926  0.20652  0.92673  1.0000
  H   H1292     1.0  0.11039  0.01208  0.87389  1.0000
  H   H1293     1.0  0.28473  0.40982  0.97824  1.0000
  H   H1294     1.0  0.27581  0.01823  0.93613  1.0000
  H   H1295     1.0  0.04879  0.99134  0.81545  1.0000
  C   C871      1.0  0.04212  0.44487  0.74702  1.0000
  H   H1296     1.0  0.24846  0.02534  0.84962  1.0000
  H   H1297     1.0  0.11537  0.99235  0.86729  1.0000
  H   H1298     1.0  0.29998  0.46544  0.92132  1.0000
  H   H1299     1.0  0.42073  0.31469  0.96705  1.0000
  N   N76       1.0  0.47949  0.36944  0.85993  1.0000
  H   H1300     1.0  0.07669  0.34199  0.97308  1.0000
  H   H1301     1.0  0.14377  0.43631  0.96038  1.0000
  N   N77       1.0  0.47764  0.17164  0.95222  1.0000
  H   H1302     1.0  0.43477  0.25005  0.94164  1.0000
  H   H1303     1.0  0.11853  0.03435  0.83842  1.0000
  C   C872      1.0  0.30662  0.47193  0.94146  1.0000
  C   C873      1.0  0.00216  0.26508  0.89100  1.0000
  C   C874      1.0  0.14733  0.48770  0.92701  1.0000
  H   H1304     1.0  0.45763  0.19040  0.96329  1.0000
  H   H1305     1.0  0.47479  0.37309  0.94939  1.0000
  H   H1306     1.0  0.20171  0.44379  0.86246  1.0000
  H   H1307     1.0  0.10173  0.04288  0.76355  1.0000
  H   H1308     1.0  0.34859  0.13333  0.80938  1.0000
  H   H1309     1.0  0.03177  0.27856  0.95922  1.0000
  N   N78       1.0  0.10490  0.01410  0.84980  1.0000
  N   N79       1.0  0.33877  0.13820  0.78701  1.0000
  H   H1310     1.0  0.28133  0.04398  0.89212  1.0000
  H   H1311     1.0  0.39685  0.10258  0.87375  1.0000
  H   H1312     1.0  0.20880  0.42750  0.85057  1.0000
  H   H1313     1.0  0.16855  0.43691  0.83511  1.0000
  N   N80       1.0  0.18276  0.44127  0.85079  1.0000
  C   C875      1.0  0.20076  0.44047  0.85086  1.0000
  H   H1314     1.0  0.17535  0.43304  0.87779  1.0000
  H   H1315     1.0  0.32720  0.11974  0.78355  1.0000
  H   H1316     1.0  0.02107  0.23694  0.90645  1.0000
  C   C876      1.0  0.33599  0.12841  0.77619  1.0000
  C   C877      1.0  0.41290  0.32071  0.95730  1.0000
  H   H1317     1.0  0.18293  0.41623  0.86649  1.0000
  H   H1318     1.0  0.16643  0.47073  0.95477  1.0000
  C   C878      1.0  0.49006  0.11272  0.76990  1.0000
  H   H1319     1.0  0.99991  0.45212  0.79082  1.0000
  H   H1320     1.0  0.01102  0.16889  0.88171  1.0000
  H   H1321     1.0  0.01474  0.23628  0.87951  1.0000
  H   H1322     1.0  0.19958  0.01553  0.87812  1.0000
  H   H1323     1.0  0.05331  0.03707  0.76001  1.0000
  H   H1324     1.0  0.46309  0.08272  0.78266  1.0000
  H   H1325     1.0  0.47825  0.16740  0.92791  1.0000
  H   H1326     1.0  0.21068  0.02658  0.88574  1.0000
  H   H1327     1.0  0.29787  0.99758  0.89929  1.0000
  H   H1328     1.0  0.45439  0.07199  0.82954  1.0000
  C   C879      1.0  0.47342  0.17754  0.93531  1.0000
  H   H1329     1.0  0.02982  0.25574  0.98509  1.0000
  H   H1330     1.0  0.35641  0.05522  0.82395  1.0000
  N   N81       1.0  0.28364  0.01963  0.90931  1.0000
  H   H1331     1.0  0.43574  0.26420  0.98363  1.0000
  C   C880      1.0  0.23344  0.00152  0.87249  1.0000
  H   H1332     1.0  0.22982  0.04250  0.85085  1.0000
  H   H1333     1.0  0.42984  0.28552  0.91953  1.0000
  H   H1334     1.0  0.07274  0.00290  0.81657  1.0000
  C   C881      1.0  0.46409  0.06898  0.78835  1.0000
  S   S372      1.0  0.26649  0.45729  0.93556  1.0000
  H   H1335     1.0  0.08495  0.15229  0.96075  1.0000
  H   H1336     1.0  0.44824  0.16179  0.85013  1.0000
  C   C882      1.0  0.28630  0.01222  0.92671  1.0000
  H   H1337     1.0  0.23330  0.00959  0.83947  1.0000
  H   H1338     1.0  0.10087  0.29748  0.98233  1.0000
  H   H1339     1.0  0.34033  0.23588  0.93860  1.0000
  C   C883      1.0  0.47037  0.40690  0.94205  1.0000
  H   H1340     1.0  0.29860  0.01402  0.92811  1.0000
  S   S373      1.0  0.31578  0.47687  0.96828  1.0000
  C   C884      1.0  0.47253  0.11478  0.77087  1.0000
  C   C885      1.0  0.10330  0.17858  0.97112  1.0000
  C   C886      1.0  0.15419  0.44330  0.95753  1.0000
  C   C887      1.0  0.35561  0.16407  0.95488  1.0000
  H   H1341     1.0  0.35178  0.47937  0.84263  1.0000
  H   H1342     1.0  0.28085  0.47319  0.98050  1.0000
  H   H1343     1.0  0.47843  0.40112  0.93123  1.0000
  H   H1344     1.0  0.49685  0.28183  0.98056  1.0000
  N   N82       1.0  0.09238  0.40324  0.98477  1.0000
  H   H1345     1.0  0.21178  0.47561  0.91199  1.0000
  C   C888      1.0  0.22123  0.01476  0.84798  1.0000
  H   H1346     1.0  0.37434  0.00959  0.82320  1.0000
  C   C889      1.0  0.15361  0.01671  0.97158  1.0000
  H   H1347     1.0  0.01606  0.26333  0.88483  1.0000
  C   C890      1.0  0.09765  0.41702  0.97063  1.0000
  H   H1348     1.0  0.33760  0.11788  0.80902  1.0000
  C   C891      1.0  0.31078  0.41689  0.95237  1.0000
  N   N83       1.0  0.10326  0.12148  0.87585  1.0000
  C   C892      1.0  0.11205  0.13441  0.86355  1.0000
  C   C893      1.0  0.08849  0.12986  0.88736  1.0000
  C   C894      1.0  0.11538  0.10929  0.88574  1.0000
  C   C895      1.0  0.09716  0.11235  0.86670  1.0000
  H   H1349     1.0  0.11665  0.14166  0.87006  1.0000
  H   H1350     1.0  0.10330  0.14373  0.85576  1.0000
  H   H1351     1.0  0.12332  0.12854  0.85470  1.0000
  H   H1352     1.0  0.08151  0.12053  0.89682  1.0000
  H   H1353     1.0  0.09263  0.13692  0.89442  1.0000
  H   H1354     1.0  0.07913  0.13920  0.88024  1.0000
  H   H1355     1.0  0.10919  0.09935  0.89521  1.0000
  H   H1356     1.0  0.12037  0.11575  0.89269  1.0000
  H   H1357     1.0  0.12658  0.10265  0.87742  1.0000
  H   H1358     1.0  0.09116  0.10197  0.87552  1.0000
  H   H1359     1.0  0.10786  0.10656  0.85729  1.0000
  H   H1360     1.0  0.08740  0.12103  0.85972  1.0000
  H   H1361     1.0  0.17768  0.46797  0.83962  1.0000
  H   H1362     1.0  0.13313  0.99982  0.96621  1.0000
  H   H1363     1.0  0.45525  0.37697  0.85247  1.0000
  C   C896      1.0  0.04657  0.37085  0.97337  1.0000
  H   H1364     1.0  0.34830  0.12050  0.77059  1.0000
  H   H1365     1.0  0.09937  0.42752  0.97526  1.0000
  H   H1366     1.0  0.36645  0.17015  0.94720  1.0000
  Fe  Fe191     1.0  0.42265  0.21759  0.96798  1.0000
  N   N84       1.0  0.36510  0.03507  0.81034  1.0000
  H   H1367     1.0  0.38215  0.05243  0.80059  1.0000
  C   C897      1.0  0.38247  0.03860  0.80335  1.0000
  C   C898      1.0  0.36617  0.01659  0.81391  1.0000
  C   C899      1.0  0.35749  0.04131  0.82619  1.0000
  H   H1368     1.0  0.10549  0.15746  0.95126  1.0000
  H   H1369     1.0  0.00140  0.39766  0.84470  1.0000
  H   H1370     1.0  0.02607  0.37550  0.80954  1.0000
  H   H1371     1.0  0.47128  0.38821  0.83889  1.0000
  H   H1372     1.0  0.45694  0.12274  0.81044  1.0000
  C   C900      1.0  0.49089  0.39134  0.95928  1.0000
  H   H1373     1.0  0.00378  0.22648  0.91791  1.0000
  H   H1374     1.0  0.22071  0.47015  0.93050  1.0000
  H   H1375     1.0  0.37176  0.01144  0.80221  1.0000
  H   H1376     1.0  0.25617  0.02301  0.91722  1.0000
  H   H1377     1.0  0.06473  0.16725  0.98254  1.0000
  N   N85       1.0  0.00355  0.39217  0.82060  1.0000
  H   H1378     1.0  0.12758  0.04432  0.96895  1.0000
  H   H1379     1.0  0.28581  0.43150  0.97542  1.0000
  C   C901      1.0  0.02203  0.38417  0.81850  1.0000
  C   C902      1.0  0.04157  0.46224  0.74397  1.0000
  H   H1380     1.0  0.12490  0.45800  0.97657  1.0000
  H   H1381     1.0  0.08634  0.99851  0.86165  1.0000
  H   H1382     1.0  0.35244  0.05782  0.79551  1.0000
  H   H1383     1.0  0.06514  0.05320  0.78214  1.0000
  H   H1384     1.0  0.35325  0.01351  0.81926  1.0000
  H   H1385     1.0  0.45390  0.24186  0.91555  1.0000
  H   H1386     1.0  0.07204  0.47952  0.85790  1.0000
  H   H1387     1.0  0.07045  0.18232  0.95255  1.0000
  H   H1388     1.0  0.23893  0.03248  0.86902  1.0000
  H   H1389     1.0  0.47305  0.14680  0.95569  1.0000
  H   H1390     1.0  0.45683  0.40983  0.94072  1.0000
  C   C903      1.0  0.10525  0.03234  0.84409  1.0000
  C   C904      1.0  0.08152  0.18590  0.95475  1.0000
  C   C905      1.0  0.34629  0.12636  0.80097  1.0000
  H   H1391     1.0  0.10107  0.14662  0.97309  1.0000
  S   S374      1.0  0.31614  0.48337  0.85987  1.0000
  H   H1392     1.0  0.00617  0.14058  0.82440  1.0000
  H   H1393     1.0  0.06168  0.34837  0.86706  1.0000
  C   C906      1.0  0.41809  0.34806  0.95588  1.0000
  H   H1394     1.0  0.38550  0.27534  0.84522  1.0000
  C   C907      1.0  0.49792  0.36783  0.85181  1.0000
  C   C908      1.0  0.47186  0.47205  0.79976  1.0000
  H   H1395     1.0  0.34256  0.12824  0.95751  1.0000
  C   C909      1.0  0.45657  0.17115  0.84394  1.0000
  H   H1396     1.0  0.06849  0.25440  0.97913  1.0000
  H   H1397     1.0  0.35881  0.11830  0.79614  1.0000
  N   N86       1.0  0.35658  0.41713  0.83879  1.0000
  C   C910      1.0  0.35907  0.39903  0.84741  1.0000
  C   C911      1.0  0.35755  0.41873  0.82063  1.0000
  C   C912      1.0  0.37014  0.42441  0.84059  1.0000
  C   C913      1.0  0.33956  0.42634  0.84652  1.0000
  H   H1398     1.0  0.35836  0.39736  0.86117  1.0000
  H   H1399     1.0  0.37177  0.39163  0.84197  1.0000
  H   H1400     1.0  0.34903  0.39314  0.84632  1.0000
  H   H1401     1.0  0.34751  0.41335  0.81878  1.0000
  H   H1402     1.0  0.35565  0.43226  0.81375  1.0000
  H   H1403     1.0  0.37025  0.41199  0.81438  1.0000
  H   H1404     1.0  0.36868  0.43805  0.83415  1.0000
  H   H1405     1.0  0.38316  0.41771  0.83490  1.0000
  H   H1406     1.0  0.36976  0.42346  0.85413  1.0000
  H   H1407     1.0  0.33730  0.44010  0.84054  1.0000
  H   H1408     1.0  0.33817  0.42511  0.86033  1.0000
  H   H1409     1.0  0.32901  0.42133  0.84517  1.0000
  H   H1410     1.0  0.48569  0.15085  0.85148  1.0000
  S   S375      1.0  0.46563  0.11071  0.75473  1.0000
  C   C914      1.0  0.13508  0.48276  0.92196  1.0000
  H   H1411     1.0  0.46024  0.17463  0.85411  1.0000
  H   H1412     1.0  0.38482  0.33948  0.94575  1.0000
  H   H1413     1.0  0.47769  0.19675  0.95389  1.0000
  N   N87       1.0  0.08899  0.17315  0.96829  1.0000
  H   H1414     1.0  0.42130  0.18521  0.96048  1.0000
  H   H1415     1.0  0.04037  0.42454  0.73686  1.0000
  H   H1416     1.0  0.49547  0.40292  0.95833  1.0000
  H   H1417     1.0  0.00710  0.41161  0.79801  1.0000
  H   H1418     1.0  0.31388  0.43946  0.96806  1.0000
  H   H1419     1.0  0.13474  0.47402  0.96109  1.0000
  H   H1420     1.0  0.02431  0.29407  0.97236  1.0000
  H   H1421     1.0  0.45704  0.47187  0.74050  1.0000
  H   H1422     1.0  0.47226  0.24310  0.92216  1.0000
  H   H1423     1.0  0.04494  0.43665  0.75873  1.0000
  H   H1424     1.0  0.15893  0.45970  0.85110  1.0000
  Fe  Fe192     1.0  0.02365  0.18841  0.89685  1.0000
  S   S376      1.0  0.03575  0.32787  0.96973  1.0000
  C   C915      1.0  0.49565  0.11418  0.78364  1.0000
  H   H1425     1.0  0.20433  0.12921  0.90665  1.0000
  S   S377      1.0  0.03437  0.20160  0.87060  1.0000
  H   H1426     1.0  0.01685  0.38869  0.86855  1.0000
  H   H1427     1.0  0.20254  0.08406  0.96347  1.0000
  Fe  Fe193     1.0  0.49475  0.36871  0.91429  1.0000
  H   H1428     1.0  0.37226  0.30089  0.85690  1.0000
  H   H1429     1.0  0.46983  0.04298  0.82605  1.0000
  C   C916      1.0  0.19074  0.07999  0.97024  1.0000
  H   H1430     1.0  0.45313  0.25093  0.94846  1.0000
  H   H1431     1.0  0.38936  0.29786  0.86744  1.0000
  S   S378      1.0  0.43259  0.23016  0.98248  1.0000
  S   S379      1.0  0.10318  0.48625  0.91662  1.0000
  C   C917      1.0  0.32223  0.14859  0.79415  1.0000
  C   C918      1.0  0.35060  0.14940  0.77680  1.0000
  H   H1432     1.0  0.32397  0.15603  0.80247  1.0000
  H   H1433     1.0  0.31306  0.14052  0.80216  1.0000
  H   H1434     1.0  0.31608  0.15769  0.78406  1.0000
  H   H1435     1.0  0.11186  0.99197  0.83913  1.0000
  H   H1436     1.0  0.34539  0.15850  0.76612  1.0000
  H   H1437     1.0  0.35306  0.15689  0.78463  1.0000
  H   H1438     1.0  0.33027  0.13693  0.76553  1.0000
  C   C919      1.0  0.99975  0.40140  0.80392  1.0000
  H   H1439     1.0  0.13846  0.47099  0.91779  1.0000
  N   N88       1.0  0.31030  0.41441  0.97058  1.0000
  H   H1440     1.0  0.12542  0.00698  0.82929  1.0000
  C   C920      1.0  0.46423  0.45666  0.78353  1.0000
  H   H1441     1.0  0.30448  0.43010  0.94708  1.0000
  H   H1442     1.0  0.40368  0.34576  0.93171  1.0000
  H   H1443     1.0  0.44849  0.18267  0.83746  1.0000
  S   S380      1.0  0.03522  0.43823  0.83415  1.0000
  H   H1444     1.0  0.20663  0.44943  0.83979  1.0000
  H   H1445     1.0  0.45936  0.18170  0.93624  1.0000
  H   H1446     1.0  0.37431  0.20058  0.95518  1.0000
  C   C921      1.0  0.28511  0.47145  0.96762  1.0000
  C   C922      1.0  0.06546  0.03089  0.76443  1.0000
  H   H1447     1.0  0.34433  0.03891  0.83179  1.0000
  H   H1448     1.0  0.01062  0.11259  0.81780  1.0000
  C   C923      1.0  0.16692  0.06827  0.97062  1.0000
  H   H1449     1.0  0.48483  0.47318  0.75756  1.0000
  N   N89       1.0  0.07703  0.04280  0.76006  1.0000
  H   H1450     1.0  0.47397  0.13849  0.84627  1.0000
  H   H1451     1.0  0.30396  0.40824  0.95013  1.0000
  H   H1452     1.0  0.38648  0.35274  0.97561  1.0000
  H   H1453     1.0  0.45856  0.17174  0.81145  1.0000
  C   C924      1.0  0.12680  0.03516  0.98138  1.0000
  H   H1454     1.0  0.49180  0.44134  0.79710  1.0000
  H   H1455     1.0  0.10994  0.41231  0.96216  1.0000
  H   H1456     1.0  0.47917  0.34257  0.92386  1.0000
  C   C925      1.0  0.31849  0.39669  0.97721  1.0000
  H   H1457     1.0  0.23691  0.00323  0.88368  1.0000
  C   C926      1.0  0.48162  0.14850  0.84093  1.0000
  H   H1458     1.0  0.42329  0.48253  0.79907  1.0000
  C   C927      1.0  0.40122  0.37619  0.81891  1.0000
  C   C928      1.0  0.48283  0.17672  0.82436  1.0000
  N   N90       1.0  0.13516  0.01768  0.97927  1.0000
  H   H1459     1.0  0.48313  0.08273  0.79966  1.0000
  H   H1460     1.0  0.35624  0.16162  0.96839  1.0000
  N   N91       1.0  0.08196  0.39812  0.87143  1.0000
  C   C929      1.0  0.09001  0.39961  0.85323  1.0000
  C   C930      1.0  0.06365  0.40672  0.87340  1.0000
  C   C931      1.0  0.09076  0.40615  0.87920  1.0000
  C   C932      1.0  0.08339  0.38001  0.87986  1.0000
  H   H1461     1.0  0.10390  0.39350  0.85124  1.0000
  H   H1462     1.0  0.08880  0.41311  0.84639  1.0000
  H   H1463     1.0  0.08389  0.39343  0.84702  1.0000
  H   H1464     1.0  0.06205  0.42041  0.86710  1.0000
  H   H1465     1.0  0.05666  0.40090  0.86771  1.0000
  H   H1466     1.0  0.05715  0.40581  0.88699  1.0000
  H   H1467     1.0  0.08511  0.40514  0.89298  1.0000
  H   H1468     1.0  0.08991  0.41986  0.87316  1.0000
  H   H1469     1.0  0.10462  0.39999  0.87787  1.0000
  H   H1470     1.0  0.07668  0.37358  0.87452  1.0000
  H   H1471     1.0  0.07767  0.37835  0.89367  1.0000
  H   H1472     1.0  0.09701  0.37300  0.87840  1.0000
  N   N92       1.0  0.37582  0.11324  0.86117  1.0000
  C   C933      1.0  0.37403  0.13058  0.86332  1.0000
  C   C934      1.0  0.35869  0.11027  0.86254  1.0000
  C   C935      1.0  0.38385  0.10078  0.87448  1.0000
  H   H1473     1.0  0.38517  0.08753  0.87333  1.0000
  H   H1474     1.0  0.38668  0.13339  0.86227  1.0000
  H   H1475     1.0  0.36582  0.13260  0.87583  1.0000
  H   H1476     1.0  0.36801  0.14018  0.85346  1.0000
  H   H1477     1.0  0.35939  0.09699  0.86206  1.0000
  H   H1478     1.0  0.34981  0.11263  0.87466  1.0000
  H   H1479     1.0  0.35265  0.11877  0.85209  1.0000
  H   H1480     1.0  0.15558  0.02533  0.95886  1.0000
  H   H1481     1.0  0.37597  0.10198  0.88732  1.0000
  C   C936      1.0  0.18205  0.43636  0.83545  1.0000
  C   C937      1.0  0.38669  0.11138  0.84432  1.0000
  H   H1482     1.0  0.16008  0.47979  0.92652  1.0000
  H   H1483     1.0  0.38029  0.11961  0.83400  1.0000
  C   C938      1.0  0.46626  0.16027  0.81838  1.0000
  C   C939      1.0  0.46718  0.37955  0.95981  1.0000
  H   H1484     1.0  0.05732  0.25587  0.96306  1.0000
  H   H1485     1.0  0.09004  0.05805  0.73789  1.0000
  C   C940      1.0  0.46065  0.11897  0.78526  1.0000
  H   H1486     1.0  0.46881  0.48831  0.76820  1.0000
  H   H1487     1.0  0.22525  0.99196  0.87694  1.0000
  C   C941      1.0  0.46893  0.15769  0.96209  1.0000
  C   C942      1.0  0.49366  0.45173  0.78569  1.0000
  H   H1488     1.0  0.42758  0.34742  0.94372  1.0000
  H   H1489     1.0  0.00660  0.41426  0.82679  1.0000
  H   H1490     1.0  0.49086  0.48438  0.76957  1.0000
  H   H1491     1.0  0.16665  0.43399  0.95560  1.0000
  H   H1492     1.0  0.09994  0.02313  0.76033  1.0000
  C   C943      1.0  0.35537  0.15200  0.93200  1.0000
  H   H1493     1.0  0.13428  0.47129  0.98312  1.0000
  H   H1494     1.0  0.09002  0.02920  0.78024  1.0000
  N   N93       1.0  0.39767  0.29615  0.84133  1.0000
  C   C944      1.0  0.39237  0.30480  0.82518  1.0000
  C   C945      1.0  0.39823  0.27779  0.84457  1.0000
  C   C946      1.0  0.41485  0.29874  0.84042  1.0000
  H   H1495     1.0  0.39193  0.31868  0.82241  1.0000
  H   H1496     1.0  0.40142  0.29965  0.81438  1.0000
  H   H1497     1.0  0.37935  0.30327  0.82554  1.0000
  H   H1498     1.0  0.40765  0.27184  0.83446  1.0000
  H   H1499     1.0  0.40191  0.27096  0.85684  1.0000
  H   H1500     1.0  0.41934  0.29214  0.85233  1.0000
  H   H1501     1.0  0.41474  0.31246  0.83842  1.0000
  H   H1502     1.0  0.42455  0.29380  0.82984  1.0000
  H   H1503     1.0  0.44375  0.28023  0.90042  1.0000
  H   H1504     1.0  0.34343  0.17336  0.95321  1.0000
  H   H1505     1.0  0.39916  0.11503  0.84223  1.0000
  H   H1506     1.0  0.42155  0.31965  0.94473  1.0000
  H   H1507     1.0  0.38262  0.33226  0.97685  1.0000
  C   C947      1.0  0.09290  0.03410  0.76627  1.0000
  C   C948      1.0  0.28332  0.03797  0.90518  1.0000
  C   C949      1.0  0.39512  0.34625  0.94441  1.0000
  C   C950      1.0  0.48065  0.47823  0.76931  1.0000
  S   S381      1.0  0.49048  0.11736  0.81637  1.0000
  H   H1508     1.0  0.45474  0.16193  0.96370  1.0000
  C   C951      1.0  0.45270  0.07486  0.81631  1.0000
  C   C952      1.0  0.06091  0.26340  0.97008  1.0000
  C   C953      1.0  0.34223  0.14031  0.96079  1.0000
  H   H1509     1.0  0.45543  0.04316  0.81345  1.0000
  N   N94       1.0  0.47262  0.39534  0.95841  1.0000
  C   C954      1.0  0.46205  0.40352  0.97246  1.0000
  C   C955      1.0  0.13590  0.46439  0.97302  1.0000
  H   H1510     1.0  0.46072  0.38299  0.87770  1.0000
  H   H1511     1.0  0.18746  0.44494  0.82373  1.0000
  H   H1512     1.0  0.05130  0.38167  0.96495  1.0000
  C   C956      1.0  0.17264  0.45874  0.85096  1.0000
  H   H1513     1.0  0.37416  0.12418  0.94867  1.0000
  C   C957      1.0  0.46766  0.04659  0.81294  1.0000
  H   H1514     1.0  0.47745  0.15503  0.80901  1.0000
  C   C958      1.0  0.23599  0.03005  0.85787  1.0000
  H   H1515     1.0  0.23446  0.47210  0.90984  1.0000
  H   H1516     1.0  0.20541  0.10738  0.90740  1.0000
  H   H1517     1.0  0.05888  0.29285  0.97837  1.0000
  H   H1518     1.0  0.04657  0.35970  0.95314  1.0000
  H   H1519     1.0  0.04806  0.27445  0.87441  1.0000
  H   H1520     1.0  0.48578  0.06641  0.81816  1.0000
  C   C959      1.0  0.46923  0.37560  0.84677  1.0000
  H   H1521     1.0  0.03015  0.39382  0.81355  1.0000
  C   C960      1.0  0.22333  0.12081  0.87732  1.0000
  C   C961      1.0  0.38521  0.30335  0.85522  1.0000
  H   H1522     1.0  0.34281  0.13728  0.97441  1.0000
  H   H1523     1.0  0.09839  0.17548  0.89849  1.0000
  S   S382      1.0  0.15600  0.06019  0.96040  1.0000
  H   H1524     1.0  0.33334  0.42352  0.96614  1.0000
  H   H1525     1.0  0.18554  0.12271  0.90638  1.0000
  H   H1526     1.0  0.38952  0.09813  0.84273  1.0000
  H   H1527     1.0  0.38376  0.31732  0.85277  1.0000
  C   C962      1.0  0.43808  0.27475  0.91376  1.0000
  C   C963      1.0  0.44337  0.25845  0.94096  1.0000
  H   H1528     1.0  0.11317  0.01342  0.97355  1.0000
  H   H1529     1.0  0.20287  0.09897  0.88242  1.0000
  C   C964      1.0  0.19973  0.12066  0.90167  1.0000
  H   H1530     1.0  0.46818  0.45085  0.77226  1.0000
  C   C965      1.0  0.35423  0.04379  0.79790  1.0000
  S   S383      1.0  0.27007  0.47769  0.88877  1.0000
  H   H1531     1.0  0.36330  0.14195  0.77136  1.0000
  H   H1532     1.0  0.48744  0.17980  0.83419  1.0000
  H   H1533     1.0  0.00861  0.11471  0.84713  1.0000
  H   H1534     1.0  0.09104  0.18707  0.94245  1.0000
  H   H1535     1.0  0.36606  0.15788  0.92349  1.0000
  H   H1536     1.0  0.30255  0.00294  0.83720  1.0000
  H   H1537     1.0  0.09993  0.03903  0.85475  1.0000
  H   H1538     1.0  0.10163  0.38457  0.96934  1.0000
  H   H1539     1.0  0.40316  0.31301  0.95951  1.0000
  C   C966      1.0  0.27428  0.46688  0.96033  1.0000
  H   H1540     1.0  0.09881  0.19085  0.97531  1.0000
  H   H1541     1.0  0.44817  0.40659  0.97227  1.0000
  H   H1542     1.0  0.34464  0.21431  0.95029  1.0000
  H   H1543     1.0  0.37244  0.21754  0.96511  1.0000
  H   H1544     1.0  0.39034  0.21314  0.94815  1.0000
  H   H1545     1.0  0.35596  0.14035  0.92779  1.0000
  H   H1546     1.0  0.31052  0.01235  0.89832  1.0000
  C   C967      1.0  0.47180  0.18577  0.96120  1.0000
  N   N95       1.0  0.35655  0.14819  0.94993  1.0000
  C   C968      1.0  0.47447  0.38165  0.87110  1.0000
  H   H1547     1.0  0.29666  0.01714  0.88396  1.0000
  H   H1548     1.0  0.42951  0.26668  0.91357  1.0000
  Fe  Fe194     1.0  0.41250  0.44468  0.75310  1.0000
  H   H1549     1.0  0.10924  0.16918  0.98124  1.0000
  C   C969      1.0  0.48373  0.11734  0.79843  1.0000
  H   H1550     1.0  0.46891  0.37041  0.97186  1.0000
  H   H1551     1.0  0.09751  0.03877  0.83432  1.0000
  H   H1552     1.0  0.49324  0.38246  0.97132  1.0000
  H   H1553     1.0  0.16576  0.46786  0.97681  1.0000
  C   C970      1.0  0.47629  0.35272  0.87004  1.0000
  H   H1554     1.0  0.32419  0.41441  0.94487  1.0000
  N   N96       1.0  0.40473  0.33860  0.95806  1.0000
  H   H1555     1.0  0.16007  0.02058  0.97946  1.0000
  C   C971      1.0  0.04701  0.00478  0.81451  1.0000
  H   H1556     1.0  0.06949  0.27130  0.96056  1.0000
  H   H1557     1.0  0.26705  0.00335  0.91063  1.0000
  H   H1558     1.0  0.23690  0.08526  0.98212  1.0000
  H   H1559     1.0  0.12896  0.00730  0.85752  1.0000
  H   H1560     1.0  0.38862  0.03414  0.79135  1.0000
  H   H1561     1.0  0.20172  0.03683  0.86752  1.0000
  H   H1562     1.0  0.08789  0.42248  0.96267  1.0000
  H   H1563     1.0  0.15359  0.45238  0.94517  1.0000
  H   H1564     1.0  0.11353  0.18014  0.95942  1.0000
  H   H1565     1.0  0.47652  0.39446  0.86388  1.0000
  C   C972      1.0  0.03773  0.34445  0.97753  1.0000
  S   S384      1.0  0.39666  0.23476  0.97048  1.0000
  H   H1566     1.0  0.05626  0.06420  0.76395  1.0000
  H   H1567     1.0  0.11033  0.31545  0.97129  1.0000
  H   H1568     1.0  0.10429  0.01138  0.82532  1.0000
  H   H1569     1.0  0.00307  0.39279  0.79499  1.0000
  N   N97       1.0  0.15251  0.45206  0.97114  1.0000
  H   H1570     1.0  0.34314  0.16097  0.92978  1.0000
  H   H1571     1.0  0.09096  0.31381  0.96691  1.0000
  C   C973      1.0  0.09792  0.31141  0.97722  1.0000
  N   N98       1.0  0.46695  0.06486  0.80572  1.0000
  C   C974      1.0  0.20845  0.02442  0.87410  1.0000
  H   H1572     1.0  0.47921  0.18848  0.92766  1.0000
  H   H1573     1.0  0.37548  0.41140  0.97914  1.0000
  H   H1574     1.0  0.46246  0.35342  0.87609  1.0000
  C   C975      1.0  0.09542  0.15663  0.96318  1.0000
  C   C976      1.0  0.12707  0.01293  0.96813  1.0000
  H   H1575     1.0  0.07879  0.01788  0.84777  1.0000
  H   H1576     1.0  0.25603  0.09366  0.97439  1.0000
  C   C977      1.0  0.29781  0.01128  0.89725  1.0000
  C   C978      1.0  0.37304  0.13638  0.95211  1.0000
  H   H1577     1.0  0.46149  0.44645  0.79492  1.0000
  H   H1578     1.0  0.07678  0.06661  0.76507  1.0000
  H   H1579     1.0  0.99986  0.27280  0.90058  1.0000
  H   H1580     1.0  0.46580  0.41547  0.97185  1.0000
  C   C979      1.0  0.31965  0.42598  0.97290  1.0000
  H   H1581     1.0  0.12838  0.02158  0.95539  1.0000
  H   H1582     1.0  0.49438  0.06170  0.79744  1.0000
  H   H1583     1.0  0.48026  0.34307  0.86211  1.0000
  H   H1584     1.0  0.48346  0.34783  0.88039  1.0000
  H   H1585     1.0  0.16037  0.00361  0.97008  1.0000
  H   H1586     1.0  0.47265  0.36669  0.83810  1.0000
  C   C980      1.0  0.08399  0.33904  0.98319  1.0000
  H   H1587     1.0  0.47528  0.18190  0.97379  1.0000
  C   C981      1.0  0.49640  0.16550  0.95031  1.0000
  H   H1588     1.0  0.46001  0.48213  0.79922  1.0000
  C   C982      1.0  0.48329  0.06905  0.80525  1.0000
  H   H1589     1.0  0.07688  0.19864  0.95791  1.0000
  H   H1590     1.0  0.28666  0.99835  0.93018  1.0000
  H   H1591     1.0  0.00453  0.24617  0.92210  1.0000
  C   C983      1.0  0.00703  0.23913  0.91193  1.0000
  S   S385      1.0  0.39958  0.27428  0.98369  1.0000
  H   H1592     1.0  0.49852  0.31878  0.96678  1.0000
  C   C984      1.0  0.29227  0.41812  0.97991  1.0000
  H   H1593     1.0  0.33211  0.39346  0.97041  1.0000
  H   H1594     1.0  0.47851  0.29926  0.98171  1.0000
  H   H1595     1.0  0.49338  0.14317  0.83224  1.0000
  C   C985      1.0  0.00087  0.23865  0.88568  1.0000
  H   H1596     1.0  0.49869  0.29295  0.89581  1.0000
  H   H1597     1.0  0.48390  0.99045  0.74055  1.0000
  H   H1598     1.0  0.39970  0.33387  0.98520  1.0000
  H   H1599     1.0  0.31173  0.38754  0.97582  1.0000
  H   H1600     1.0  0.46357  0.39507  0.98496  1.0000
  H   H1601     1.0  0.34743  0.48906  0.97817  1.0000
  C   C986      1.0  0.24912  0.08529  0.98524  1.0000
  S   S386      1.0  0.40037  0.38027  0.98537  1.0000
  S   S387      1.0  0.16312  0.94947  0.04628  1.0000
  Fe  Fe195     1.0  0.15252  0.93543  0.03378  1.0000
  S   S388      1.0  0.14024  0.91436  0.05100  1.0000
  Fe  Fe196     1.0  0.18388  0.95094  0.02261  1.0000
  S   S389      1.0  0.21242  0.94609  0.02044  1.0000
  S   S390      1.0  0.13607  0.95850  0.02098  1.0000
  Fe  Fe197     1.0  0.03866  0.87265  0.05417  1.0000
  S   S391      1.0  0.04609  0.85186  0.07590  1.0000
  C   C987      1.0  0.46667  0.80714  0.05757  1.0000
  Fe  Fe198     1.0  0.07493  0.87722  0.03866  1.0000
  S   S392      1.0  0.08535  0.85663  0.05879  1.0000
  S   S393      1.0  0.09241  0.89198  0.01815  1.0000
  Fe  Fe199     1.0  0.06779  0.84209  0.05578  1.0000
  S   S394      1.0  0.07969  0.81476  0.05425  1.0000
  Fe  Fe200     1.0  0.06289  0.86851  0.07681  1.0000
  S   S395      1.0  0.06819  0.87129  0.10081  1.0000
  S   S396      1.0  0.05920  0.86179  0.03393  1.0000
  S   S397      1.0  0.05357  0.89013  0.05678  1.0000
  Fe  Fe201     1.0  0.09628  0.96086  0.13626  1.0000
  S   S398      1.0  0.12171  0.96751  0.12221  1.0000
  Fe  Fe202     1.0  0.07891  0.93670  0.16627  1.0000
  S   S399      1.0  0.05265  0.94962  0.16154  1.0000
  S   S400      1.0  0.08321  0.91579  0.18912  1.0000
  Fe  Fe203     1.0  0.06532  0.95014  0.13407  1.0000
  S   S401      1.0  0.05474  0.94537  0.11406  1.0000
  S   S402      1.0  0.09099  0.93529  0.13907  1.0000
  S   S403      1.0  0.08714  0.96061  0.16387  1.0000
  S   S404      1.0  0.17453  0.93474  0.01121  1.0000
  C   C988      1.0  0.36036  0.50671  0.18428  1.0000
  Fe  Fe204     1.0  0.39488  0.95298  0.11986  1.0000
  S   S405      1.0  0.38368  0.93197  0.13854  1.0000
  S   S406      1.0  0.38139  0.97237  0.10071  1.0000
  Fe  Fe205     1.0  0.42918  0.93988  0.13006  1.0000
  S   S407      1.0  0.42093  0.91774  0.14955  1.0000
  S   S408      1.0  0.45610  0.94337  0.12464  1.0000
  Fe  Fe206     1.0  0.40893  0.91515  0.12975  1.0000
  S   S409      1.0  0.41048  0.88955  0.12497  1.0000
  Fe  Fe207     1.0  0.39669  0.93678  0.15646  1.0000
  S   S410      1.0  0.38187  0.94023  0.18259  1.0000
  S   S411      1.0  0.41915  0.93580  0.10971  1.0000
  S   S412      1.0  0.40595  0.95923  0.13831  1.0000
  Fe  Fe208     1.0  0.41649  0.86047  0.04526  1.0000
  S   S413      1.0  0.40210  0.84246  0.06507  1.0000
  S   S414      1.0  0.43046  0.87759  0.05020  1.0000
  C   C989      1.0  0.22019  0.95435  0.03323  1.0000
  S   S415      1.0  0.39000  0.83457  0.03419  1.0000
  Fe  Fe209     1.0  0.38119  0.85401  0.05049  1.0000
  S   S416      1.0  0.35464  0.86526  0.06372  1.0000
  Fe  Fe210     1.0  0.41251  0.82489  0.04689  1.0000
  S   S417      1.0  0.42807  0.79807  0.05321  1.0000
  S   S418      1.0  0.39505  0.87301  0.03179  1.0000
  S   S419      1.0  0.42861  0.84220  0.02811  1.0000
  Fe  Fe211     1.0  0.30349  0.96458  0.07444  1.0000
  S   S420      1.0  0.31248  0.95545  0.09891  1.0000
  Fe  Fe212     1.0  0.30690  0.95648  0.04096  1.0000
  S   S421      1.0  0.32164  0.93761  0.02459  1.0000
  S   S422      1.0  0.29201  0.94720  0.06694  1.0000
  C   C990      1.0  0.34147  0.49375  0.99008  1.0000
  Fe  Fe213     1.0  0.41780  0.70913  0.05307  1.0000
  S   S423      1.0  0.43598  0.69630  0.03272  1.0000
  S   S424      1.0  0.40274  0.73600  0.04634  1.0000
  Fe  Fe214     1.0  0.42230  0.67698  0.08062  1.0000
  S   S425      1.0  0.44081  0.66185  0.06259  1.0000
  S   S426      1.0  0.41281  0.66440  0.10762  1.0000
  Fe  Fe215     1.0  0.45208  0.68494  0.05215  1.0000
  S   S427      1.0  0.48077  0.68086  0.04614  1.0000
  Fe  Fe216     1.0  0.42284  0.67449  0.04510  1.0000
  S   S428      1.0  0.41753  0.65751  0.03127  1.0000
  S   S429      1.0  0.43502  0.69928  0.07171  1.0000
  S   S430      1.0  0.40333  0.68810  0.06396  1.0000
  Fe  Fe217     1.0  0.42871  0.53697  0.15511  1.0000
  S   S431      1.0  0.40439  0.54148  0.17446  1.0000
  S   S432      1.0  0.43972  0.51046  0.15129  1.0000
  Fe  Fe218     1.0  0.43388  0.57267  0.14947  1.0000
  S   S433      1.0  0.41018  0.57993  0.16891  1.0000
  S   S434      1.0  0.45197  0.58956  0.13390  1.0000
  Fe  Fe219     1.0  0.41863  0.55416  0.18468  1.0000
  S   S435      1.0  0.42134  0.54477  0.21176  1.0000
  Fe  Fe220     1.0  0.39840  0.56653  0.15658  1.0000
  S   S436      1.0  0.37275  0.57862  0.14967  1.0000
  S   S437      1.0  0.44340  0.54809  0.16627  1.0000
  S   S438      1.0  0.42167  0.56090  0.13624  1.0000
  Fe  Fe221     1.0  0.33502  0.59859  0.03583  1.0000
  S   S439      1.0  0.31695  0.62231  0.04215  1.0000
  S   S440      1.0  0.34406  0.59923  0.00790  1.0000
  Fe  Fe222     1.0  0.33833  0.58383  0.07234  1.0000
  S   S441      1.0  0.32030  0.60646  0.08134  1.0000
  S   S442      1.0  0.35334  0.56209  0.08885  1.0000
  Fe  Fe223     1.0  0.30413  0.60493  0.06449  1.0000
  S   S443      1.0  0.27506  0.61208  0.07220  1.0000
  Fe  Fe224     1.0  0.33473  0.62154  0.05818  1.0000
  S   S444      1.0  0.34175  0.64550  0.05858  1.0000
  S   S445      1.0  0.32110  0.58096  0.05706  1.0000
  S   S446      1.0  0.35382  0.59910  0.05026  1.0000
  H   H1602     1.0  0.37319  0.52265  0.09579  1.0000
  Fe  Fe225     1.0  0.19123  0.59073  0.06629  1.0000
  S   S447      1.0  0.17560  0.58319  0.05259  1.0000
  S   S448      1.0  0.21996  0.58104  0.05784  1.0000
  Fe  Fe226     1.0  0.15904  0.60449  0.09104  1.0000
  S   S449      1.0  0.14148  0.59710  0.07975  1.0000
  S   S450      1.0  0.14522  0.61866  0.11179  1.0000
  Fe  Fe227     1.0  0.16138  0.57311  0.07852  1.0000
  S   S451      1.0  0.15651  0.54668  0.08720  1.0000
  Fe  Fe228     1.0  0.15726  0.60813  0.05499  1.0000
  S   S452      1.0  0.14193  0.62464  0.03566  1.0000
  S   S453      1.0  0.17765  0.57934  0.09226  1.0000
  S   S454      1.0  0.17416  0.61676  0.06627  1.0000
  Fe  Fe229     1.0  0.06450  0.59990  0.17648  1.0000
  S   S455      1.0  0.06531  0.62388  0.18273  1.0000
  S   S456      1.0  0.08845  0.58283  0.16491  1.0000
  Fe  Fe230     1.0  0.02618  0.60440  0.19004  1.0000
  S   S457      1.0  0.02395  0.62888  0.19719  1.0000
  C   C991      1.0  0.45916  0.59544  0.19812  1.0000
  Fe  Fe231     1.0  0.04175  0.63496  0.17209  1.0000
  S   S458      1.0  0.03950  0.66159  0.15659  1.0000
  Fe  Fe232     1.0  0.04756  0.61557  0.20725  1.0000
  S   S459      1.0  0.04212  0.61156  0.16389  1.0000
  S   S460      1.0  0.04859  0.59049  0.20203  1.0000
  Fe  Fe233     1.0  0.05268  0.71830  0.02968  1.0000
  S   S461      1.0  0.06907  0.73245  0.03517  1.0000
  H   H1603     1.0  0.27884  0.61816  0.98933  1.0000
  Fe  Fe234     1.0  0.04284  0.69996  0.06619  1.0000
  S   S462      1.0  0.05826  0.71269  0.07501  1.0000
  S   S463      1.0  0.02939  0.67898  0.08168  1.0000
  Fe  Fe235     1.0  0.04749  0.73650  0.05763  1.0000
  S   S464      1.0  0.03392  0.76202  0.06406  1.0000
  Fe  Fe236     1.0  0.07831  0.70736  0.05183  1.0000
  S   S465      1.0  0.10570  0.69624  0.05430  1.0000
  S   S466      1.0  0.03036  0.72403  0.05077  1.0000
  S   S467      1.0  0.06358  0.69298  0.04433  1.0000
  H   H1604     1.0  0.08497  0.98921  0.22919  1.0000
  H   H1605     1.0  0.47420  0.74228  0.03786  1.0000
  C   C992      1.0  0.00718  0.58796  0.16627  1.0000
  H   H1606     1.0  0.46335  0.71635  0.04174  1.0000
  C   C993      1.0  0.48817  0.88943  0.09507  1.0000
  C   C994      1.0  0.23753  0.95521  0.02889  1.0000
  C   C995      1.0  0.03530  0.66624  0.13633  1.0000
  C   C996      1.0  0.03526  0.68265  0.12651  1.0000
  C   C997      1.0  0.03311  0.68665  0.10985  1.0000
  C   C998      1.0  0.03096  0.67425  0.10290  1.0000
  C   C999      1.0  0.03058  0.65788  0.11281  1.0000
  C   C1000     1.0  0.03280  0.65385  0.12953  1.0000
  H   H1607     1.0  0.03704  0.69230  0.13179  1.0000
  H   H1608     1.0  0.03288  0.69942  0.10247  1.0000
  H   H1609     1.0  0.02898  0.64825  0.10742  1.0000
  H   H1610     1.0  0.03284  0.64116  0.13705  1.0000
  C   C1001     1.0  0.15028  0.53895  0.07296  1.0000
  C   C1002     1.0  0.14692  0.54934  0.05762  1.0000
  C   C1003     1.0  0.14186  0.54279  0.04652  1.0000
  C   C1004     1.0  0.14029  0.52584  0.05068  1.0000
  C   C1005     1.0  0.14354  0.51554  0.06609  1.0000
  C   C1006     1.0  0.14849  0.52210  0.07722  1.0000
  H   H1611     1.0  0.14816  0.56241  0.05431  1.0000
  H   H1612     1.0  0.13929  0.55083  0.03463  1.0000
  H   H1613     1.0  0.10952  0.60500  0.23320  1.0000
  H   H1614     1.0  0.15094  0.51406  0.08915  1.0000
  C   C1007     1.0  0.13211  0.64482  0.04027  1.0000
  C   C1008     1.0  0.13930  0.65187  0.04920  1.0000
  C   C1009     1.0  0.13141  0.66790  0.05286  1.0000
  C   C1010     1.0  0.11604  0.67689  0.04798  1.0000
  C   C1011     1.0  0.10896  0.66999  0.03878  1.0000
  C   C1012     1.0  0.11698  0.65401  0.03493  1.0000
  H   H1615     1.0  0.15112  0.64515  0.05306  1.0000
  H   H1616     1.0  0.13717  0.67324  0.05970  1.0000
  H   H1617     1.0  0.09745  0.67699  0.03446  1.0000
  H   H1618     1.0  0.11127  0.64869  0.02807  1.0000
  C   C1013     1.0  0.12977  0.60860  0.12689  1.0000
  C   C1014     1.0  0.11541  0.61829  0.13583  1.0000
  C   C1015     1.0  0.10254  0.61055  0.14740  1.0000
  C   C1016     1.0  0.10440  0.59296  0.15065  1.0000
  C   C1017     1.0  0.11913  0.58320  0.14219  1.0000
  C   C1018     1.0  0.13159  0.59103  0.13002  1.0000
  H   H1619     1.0  0.11416  0.63183  0.13363  1.0000
  H   H1620     1.0  0.09125  0.61822  0.15375  1.0000
  H   H1621     1.0  0.12086  0.56957  0.14502  1.0000
  H   H1622     1.0  0.14282  0.58345  0.12336  1.0000
  C   C1019     1.0  0.48245  0.69912  0.08523  1.0000
  H   H1623     1.0  0.38278  0.92746  0.00154  1.0000
  H   H1624     1.0  0.23042  0.54753  0.04523  1.0000
  C   C1020     1.0  0.40805  0.92183  0.22756  1.0000
  C   C1021     1.0  0.37621  0.52427  0.16088  1.0000
  H   H1625     1.0  0.33724  0.53534  0.08799  1.0000
  H   H1626     1.0  0.00922  0.76771  0.03917  1.0000
  H   H1627     1.0  0.08551  0.55124  0.13002  1.0000
  H   H1628     1.0  0.30293  0.89860  0.04726  1.0000
  C   C1022     1.0  0.25993  0.60243  0.06925  1.0000
  C   C1023     1.0  0.24250  0.61047  0.07246  1.0000
  C   C1024     1.0  0.23009  0.60386  0.06935  1.0000
  C   C1025     1.0  0.23503  0.58916  0.06290  1.0000
  C   C1026     1.0  0.25244  0.58097  0.05987  1.0000
  C   C1027     1.0  0.26485  0.58749  0.06316  1.0000
  H   H1629     1.0  0.23858  0.62198  0.07726  1.0000
  H   H1630     1.0  0.21672  0.61027  0.07176  1.0000
  H   H1631     1.0  0.25634  0.56951  0.05500  1.0000
  H   H1632     1.0  0.27818  0.58099  0.06097  1.0000
  H   H1633     1.0  0.29576  0.63377  0.00789  1.0000
  C   C1028     1.0  0.41459  0.57702  0.21723  1.0000
  C   C1029     1.0  0.07248  0.97104  0.20444  1.0000
  H   H1634     1.0  0.49564  0.94357  0.15790  1.0000
  H   H1635     1.0  0.40900  0.58126  0.20621  1.0000
  H   H1636     1.0  0.48934  0.53132  0.13560  1.0000
  H   H1637     1.0  0.49125  0.79648  0.07590  1.0000
  C   C1030     1.0  0.36818  0.57425  0.13222  1.0000
  C   C1031     1.0  0.35394  0.58447  0.12582  1.0000
  C   C1032     1.0  0.34961  0.58111  0.11225  1.0000
  C   C1033     1.0  0.35924  0.56725  0.10517  1.0000
  C   C1034     1.0  0.37349  0.55700  0.11157  1.0000
  C   C1035     1.0  0.37811  0.56061  0.12491  1.0000
  H   H1638     1.0  0.34610  0.59494  0.13151  1.0000
  H   H1639     1.0  0.33844  0.58892  0.10767  1.0000
  H   H1640     1.0  0.38103  0.54633  0.10609  1.0000
  H   H1641     1.0  0.38917  0.55272  0.12966  1.0000
  C   C1036     1.0  0.39634  0.65441  0.03796  1.0000
  C   C1037     1.0  0.38308  0.66665  0.04476  1.0000
  C   C1038     1.0  0.36637  0.66382  0.05076  1.0000
  C   C1039     1.0  0.36274  0.64876  0.04995  1.0000
  C   C1040     1.0  0.37590  0.63664  0.04275  1.0000
  C   C1041     1.0  0.39267  0.63950  0.03671  1.0000
  H   H1642     1.0  0.38561  0.67845  0.04520  1.0000
  H   H1643     1.0  0.35623  0.67335  0.05611  1.0000
  H   H1644     1.0  0.37324  0.62499  0.04210  1.0000
  H   H1645     1.0  0.40289  0.63000  0.03142  1.0000
  C   C1042     1.0  0.42398  0.64365  0.11447  1.0000
  C   C1043     1.0  0.41543  0.63273  0.12779  1.0000
  C   C1044     1.0  0.42387  0.61605  0.13347  1.0000
  C   C1045     1.0  0.44112  0.61030  0.12626  1.0000
  C   C1046     1.0  0.44981  0.62130  0.11310  1.0000
  C   C1047     1.0  0.44119  0.63791  0.10706  1.0000
  H   H1646     1.0  0.40220  0.63720  0.13371  1.0000
  H   H1647     1.0  0.41703  0.60778  0.14360  1.0000
  H   H1648     1.0  0.46316  0.61696  0.10748  1.0000
  H   H1649     1.0  0.44795  0.64636  0.09694  1.0000
  C   C1048     1.0  0.47687  0.71541  0.04058  1.0000
  C   C1049     1.0  0.42957  0.50509  0.13840  1.0000
  C   C1050     1.0  0.42000  0.51772  0.12788  1.0000
  C   C1051     1.0  0.41173  0.51328  0.11780  1.0000
  H   H1650     1.0  0.10017  0.57122  0.08464  1.0000
  H   H1651     1.0  0.41904  0.53093  0.12736  1.0000
  H   H1652     1.0  0.40448  0.52307  0.10954  1.0000
  C   C1052     1.0  0.48822  0.69958  0.04152  1.0000
  H   H1653     1.0  0.19632  0.95873  0.05136  1.0000
  H   H1654     1.0  0.09344  0.57806  0.12796  1.0000
  Fe  Fe237     1.0  0.40561  0.85292  0.01654  1.0000
  H   H1655     1.0  0.10858  0.58627  0.10982  1.0000
  H   H1656     1.0  0.46924  0.61590  0.16807  1.0000
  H   H1657     1.0  0.09385  0.57809  0.21502  1.0000
  C   C1053     1.0  0.32608  0.57565  0.00908  1.0000
  C   C1054     1.0  0.11143  0.62725  0.00396  1.0000
  S   S468      1.0  0.00173  0.59485  0.19767  1.0000
  H   H1658     1.0  0.01402  0.69239  0.04856  1.0000
  H   H1659     1.0  0.31139  0.55791  0.00953  1.0000
  H   H1660     1.0  0.32534  0.57217  0.02258  1.0000
  H   H1661     1.0  0.08157  0.70258  0.00721  1.0000
  H   H1662     1.0  0.48472  0.51225  0.10219  1.0000
  C   C1055     1.0  0.42054  0.78081  0.05201  1.0000
  C   C1056     1.0  0.40423  0.78303  0.04903  1.0000
  C   C1057     1.0  0.39880  0.76911  0.04760  1.0000
  C   C1058     1.0  0.40961  0.75291  0.04917  1.0000
  C   C1059     1.0  0.42587  0.75067  0.05226  1.0000
  C   C1060     1.0  0.43130  0.76458  0.05367  1.0000
  H   H1663     1.0  0.39575  0.79542  0.04794  1.0000
  H   H1664     1.0  0.38616  0.77087  0.04531  1.0000
  H   H1665     1.0  0.43430  0.73824  0.05341  1.0000
  H   H1666     1.0  0.44391  0.76269  0.05599  1.0000
  C   C1061     1.0  0.34604  0.88549  0.05268  1.0000
  C   C1062     1.0  0.33790  0.89855  0.06143  1.0000
  C   C1063     1.0  0.33087  0.91475  0.05282  1.0000
  C   C1064     1.0  0.33123  0.91773  0.03555  1.0000
  C   C1065     1.0  0.33899  0.90454  0.02689  1.0000
  C   C1066     1.0  0.34672  0.88856  0.03534  1.0000
  H   H1667     1.0  0.33717  0.89613  0.07487  1.0000
  H   H1668     1.0  0.32510  0.92485  0.05960  1.0000
  H   H1669     1.0  0.33887  0.90666  0.01367  1.0000
  H   H1670     1.0  0.35269  0.87841  0.02860  1.0000
  C   C1067     1.0  0.39218  0.93278  0.19972  1.0000
  C   C1068     1.0  0.38296  0.93581  0.21568  1.0000
  H   H1671     1.0  0.42389  0.76832  0.99702  1.0000
  H   H1672     1.0  0.36586  0.52824  0.15365  1.0000
  C   C1069     1.0  0.41729  0.91875  0.21163  1.0000
  C   C1070     1.0  0.40941  0.92431  0.19770  1.0000
  H   H1673     1.0  0.36962  0.94233  0.21731  1.0000
  C   C1071     1.0  0.36543  0.65361  0.00028  1.0000
  H   H1674     1.0  0.43059  0.91212  0.21000  1.0000
  H   H1675     1.0  0.41663  0.92198  0.18544  1.0000
  C   C1072     1.0  0.41663  0.88630  0.10414  1.0000
  C   C1073     1.0  0.42333  0.89825  0.09050  1.0000
  C   C1074     1.0  0.42776  0.89538  0.07401  1.0000
  C   C1075     1.0  0.42525  0.88068  0.07103  1.0000
  C   C1076     1.0  0.41866  0.86870  0.08468  1.0000
  C   C1077     1.0  0.41448  0.87145  0.10118  1.0000
  H   H1676     1.0  0.42516  0.90968  0.09259  1.0000
  H   H1677     1.0  0.43294  0.90465  0.06349  1.0000
  H   H1678     1.0  0.41704  0.85717  0.08260  1.0000
  H   H1679     1.0  0.40943  0.86208  0.11169  1.0000
  C   C1078     1.0  0.36233  0.96757  0.10023  1.0000
  C   C1079     1.0  0.35723  0.97137  0.08485  1.0000
  C   C1080     1.0  0.34177  0.96798  0.08436  1.0000
  C   C1081     1.0  0.33142  0.96071  0.09922  1.0000
  C   C1082     1.0  0.33651  0.95698  0.11461  1.0000
  C   C1083     1.0  0.35190  0.96048  0.11513  1.0000
  H   H1680     1.0  0.08747  0.58658  0.10787  1.0000
  H   H1681     1.0  0.32849  0.95143  0.12617  1.0000
  H   H1682     1.0  0.35553  0.95796  0.12711  1.0000
  H   H1683     1.0  0.23439  0.51771  0.06180  1.0000
  H   H1684     1.0  0.07943  0.73898  0.98863  1.0000
  C   C1084     1.0  0.47067  0.94168  0.17356  1.0000
  C   C1085     1.0  0.45401  0.94076  0.17384  1.0000
  C   C1086     1.0  0.44945  0.94131  0.15882  1.0000
  C   C1087     1.0  0.46162  0.94259  0.14351  1.0000
  C   C1088     1.0  0.47834  0.94322  0.14327  1.0000
  C   C1089     1.0  0.48284  0.94279  0.15827  1.0000
  H   H1685     1.0  0.43650  0.94084  0.15909  1.0000
  H   H1686     1.0  0.47685  0.69654  0.07585  1.0000
  H   H1687     1.0  0.42563  0.77330  0.01582  1.0000
  C   C1090     1.0  0.07047  0.92119  0.20823  1.0000
  C   C1091     1.0  0.05745  0.93582  0.20787  1.0000
  H   H1688     1.0  0.00116  0.63875  0.13126  1.0000
  H   H1689     1.0  0.14197  0.50259  0.06957  1.0000
  H   H1690     1.0  0.05492  0.94359  0.19593  1.0000
  H   H1691     1.0  0.07945  0.55938  0.10993  1.0000
  H   H1692     1.0  0.43416  0.50803  0.21273  1.0000
  C   C1092     1.0  0.06667  0.80049  0.05665  1.0000
  C   C1093     1.0  0.04877  0.80522  0.06092  1.0000
  C   C1094     1.0  0.03881  0.79332  0.06320  1.0000
  C   C1095     1.0  0.04668  0.77671  0.06110  1.0000
  C   C1096     1.0  0.06457  0.77204  0.05678  1.0000
  C   C1097     1.0  0.07452  0.78388  0.05464  1.0000
  H   H1693     1.0  0.04263  0.81800  0.06250  1.0000
  H   H1694     1.0  0.02498  0.79701  0.06659  1.0000
  H   H1695     1.0  0.07075  0.75926  0.05522  1.0000
  H   H1696     1.0  0.08836  0.78016  0.05137  1.0000
  C   C1098     1.0  0.05813  0.92455  0.11111  1.0000
  C   C1099     1.0  0.06843  0.91078  0.11992  1.0000
  C   C1100     1.0  0.07143  0.89451  0.11668  1.0000
  C   C1101     1.0  0.06433  0.89192  0.10448  1.0000
  C   C1102     1.0  0.05407  0.90571  0.09566  1.0000
  C   C1103     1.0  0.05089  0.92192  0.09906  1.0000
  H   H1697     1.0  0.07394  0.91261  0.12936  1.0000
  H   H1698     1.0  0.07924  0.88387  0.12368  1.0000
  H   H1699     1.0  0.04823  0.90384  0.08652  1.0000
  H   H1700     1.0  0.04264  0.93243  0.09244  1.0000
  H   H1701     1.0  0.20992  0.55850  0.04081  1.0000
  H   H1702     1.0  0.15110  0.97210  0.09543  1.0000
  C   C1104     1.0  0.11886  0.55249  0.11832  1.0000
  H   H1703     1.0  0.47144  0.60110  0.15525  1.0000
  H   H1704     1.0  0.34133  0.50147  0.07871  1.0000
  C   C1105     1.0  0.46663  0.91531  0.09565  1.0000
  C   C1106     1.0  0.12769  0.90759  0.04154  1.0000
  C   C1107     1.0  0.12926  0.91182  0.02399  1.0000
  C   C1108     1.0  0.11852  0.90686  0.01678  1.0000
  C   C1109     1.0  0.10592  0.89811  0.02714  1.0000
  C   C1110     1.0  0.10414  0.89429  0.04470  1.0000
  C   C1111     1.0  0.11523  0.89870  0.05186  1.0000
  H   H1705     1.0  0.13888  0.91871  0.01595  1.0000
  H   H1706     1.0  0.12002  0.90972  0.00321  1.0000
  H   H1707     1.0  0.09420  0.88796  0.05285  1.0000
  H   H1708     1.0  0.11391  0.89543  0.06545  1.0000
  H   H1709     1.0  0.11501  0.55116  0.08792  1.0000
  H   H1710     1.0  0.27412  0.64127  0.00476  1.0000
  S   S469      1.0  0.28515  0.97794  0.03400  1.0000
  C   C1112     1.0  0.37057  0.51945  0.08488  1.0000
  C   C1113     1.0  0.11094  0.98745  0.07577  1.0000
  H   H1711     1.0  0.25786  0.96132  0.03589  1.0000
  N   N99       1.0  0.36586  0.90967  0.09750  1.0000
  C   C1114     1.0  0.37442  0.90283  0.08212  1.0000
  C   C1115     1.0  0.37483  0.92224  0.09851  1.0000
  C   C1116     1.0  0.36636  0.89569  0.11263  1.0000
  C   C1117     1.0  0.34782  0.91794  0.09682  1.0000
  H   H1712     1.0  0.36814  0.89310  0.08107  1.0000
  H   H1713     1.0  0.38811  0.89667  0.08216  1.0000
  H   H1714     1.0  0.37413  0.91301  0.07045  1.0000
  H   H1715     1.0  0.36877  0.92752  0.11005  1.0000
  H   H1716     1.0  0.38848  0.91647  0.09909  1.0000
  H   H1717     1.0  0.37462  0.93309  0.08740  1.0000
  H   H1718     1.0  0.36016  0.90042  0.12448  1.0000
  H   H1719     1.0  0.37978  0.88919  0.11357  1.0000
  H   H1720     1.0  0.35973  0.88594  0.11234  1.0000
  H   H1721     1.0  0.34097  0.92322  0.10826  1.0000
  H   H1722     1.0  0.34061  0.90887  0.09611  1.0000
  H   H1723     1.0  0.34689  0.92865  0.08563  1.0000
  H   H1724     1.0  0.40412  0.97976  0.19072  1.0000
  C   C1118     1.0  0.39090  0.93049  0.22954  1.0000
  N   N100      1.0  0.35552  0.51153  0.09010  1.0000
  H   H1725     1.0  0.49040  0.70869  0.07831  1.0000
  H   H1726     1.0  0.43823  0.61636  0.17816  1.0000
  H   H1727     1.0  0.45704  0.55364  0.10980  1.0000
  S   S470      1.0  0.16994  0.97561  0.00917  1.0000
  C   C1119     1.0  0.28230  0.63217  0.01323  1.0000
  H   H1728     1.0  0.36824  0.49818  0.15400  1.0000
  H   H1729     1.0  0.46229  0.53814  0.09700  1.0000
  H   H1730     1.0  0.02977  0.67575  0.04002  1.0000
  H   H1731     1.0  0.45195  0.56954  0.19003  1.0000
  H   H1732     1.0  0.36122  0.49807  0.11428  1.0000
  H   H1733     1.0  0.28787  0.89379  0.06687  1.0000
  H   H1734     1.0  0.44026  0.60190  0.16514  1.0000
  H   H1735     1.0  0.10305  0.51896  0.00126  1.0000
  H   H1736     1.0  0.46694  0.77983  0.04657  1.0000
  N   N101      1.0  0.13933  0.92190  0.09828  1.0000
  C   C1120     1.0  0.12851  0.90927  0.10277  1.0000
  C   C1121     1.0  0.15677  0.91480  0.08941  1.0000
  C   C1122     1.0  0.14033  0.92625  0.11381  1.0000
  C   C1123     1.0  0.13169  0.93735  0.08709  1.0000
  H   H1737     1.0  0.13375  0.89750  0.11140  1.0000
  H   H1738     1.0  0.12773  0.90557  0.09129  1.0000
  H   H1739     1.0  0.11518  0.91432  0.10930  1.0000
  H   H1740     1.0  0.16522  0.92408  0.08571  1.0000
  H   H1741     1.0  0.16295  0.90311  0.09747  1.0000
  H   H1742     1.0  0.15653  0.91140  0.07759  1.0000
  H   H1743     1.0  0.12741  0.93151  0.12092  1.0000
  H   H1744     1.0  0.14805  0.93608  0.11083  1.0000
  H   H1745     1.0  0.14622  0.91497  0.12253  1.0000
  H   H1746     1.0  0.13993  0.94680  0.08286  1.0000
  H   H1747     1.0  0.11883  0.94350  0.09363  1.0000
  H   H1748     1.0  0.13031  0.93449  0.07547  1.0000
  H   H1749     1.0  0.12149  0.57023  0.08651  1.0000
  Fe  Fe238     1.0  0.14826  0.97262  0.03172  1.0000
  H   H1750     1.0  0.14616  0.52567  0.99897  1.0000
  Fe  Fe239     1.0  0.06156  0.97370  0.15777  1.0000
  C   C1124     1.0  0.29126  0.90418  0.05595  1.0000
  C   C1125     1.0  0.41451  0.58873  0.22642  1.0000
  H   H1751     1.0  0.07953  0.95774  0.20827  1.0000
  C   C1126     1.0  0.02223  0.68889  0.03658  1.0000
  H   H1752     1.0  0.49472  0.68115  0.00594  1.0000
  H   H1753     1.0  0.46804  0.90754  0.12888  1.0000
  H   H1754     1.0  0.45954  0.77630  0.06906  1.0000
  H   H1755     1.0  0.27815  0.63590  0.02573  1.0000
  C   C1127     1.0  0.38649  0.84277  0.98719  1.0000
  C   C1128     1.0  0.02342  0.68566  0.00862  1.0000
  S   S471      1.0  0.07128  0.97584  0.12979  1.0000
  H   H1756     1.0  0.13477  0.94485  0.99053  1.0000
  C   C1129     1.0  0.32473  0.51726  0.00283  1.0000
  H   H1757     1.0  0.29390  0.92112  0.02384  1.0000
  H   H1758     1.0  0.10497  0.68825  0.98681  1.0000
  N   N102      1.0  0.08448  0.81050  0.10261  1.0000
  C   C1130     1.0  0.07004  0.80639  0.09856  1.0000
  C   C1131     1.0  0.09018  0.79734  0.11685  1.0000
  C   C1132     1.0  0.07881  0.82719  0.10735  1.0000
  C   C1133     1.0  0.09888  0.81112  0.08766  1.0000
  H   H1759     1.0  0.06498  0.81642  0.08834  1.0000
  H   H1760     1.0  0.05917  0.80520  0.10972  1.0000
  H   H1761     1.0  0.07404  0.79432  0.09401  1.0000
  H   H1762     1.0  0.09455  0.78461  0.11362  1.0000
  H   H1763     1.0  0.10105  0.80008  0.12025  1.0000
  H   H1764     1.0  0.07963  0.79655  0.12836  1.0000
  H   H1765     1.0  0.08935  0.83095  0.11028  1.0000
  H   H1766     1.0  0.06793  0.82736  0.11857  1.0000
  H   H1767     1.0  0.07438  0.83734  0.09684  1.0000
  H   H1768     1.0  0.11022  0.81363  0.09039  1.0000
  H   H1769     1.0  0.09523  0.82137  0.07690  1.0000
  H   H1770     1.0  0.10295  0.79906  0.08309  1.0000
  C   C1134     1.0  0.43967  0.79458  0.98863  1.0000
  H   H1771     1.0  0.13190  0.54503  0.00327  1.0000
  H   H1772     1.0  0.37905  0.61243  0.99674  1.0000
  H   H1773     1.0  0.34461  0.63696  0.99503  1.0000
  N   N103      1.0  0.10450  0.56198  0.10997  1.0000
  H   H1774     1.0  0.47721  0.66755  0.09176  1.0000
  H   H1775     1.0  0.12442  0.57964  0.21046  1.0000
  H   H1776     1.0  0.45174  0.51554  0.19744  1.0000
  H   H1777     1.0  0.47155  0.70502  0.09439  1.0000
  C   C1135     1.0  0.49736  0.65427  0.99320  1.0000
  H   H1778     1.0  0.49381  0.87692  0.10239  1.0000
  C   C1136     1.0  0.37645  0.91711  0.00228  1.0000
  H   H1779     1.0  0.44261  0.98164  0.20406  1.0000
  H   H1780     1.0  0.31789  0.53079  0.00068  1.0000
  S   S472      1.0  0.01136  0.88278  0.05137  1.0000
  H   H1781     1.0  0.40553  0.89320  0.99779  1.0000
  H   H1782     1.0  0.35811  0.51592  0.19240  1.0000
  C   C1137     1.0  0.31829  0.56752  0.00166  1.0000
  H   H1783     1.0  0.19956  0.53139  0.08363  1.0000
  H   H1784     1.0  0.41654  0.98851  0.22655  1.0000
  H   H1785     1.0  0.32875  0.51767  0.10191  1.0000
  C   C1138     1.0  0.00499  0.84169  0.03917  1.0000
  H   H1786     1.0  0.12283  0.59446  0.19072  1.0000
  H   H1787     1.0  0.45646  0.60890  0.19913  1.0000
  H   H1788     1.0  0.34976  0.51941  0.06537  1.0000
  C   C1139     1.0  0.10914  0.98137  0.09328  1.0000
  H   H1789     1.0  0.44689  0.79057  0.99894  1.0000
  H   H1790     1.0  0.37777  0.90779  0.01439  1.0000
  C   C1140     1.0  0.37597  0.89464  0.98965  1.0000
  H   H1791     1.0  0.34919  0.50998  0.17823  1.0000
  S   S473      1.0  0.31954  0.97280  0.04868  1.0000
  S   S474      1.0  0.47591  0.94195  0.19231  1.0000
  C   C1141     1.0  0.20972  0.95933  0.04795  1.0000
  H   H1792     1.0  0.01609  0.68657  0.99903  1.0000
  H   H1793     1.0  0.21757  0.54166  0.07573  1.0000
  H   H1794     1.0  0.08778  0.87439  0.99182  1.0000
  H   H1795     1.0  0.35157  0.49144  0.99731  1.0000
  H   H1796     1.0  0.19728  0.52711  0.04155  1.0000
  H   H1797     1.0  0.37810  0.88486  0.00128  1.0000
  C   C1142     1.0  0.39107  0.50191  0.18020  1.0000
  C   C1143     1.0  0.26182  0.91981  0.05920  1.0000
  H   H1798     1.0  0.44247  0.96902  0.19008  1.0000
  H   H1799     1.0  0.30561  0.60402  0.02147  1.0000
  C   C1144     1.0  0.05997  0.97277  0.23360  1.0000
  H   H1800     1.0  0.26849  0.88933  0.05138  1.0000
  H   H1801     1.0  0.46219  0.91389  0.08487  1.0000
  H   H1802     1.0  0.00108  0.75851  0.06075  1.0000
  C   C1145     1.0  0.19452  0.53199  0.05327  1.0000
  H   H1803     1.0  0.49270  0.54066  0.08935  1.0000
  H   H1804     1.0  0.01070  0.58317  0.14149  1.0000
  H   H1805     1.0  0.12211  0.51074  0.00963  1.0000
  C   C1146     1.0  0.21673  0.96471  0.05850  1.0000
  C   C1147     1.0  0.49428  0.79188  0.04480  1.0000
  C   C1148     1.0  0.48301  0.73007  0.03840  1.0000
  C   C1149     1.0  0.23417  0.96526  0.05429  1.0000
  H   H1806     1.0  0.01143  0.82853  0.03970  1.0000
  H   H1807     1.0  0.45556  0.92265  0.10342  1.0000
  H   H1808     1.0  0.25055  0.92554  0.05322  1.0000
  H   H1809     1.0  0.09427  0.98786  0.20748  1.0000
  H   H1810     1.0  0.24556  0.95161  0.01737  1.0000
  H   H1811     1.0  0.46769  0.52863  0.14138  1.0000
  H   H1812     1.0  0.20868  0.96827  0.07003  1.0000
  C   C1150     1.0  0.04782  0.94065  0.22296  1.0000
  N   N104      1.0  0.37873  0.62960  0.09924  1.0000
  C   C1151     1.0  0.38989  0.64198  0.09144  1.0000
  C   C1152     1.0  0.38091  0.62162  0.11671  1.0000
  C   C1153     1.0  0.38344  0.61638  0.08923  1.0000
  C   C1154     1.0  0.36063  0.63840  0.09956  1.0000
  H   H1813     1.0  0.38651  0.65231  0.09851  1.0000
  H   H1814     1.0  0.38879  0.64808  0.07814  1.0000
  H   H1815     1.0  0.40364  0.63590  0.09126  1.0000
  H   H1816     1.0  0.37758  0.63124  0.12459  1.0000
  H   H1817     1.0  0.37261  0.61226  0.12305  1.0000
  H   H1818     1.0  0.39440  0.61475  0.11694  1.0000
  H   H1819     1.0  0.37530  0.60678  0.09484  1.0000
  H   H1820     1.0  0.39706  0.60957  0.08858  1.0000
  H   H1821     1.0  0.38175  0.62198  0.07603  1.0000
  H   H1822     1.0  0.35184  0.62941  0.10515  1.0000
  H   H1823     1.0  0.35854  0.64466  0.08657  1.0000
  H   H1824     1.0  0.35656  0.64842  0.10707  1.0000
  H   H1825     1.0  0.22592  0.51169  0.04737  1.0000
  H   H1826     1.0  0.36858  0.53145  0.07520  1.0000
  H   H1827     1.0  0.06008  0.97048  0.20216  1.0000
  C   C1155     1.0  0.35882  0.49565  0.10287  1.0000
  H   H1828     1.0  0.46428  0.87633  0.12074  1.0000
  C   C1156     1.0  0.11050  0.56376  0.09145  1.0000
  H   H1829     1.0  0.48793  0.69231  0.11668  1.0000
  C   C1157     1.0  0.07353  0.91117  0.22391  1.0000
  N   N105      1.0  0.48218  0.66243  0.00451  1.0000
  S   S475      1.0  0.04728  0.72237  0.00414  1.0000
  Fe  Fe240     1.0  0.27139  0.96998  0.06075  1.0000
  C   C1158     1.0  0.00185  0.58432  0.15346  1.0000
  C   C1159     1.0  0.13987  0.97635  0.08998  1.0000
  H   H1830     1.0  0.28620  0.59650  0.99937  1.0000
  C   C1160     1.0  0.40902  0.98546  0.21907  1.0000
  H   H1831     1.0  0.00369  0.84741  0.99743  1.0000
  H   H1832     1.0  0.48460  0.59618  0.17043  1.0000
  H   H1833     1.0  0.12940  0.55953  0.11456  1.0000
  H   H1834     1.0  0.36383  0.49895  0.06928  1.0000
  C   C1161     1.0  0.44384  0.50581  0.20097  1.0000
  H   H1835     1.0  0.00476  0.79558  0.04586  1.0000
  C   C1162     1.0  0.45979  0.88881  0.11266  1.0000
  H   H1836     1.0  0.06318  0.96398  0.05509  1.0000
  H   H1837     1.0  0.46580  0.66885  0.98683  1.0000
  N   N106      1.0  0.49270  0.68340  0.09377  1.0000
  H   H1838     1.0  0.47456  0.56910  0.18342  1.0000
  H   H1839     1.0  0.48180  0.63971  0.02403  1.0000
  H   H1840     1.0  0.11463  0.55020  0.13234  1.0000
  C   C1163     1.0  0.46162  0.53986  0.10983  1.0000
  H   H1841     1.0  0.48777  0.94416  0.13146  1.0000
  H   H1842     1.0  0.02016  0.58944  0.16424  1.0000
  H   H1843     1.0  0.36046  0.49400  0.19289  1.0000
  H   H1844     1.0  0.38257  0.84145  0.00074  1.0000
  C   C1164     1.0  0.12081  0.59335  0.20460  1.0000
  H   H1845     1.0  0.38240  0.51082  0.07949  1.0000
  C   C1165     1.0  0.44123  0.60268  0.17783  1.0000
  S   S476      1.0  0.41018  0.85978  0.98805  1.0000
  H   H1846     1.0  0.07988  0.97688  0.19206  1.0000
  N   N107      1.0  0.47924  0.79076  0.05906  1.0000
  H   H1847     1.0  0.39750  0.96394  0.20881  1.0000
  S   S477      1.0  0.40126  0.49105  0.10660  1.0000
  C   C1166     1.0  0.43427  0.97866  0.19742  1.0000
  H   H1848     1.0  0.38853  0.52508  0.15151  1.0000
  H   H1849     1.0  0.09415  0.96885  0.22378  1.0000
  C   C1167     1.0  0.28683  0.60986  0.99835  1.0000
  N   N108      1.0  0.45842  0.59408  0.18119  1.0000
  H   H1850     1.0  0.47288  0.49487  0.21307  1.0000
  H   H1851     1.0  0.09655  0.98110  0.10118  1.0000
  H   H1852     1.0  0.47624  0.89020  0.23015  1.0000
  C   C1168     1.0  0.47149  0.60219  0.16815  1.0000
  H   H1853     1.0  0.47207  0.58925  0.20094  1.0000
  C   C1169     1.0  0.21859  0.54573  0.04275  1.0000
  C   C1170     1.0  0.22230  0.51691  0.05902  1.0000
  H   H1854     1.0  0.45171  0.53321  0.11882  1.0000
  C   C1171     1.0  0.12359  0.97576  0.10042  1.0000
  H   H1855     1.0  0.47222  0.81769  0.05786  1.0000
  H   H1856     1.0  0.03264  0.69421  0.00270  1.0000
  S   S478      1.0  0.28128  0.98642  0.07109  1.0000
  H   H1857     1.0  0.09483  0.53970  0.11337  1.0000
  N   N109      1.0  0.09000  0.66217  0.10156  1.0000
  C   C1172     1.0  0.08293  0.65098  0.11736  1.0000
  C   C1173     1.0  0.08339  0.66074  0.08750  1.0000
  C   C1174     1.0  0.10895  0.65709  0.09774  1.0000
  C   C1175     1.0  0.08471  0.67993  0.10360  1.0000
  H   H1858     1.0  0.08716  0.63742  0.11648  1.0000
  H   H1859     1.0  0.06868  0.65414  0.12032  1.0000
  H   H1860     1.0  0.08704  0.65228  0.12839  1.0000
  H   H1861     1.0  0.08829  0.66921  0.07544  1.0000
  H   H1862     1.0  0.08736  0.64758  0.08536  1.0000
  H   H1863     1.0  0.06912  0.66440  0.09001  1.0000
  H   H1864     1.0  0.11354  0.64394  0.09554  1.0000
  H   H1865     1.0  0.11439  0.65754  0.10827  1.0000
  H   H1866     1.0  0.11467  0.66567  0.08621  1.0000
  H   H1867     1.0  0.08950  0.68155  0.11405  1.0000
  H   H1868     1.0  0.07049  0.68417  0.10652  1.0000
  H   H1869     1.0  0.08979  0.68872  0.09183  1.0000
  H   H1870     1.0  0.43379  0.95944  0.22875  1.0000
  N   N110      1.0  0.21035  0.53365  0.05692  1.0000
  H   H1871     1.0  0.37386  0.53385  0.16861  1.0000
  H   H1872     1.0  0.40906  0.60204  0.22231  1.0000
  S   S479      1.0  0.05044  0.62088  0.23109  1.0000
  C   C1176     1.0  0.48390  0.51481  0.11471  1.0000
  N   N111      1.0  0.06975  0.98098  0.21733  1.0000
  H   H1873     1.0  0.28514  0.93612  0.03719  1.0000
  H   H1874     1.0  0.36145  0.66604  0.99183  1.0000
  H   H1875     1.0  0.39103  0.49499  0.15089  1.0000
  H   H1876     1.0  0.27189  0.93227  0.02563  1.0000
  H   H1877     1.0  0.10614  0.55644  0.99131  1.0000
  H   H1878     1.0  0.41500  0.95188  0.23071  1.0000
  H   H1879     1.0  0.12456  0.53995  0.11479  1.0000
  S   S480      1.0  0.13414  0.51780  0.03656  1.0000
  C   C1177     1.0  0.12735  0.64931  0.99064  1.0000
  H   H1880     1.0  0.10800  0.52998  0.01431  1.0000
  N   N112      1.0  0.08629  0.94652  0.06066  1.0000
  C   C1178     1.0  0.06742  0.95219  0.06423  1.0000
  C   C1179     1.0  0.09409  0.95995  0.06177  1.0000
  C   C1180     1.0  0.09243  0.94300  0.04347  1.0000
  C   C1181     1.0  0.09121  0.93093  0.07321  1.0000
  H   H1881     1.0  0.00073  0.60051  0.22991  1.0000
  H   H1882     1.0  0.40506  0.77766  0.01072  1.0000
  H   H1883     1.0  0.06116  0.94232  0.06351  1.0000
  C   C1182     1.0  0.37545  0.62337  0.00303  1.0000
  H   H1884     1.0  0.09065  0.97194  0.05250  1.0000
  H   H1885     1.0  0.08973  0.96287  0.07462  1.0000
  H   H1886     1.0  0.10666  0.93934  0.04013  1.0000
  H   H1887     1.0  0.08842  0.95429  0.03370  1.0000
  H   H1888     1.0  0.08742  0.93238  0.04238  1.0000
  H   H1889     1.0  0.10532  0.92607  0.07068  1.0000
  H   H1890     1.0  0.08527  0.92060  0.07298  1.0000
  H   H1891     1.0  0.08698  0.93321  0.08631  1.0000
  N   N113      1.0  0.47340  0.89869  0.10586  1.0000
  H   H1892     1.0  0.47481  0.50747  0.12426  1.0000
  C   C1183     1.0  0.49127  0.54217  0.10243  1.0000
  N   N114      1.0  0.12337  0.53244  0.98898  1.0000
  Fe  Fe241     1.0  0.15900  0.95938  0.99952  1.0000
  H   H1893     1.0  0.26159  0.59964  0.02433  1.0000
  C   C1184     1.0  0.35246  0.50768  0.07520  1.0000
  H   H1894     1.0  0.45463  0.66786  0.00847  1.0000
  H   H1895     1.0  0.47066  0.65894  0.03104  1.0000
  H   H1896     1.0  0.21650  0.50748  0.06960  1.0000
  H   H1897     1.0  0.06528  0.76755  0.99334  1.0000
  C   C1185     1.0  0.47683  0.53575  0.13173  1.0000
  N   N115      1.0  0.47842  0.53314  0.11466  1.0000
  C   C1186     1.0  0.01212  0.85243  0.04419  1.0000
  H   H1898     1.0  0.46181  0.57452  0.16786  1.0000
  H   H1899     1.0  0.36876  0.82871  0.98610  1.0000
  H   H1900     1.0  0.26171  0.90568  0.03419  1.0000
  H   H1901     1.0  0.12992  0.59986  0.20653  1.0000
  C   C1187     1.0  0.09045  0.55266  0.11609  1.0000
  C   C1188     1.0  0.41266  0.49621  0.11851  1.0000
  N   N116      1.0  0.37664  0.50697  0.17151  1.0000
  C   C1189     1.0  0.12726  0.98735  0.06529  1.0000
  C   C1190     1.0  0.40266  0.90278  0.98628  1.0000
  C   C1191     1.0  0.46181  0.57600  0.18062  1.0000
  H   H1902     1.0  0.03150  0.69739  0.03132  1.0000
  H   H1903     1.0  0.36190  0.89883  0.99056  1.0000
  H   H1904     1.0  0.10962  0.58865  0.99277  1.0000
  H   H1905     1.0  0.38959  0.51044  0.18880  1.0000
  H   H1906     1.0  0.49424  0.77433  0.07679  1.0000
  S   S481      1.0  0.24293  0.97114  0.06810  1.0000
  H   H1907     1.0  0.11863  0.62255  0.01433  1.0000
  H   H1908     1.0  0.34241  0.52702  0.10832  1.0000
  H   H1909     1.0  0.47233  0.54943  0.13225  1.0000
  H   H1910     1.0  0.19704  0.55266  0.07141  1.0000
  H   H1911     1.0  0.45541  0.88639  0.10233  1.0000
  H   H1912     1.0  0.00684  0.66525  0.03513  1.0000
  N   N117      1.0  0.38398  0.90902  0.98756  1.0000
  C   C1192     1.0  0.42142  0.55981  0.22266  1.0000
  H   H1913     1.0  0.48441  0.88718  0.08428  1.0000
  N   N118      1.0  0.33281  0.51183  0.98663  1.0000
  C   C1193     1.0  0.33484  0.58824  0.99900  1.0000
  C   C1194     1.0  0.13717  0.53710  0.99358  1.0000
  H   H1914     1.0  0.48768  0.55599  0.10236  1.0000
  C   C1195     1.0  0.48485  0.78670  0.07521  1.0000
  H   H1915     1.0  0.48510  0.88908  0.12746  1.0000
  C   C1196     1.0  0.14174  0.98183  0.07238  1.0000
  H   H1916     1.0  0.28808  0.60634  0.03913  1.0000
  H   H1917     1.0  0.01079  0.71698  0.01466  1.0000
  H   H1918     1.0  0.03111  0.67246  0.01113  1.0000
  H   H1919     1.0  0.47549  0.49510  0.18324  1.0000
  N   N119      1.0  0.28100  0.61451  0.01506  1.0000
  H   H1920     1.0  0.08356  0.89978  0.22428  1.0000
  H   H1921     1.0  0.44962  0.58921  0.20828  1.0000
  H   H1922     1.0  0.49054  0.79471  0.03243  1.0000
  N   N120      1.0  0.41950  0.97239  0.20948  1.0000
  H   H1923     1.0  0.06235  0.95486  0.07717  1.0000
  C   C1197     1.0  0.46632  0.66191  0.00005  1.0000
  H   H1924     1.0  0.25434  0.62115  0.01384  1.0000
  H   H1925     1.0  0.14528  0.61712  0.99276  1.0000
  H   H1926     1.0  0.30039  0.61092  0.99259  1.0000
  H   H1927     1.0  0.08053  0.60680  0.99233  1.0000
  H   H1928     1.0  0.15438  0.98183  0.06429  1.0000
  H   H1929     1.0  0.08510  0.62486  0.20908  1.0000
  H   H1930     1.0  0.33801  0.97086  0.07245  1.0000
  H   H1931     1.0  0.03789  0.95210  0.22242  1.0000
  H   H1932     1.0  0.47383  0.78586  0.08626  1.0000
  H   H1933     1.0  0.02396  0.84752  0.04861  1.0000
  H   H1934     1.0  0.09279  0.59274  0.19510  1.0000
  H   H1935     1.0  0.13538  0.64506  0.00032  1.0000
  H   H1936     1.0  0.29496  0.91338  0.06087  1.0000
  H   H1937     1.0  0.49680  0.50942  0.11772  1.0000
  H   H1938     1.0  0.04710  0.97221  0.23249  1.0000
  H   H1939     1.0  0.48015  0.76465  0.05994  1.0000
  C   C1198     1.0  0.24449  0.96074  0.03933  1.0000
  C   C1199     1.0  0.48292  0.68027  0.00265  1.0000
  H   H1940     1.0  0.41581  0.82008  0.00006  1.0000
  C   C1200     1.0  0.47901  0.90128  0.12002  1.0000
  C   C1201     1.0  0.11367  0.52261  0.00417  1.0000
  H   H1941     1.0  0.47046  0.67534  0.11093  1.0000
  C   C1202     1.0  0.20598  0.54004  0.07264  1.0000
  C   C1203     1.0  0.09821  0.57897  0.11406  1.0000
  H   H1942     1.0  0.18527  0.54442  0.05156  1.0000
  H   H1943     1.0  0.46211  0.81052  0.04555  1.0000
  C   C1204     1.0  0.09865  0.61893  0.20389  1.0000
  N   N121      1.0  0.42120  0.79493  0.99553  1.0000
  H   H1944     1.0  0.26441  0.93002  0.06366  1.0000
  C   C1205     1.0  0.42583  0.95690  0.22142  1.0000
  C   C1206     1.0  0.27249  0.89981  0.04087  1.0000
  H   H1945     1.0  0.43103  0.59688  0.18734  1.0000
  H   H1946     1.0  0.28361  0.89407  0.03176  1.0000
  H   H1947     1.0  0.40358  0.50224  0.17098  1.0000
  C   C1207     1.0  0.28216  0.92608  0.03284  1.0000
  H   H1948     1.0  0.22220  0.54133  0.03066  1.0000
  C   C1208     1.0  0.37893  0.49495  0.16069  1.0000
  C   C1209     1.0  0.47115  0.77726  0.05866  1.0000
  H   H1949     1.0  0.44464  0.93953  0.18566  1.0000
  N   N122      1.0  0.37054  0.63958  0.99122  1.0000
  N   N123      1.0  0.27693  0.91247  0.04723  1.0000
  H   H1950     1.0  0.25793  0.91004  0.07056  1.0000
  H   H1951     1.0  0.49365  0.65377  0.02620  1.0000
  H   H1952     1.0  0.48924  0.65862  0.10810  1.0000
  C   C1210     1.0  0.26299  0.61292  0.02226  1.0000
  C   C1211     1.0  0.00369  0.86940  0.04379  1.0000
  H   H1953     1.0  0.10836  0.95614  0.05903  1.0000
  H   H1954     1.0  0.10023  0.62084  0.18997  1.0000
  H   H1955     1.0  0.18783  0.52316  0.06383  1.0000
  C   C1212     1.0  0.40890  0.96847  0.20011  1.0000
  H   H1956     1.0  0.36253  0.92277  0.00314  1.0000
  C   C1213     1.0  0.34027  0.52335  0.09743  1.0000
  H   H1957     1.0  0.41625  0.95832  0.19307  1.0000
  H   H1958     1.0  0.47179  0.68679  0.01113  1.0000
  H   H1959     1.0  0.09967  0.63659  0.00819  1.0000
  H   H1960     1.0  0.29129  0.58960  0.02838  1.0000
  H   H1961     1.0  0.48860  0.90949  0.11539  1.0000
  H   H1962     1.0  0.43373  0.94665  0.21472  1.0000
  H   H1963     1.0  0.25812  0.61666  0.03474  1.0000
  H   H1964     1.0  0.46622  0.93604  0.23007  1.0000
  H   H1965     1.0  0.47619  0.91103  0.21706  1.0000
  C   C1214     1.0  0.99992  0.67865  0.03172  1.0000
  H   H1966     1.0  0.07554  0.89568  0.99026  1.0000
  H   H1967     1.0  0.35451  0.65177  0.01132  1.0000
  C   C1215     1.0  0.10062  0.59888  0.23036  1.0000
  H   H1968     1.0  0.43680  0.50826  0.19073  1.0000
  C   C1216     1.0  0.41420  0.80703  0.00688  1.0000
  H   H1969     1.0  0.40026  0.80767  0.01231  1.0000
  H   H1970     1.0  0.48290  0.68756  0.98942  1.0000
  H   H1971     1.0  0.31520  0.50962  0.01085  1.0000
  C   C1217     1.0  0.29197  0.60307  0.02650  1.0000
  H   H1972     1.0  0.44827  0.89567  0.12054  1.0000
  C   C1218     1.0  0.48194  0.67066  0.10151  1.0000
  C   C1219     1.0  0.07979  0.70337  0.99474  1.0000
  H   H1973     1.0  0.07766  0.59725  0.21400  1.0000
  H   H1974     1.0  0.42076  0.80335  0.01765  1.0000
  C   C1220     1.0  0.48210  0.65326  0.02221  1.0000
  H   H1975     1.0  0.45504  0.80666  0.06802  1.0000
  H   H1976     1.0  0.33440  0.51572  0.01034  1.0000
  H   H1977     1.0  0.36533  0.97678  0.07329  1.0000
  N   N124      1.0  0.12209  0.63493  0.98801  1.0000
  H   H1978     1.0  0.11601  0.65895  0.99510  1.0000
  N   N125      1.0  0.01191  0.69027  0.02430  1.0000
  H   H1979     1.0  0.45625  0.90494  0.22806  1.0000
  H   H1980     1.0  0.38648  0.62332  0.00815  1.0000
  H   H1981     1.0  0.36461  0.62098  0.01399  1.0000
  H   H1982     1.0  0.37618  0.65454  0.00529  1.0000
  C   C1221     1.0  0.46963  0.90377  0.22915  1.0000
  C   C1222     1.0  0.09131  0.59180  0.20887  1.0000
  C   C1223     1.0  0.41886  0.77782  0.00516  1.0000
  H   H1983     1.0  0.47646  0.92323  0.09047  1.0000
  H   H1984     1.0  0.46535  0.64868  0.00117  1.0000
  N   N126      1.0  0.10286  0.60073  0.21194  1.0000
  H   H1985     1.0  0.10699  0.62612  0.20608  1.0000
  H   H1986     1.0  0.49728  0.64081  0.99421  1.0000
  H   H1987     1.0  0.39775  0.98106  0.22825  1.0000
  C   C1224     1.0  0.08654  0.98178  0.21954  1.0000
  H   H1988     1.0  0.10727  0.61633  0.00244  1.0000
  C   C1225     1.0  0.06426  0.71232  0.99010  1.0000
  C   C1226     1.0  0.00208  0.70790  0.02031  1.0000
  H   H1989     1.0  0.49407  0.91751  0.23322  1.0000
  H   H1990     1.0  0.39807  0.80094  0.98622  1.0000
  C   C1227     1.0  0.49878  0.68711  0.10703  1.0000
  H   H1991     1.0  0.49859  0.89666  0.08971  1.0000
  Fe  Fe242     1.0  0.03638  0.82848  0.41482  1.0000
  S   S482      1.0  0.06366  0.81494  0.40783  1.0000
  Fe  Fe243     1.0  0.03930  0.82675  0.45043  1.0000
  S   S483      1.0  0.06704  0.81334  0.44602  1.0000
  Fe  Fe244     1.0  0.06921  0.83202  0.42106  1.0000
  S   S484      1.0  0.09014  0.84569  0.40563  1.0000
  Fe  Fe245     1.0  0.05848  0.79775  0.43324  1.0000
  S   S485      1.0  0.06844  0.76951  0.43613  1.0000
  S   S486      1.0  0.04210  0.84671  0.42650  1.0000
  Fe  Fe246     1.0  0.12487  0.91715  0.40861  1.0000
  S   S487      1.0  0.14396  0.90586  0.38787  1.0000
  S   S488      1.0  0.11127  0.90001  0.43101  1.0000
  Fe  Fe247     1.0  0.12757  0.95297  0.38980  1.0000
  S   S489      1.0  0.14626  0.94427  0.36731  1.0000
  H   H1992     1.0  0.07528  0.49309  0.39619  1.0000
  Fe  Fe248     1.0  0.12933  0.92640  0.37049  1.0000
  S   S490      1.0  0.12469  0.91902  0.34839  1.0000
  Fe  Fe249     1.0  0.15914  0.92464  0.38660  1.0000
  S   S491      1.0  0.18816  0.91751  0.37956  1.0000
  S   S492      1.0  0.10941  0.93674  0.39130  1.0000
  S   S493      1.0  0.14144  0.93432  0.40909  1.0000
  Fe  Fe250     1.0  0.03891  0.92321  0.28351  1.0000
  S   S494      1.0  0.02273  0.93924  0.30197  1.0000
  S   S495      1.0  0.03985  0.93888  0.25684  1.0000
  Fe  Fe251     1.0  0.04241  0.89192  0.31165  1.0000
  S   S496      1.0  0.02592  0.90559  0.33187  1.0000
  S   S497      1.0  0.05467  0.86467  0.32047  1.0000
  Fe  Fe252     1.0  0.04138  0.92539  0.31859  1.0000
  S   S498      1.0  0.04936  0.93806  0.33487  1.0000
  S   S499      1.0  0.02414  0.90243  0.29406  1.0000
  S   S500      1.0  0.05891  0.91115  0.29919  1.0000
  Fe  Fe253     1.0  0.39450  0.66515  0.42835  1.0000
  S   S501      1.0  0.36946  0.68183  0.42349  1.0000
  S   S502      1.0  0.39848  0.65910  0.45479  1.0000
  Fe  Fe254     1.0  0.40677  0.65882  0.39277  1.0000
  S   S503      1.0  0.38274  0.67529  0.38510  1.0000
  S   S504      1.0  0.42819  0.64594  0.37431  1.0000
  Fe  Fe255     1.0  0.38562  0.69318  0.39913  1.0000
  S   S505      1.0  0.38273  0.72096  0.38675  1.0000
  Fe  Fe256     1.0  0.36924  0.66210  0.41012  1.0000
  S   S506      1.0  0.34492  0.65368  0.41255  1.0000
  S   S507      1.0  0.41084  0.67775  0.40484  1.0000
  S   S508      1.0  0.39311  0.64445  0.41698  1.0000
  Fe  Fe257     1.0  0.31484  0.53464  0.42185  1.0000
  S   S509      1.0  0.29804  0.54743  0.40318  1.0000
  S   S510      1.0  0.31929  0.50647  0.43210  1.0000
  Fe  Fe258     1.0  0.32489  0.56716  0.42066  1.0000
  S   S511      1.0  0.30859  0.58278  0.40222  1.0000
  S   S512      1.0  0.34404  0.57549  0.42940  1.0000
  Fe  Fe259     1.0  0.28880  0.56773  0.41818  1.0000
  S   S513      1.0  0.26080  0.57983  0.42616  1.0000
  Fe  Fe260     1.0  0.31918  0.56098  0.38903  1.0000
  S   S514      1.0  0.32686  0.56518  0.36063  1.0000
  S   S515      1.0  0.30427  0.55399  0.43793  1.0000
  S   S516      1.0  0.33686  0.54638  0.40630  1.0000
  Fe  Fe261     1.0  0.41473  0.59953  0.31299  1.0000
  S   S517      1.0  0.42802  0.57451  0.32638  1.0000
  S   S518      1.0  0.39849  0.61975  0.32699  1.0000
  Fe  Fe262     1.0  0.42386  0.58849  0.27941  1.0000
  S   S519      1.0  0.43783  0.56247  0.29005  1.0000
  S   S520      1.0  0.42085  0.59815  0.25237  1.0000
  Fe  Fe263     1.0  0.41590  0.56326  0.31259  1.0000
  S   S521      1.0  0.40479  0.54045  0.32683  1.0000
  Fe  Fe264     1.0  0.44865  0.57618  0.30269  1.0000
  S   S522      1.0  0.47683  0.56825  0.30220  1.0000
  S   S523      1.0  0.40086  0.58812  0.30098  1.0000
  S   S524      1.0  0.43646  0.60228  0.29035  1.0000
  H   H1993     1.0  0.46374  0.65471  0.36016  1.0000
  H   H1994     1.0  0.06152  0.87171  0.46758  1.0000
  Fe  Fe265     1.0  0.42042  0.81545  0.40857  1.0000
  S   S525      1.0  0.40955  0.80482  0.39314  1.0000
  S   S526      1.0  0.44872  0.80924  0.40682  1.0000
  Fe  Fe266     1.0  0.38543  0.82937  0.42885  1.0000
  S   S527      1.0  0.37151  0.81993  0.41524  1.0000
  S   S528      1.0  0.37244  0.84049  0.45169  1.0000
  Fe  Fe267     1.0  0.39199  0.79604  0.41767  1.0000
  S   S529      1.0  0.38813  0.76948  0.43025  1.0000
  Fe  Fe268     1.0  0.39040  0.82976  0.39207  1.0000
  S   S530      1.0  0.38095  0.84527  0.36873  1.0000
  S   S531      1.0  0.40446  0.80489  0.43313  1.0000
  S   S532      1.0  0.40270  0.84108  0.40572  1.0000
  Fe  Fe269     1.0  0.26291  0.92870  0.41150  1.0000
  S   S533      1.0  0.27871  0.94267  0.38837  1.0000
  S   S534      1.0  0.23386  0.93412  0.41975  1.0000
  Fe  Fe270     1.0  0.29426  0.90933  0.42636  1.0000
  S   S535      1.0  0.31266  0.92155  0.40477  1.0000
  S   S536      1.0  0.30105  0.89209  0.45028  1.0000
  Fe  Fe271     1.0  0.29273  0.94554  0.40644  1.0000
  S   S537      1.0  0.30093  0.96979  0.40333  1.0000
  Fe  Fe272     1.0  0.29734  0.91756  0.38855  1.0000
  S   S538      1.0  0.31224  0.90603  0.36615  1.0000
  S   S539      1.0  0.27556  0.93377  0.42949  1.0000
  S   S540      1.0  0.28038  0.90312  0.41023  1.0000
  Fe  Fe273     1.0  0.40869  0.95747  0.27875  1.0000
  S   S541      1.0  0.39027  0.95419  0.26539  1.0000
  Fe  Fe274     1.0  0.40710  0.92327  0.30382  1.0000
  S   S542      1.0  0.38905  0.91720  0.29192  1.0000
  S   S543      1.0  0.41727  0.90599  0.32636  1.0000
  Fe  Fe275     1.0  0.40553  0.92748  0.26711  1.0000
  Fe  Fe276     1.0  0.37561  0.94442  0.29152  1.0000
  S   S544      1.0  0.34729  0.95383  0.30111  1.0000
  S   S545      1.0  0.42480  0.93127  0.27911  1.0000
  S   S546      1.0  0.39285  0.95006  0.30475  1.0000
  C   C1228     1.0  0.00874  0.65042  0.47884  1.0000
  H   H1995     1.0  0.04162  0.78809  0.35647  1.0000
  S   S547      1.0  0.47331  0.84887  0.44599  1.0000
  C   C1229     1.0  0.07694  0.49147  0.30530  1.0000
  H   H1996     1.0  0.06135  0.77239  0.35658  1.0000
  H   H1997     1.0  0.23928  0.50816  0.39058  1.0000
  H   H1998     1.0  0.36393  0.56777  0.37724  1.0000
  Fe  Fe277     1.0  0.17620  0.56105  0.42612  1.0000
  S   S548      1.0  0.16002  0.54298  0.44351  1.0000
  S   S549      1.0  0.20350  0.54996  0.41429  1.0000
  Fe  Fe278     1.0  0.14811  0.59197  0.43185  1.0000
  S   S550      1.0  0.12970  0.57668  0.44973  1.0000
  S   S551      1.0  0.14134  0.62043  0.42467  1.0000
  Fe  Fe279     1.0  0.15241  0.56143  0.46043  1.0000
  C   C1230     1.0  0.09507  0.50564  0.36692  1.0000
  Fe  Fe280     1.0  0.13871  0.55971  0.43118  1.0000
  S   S552      1.0  0.11736  0.54987  0.42794  1.0000
  S   S553      1.0  0.17022  0.57815  0.44419  1.0000
  S   S554      1.0  0.15543  0.57628  0.41212  1.0000
  Fe  Fe281     1.0  0.03552  0.70091  0.41673  1.0000
  C   C1231     1.0  0.08738  0.49571  0.39721  1.0000
  Fe  Fe282     1.0  0.04744  0.66875  0.40277  1.0000
  S   S555      1.0  0.03983  0.65189  0.42804  1.0000
  S   S556      1.0  0.06084  0.65777  0.37977  1.0000
  Fe  Fe283     1.0  0.05148  0.66749  0.43775  1.0000
  S   S557      1.0  0.06609  0.65362  0.45826  1.0000
  S   S558      1.0  0.06111  0.68294  0.41214  1.0000
  Fe  Fe284     1.0  0.07943  0.56519  0.34908  1.0000
  S   S559      1.0  0.05485  0.56637  0.36866  1.0000
  S   S560      1.0  0.10593  0.56003  0.35416  1.0000
  Fe  Fe285     1.0  0.06155  0.56915  0.32026  1.0000
  S   S561      1.0  0.03552  0.57152  0.33765  1.0000
  S   S562      1.0  0.06563  0.56286  0.29471  1.0000
  Fe  Fe286     1.0  0.04457  0.58797  0.34900  1.0000
  S   S563      1.0  0.02625  0.61056  0.35830  1.0000
  Fe  Fe287     1.0  0.04817  0.54984  0.35555  1.0000
  S   S564      1.0  0.03935  0.52532  0.36810  1.0000
  S   S565      1.0  0.06966  0.58773  0.32982  1.0000
  S   S566      1.0  0.07372  0.54669  0.33780  1.0000
  H   H1999     1.0  0.46105  0.90444  0.27090  1.0000
  H   H2000     1.0  0.06659  0.52355  0.38364  1.0000
  S   S567      1.0  0.02704  0.68667  0.44314  1.0000
  C   C1232     1.0  0.02912  0.51895  0.35585  1.0000
  C   C1233     1.0  0.02234  0.53066  0.34272  1.0000
  C   C1234     1.0  0.01495  0.52542  0.33248  1.0000
  C   C1235     1.0  0.01478  0.50830  0.33493  1.0000
  H   H2001     1.0  0.49291  0.82660  0.39061  1.0000
  C   C1236     1.0  0.02832  0.50188  0.35878  1.0000
  H   H2002     1.0  0.02259  0.54384  0.34053  1.0000
  H   H2003     1.0  0.46246  0.53226  0.35294  1.0000
  H   H2004     1.0  0.47349  0.50148  0.35411  1.0000
  H   H2005     1.0  0.07688  0.52909  0.39692  1.0000
  C   C1237     1.0  0.05094  0.64460  0.37425  1.0000
  C   C1238     1.0  0.06068  0.63440  0.36276  1.0000
  C   C1239     1.0  0.05329  0.62360  0.35820  1.0000
  C   C1240     1.0  0.03592  0.62337  0.36466  1.0000
  C   C1241     1.0  0.02607  0.63372  0.37601  1.0000
  C   C1242     1.0  0.03363  0.64413  0.38103  1.0000
  H   H2006     1.0  0.07403  0.63483  0.35737  1.0000
  H   H2007     1.0  0.06094  0.61579  0.34934  1.0000
  H   H2008     1.0  0.01264  0.63359  0.38105  1.0000
  H   H2009     1.0  0.02604  0.65195  0.38991  1.0000
  C   C1243     1.0  0.31345  0.91536  0.47798  1.0000
  C   C1244     1.0  0.18225  0.97982  0.35842  1.0000
  H   H2010     1.0  0.14533  0.58866  0.47240  1.0000
  H   H2011     1.0  0.47393  0.66552  0.36908  1.0000
  C   C1245     1.0  0.11428  0.55333  0.40732  1.0000
  C   C1246     1.0  0.09781  0.55485  0.40497  1.0000
  C   C1247     1.0  0.09493  0.55779  0.38863  1.0000
  C   C1248     1.0  0.10868  0.55838  0.37461  1.0000
  C   C1249     1.0  0.12517  0.55677  0.37698  1.0000
  C   C1250     1.0  0.12795  0.55449  0.39327  1.0000
  H   H2012     1.0  0.08718  0.55402  0.41581  1.0000
  H   H2013     1.0  0.08212  0.55941  0.38695  1.0000
  H   H2014     1.0  0.13586  0.55724  0.36618  1.0000
  H   H2015     1.0  0.14071  0.55328  0.39498  1.0000
  C   C1251     1.0  0.12114  0.63016  0.43510  1.0000
  C   C1252     1.0  0.11273  0.62198  0.45077  1.0000
  C   C1253     1.0  0.09593  0.62941  0.45808  1.0000
  C   C1254     1.0  0.08744  0.64488  0.44958  1.0000
  C   C1255     1.0  0.09605  0.65325  0.43418  1.0000
  C   C1256     1.0  0.11293  0.64601  0.42705  1.0000
  H   H2016     1.0  0.11915  0.60995  0.45726  1.0000
  H   H2017     1.0  0.08936  0.62294  0.47007  1.0000
  H   H2018     1.0  0.08976  0.66539  0.42776  1.0000
  H   H2019     1.0  0.11943  0.65245  0.41499  1.0000
  C   C1257     1.0  0.29579  0.53005  0.36857  1.0000
  H   H2020     1.0  0.03517  0.77894  0.42713  1.0000
  H   H2021     1.0  0.49432  0.96999  0.28671  1.0000
  H   H2022     1.0  0.46838  0.88626  0.26136  1.0000
  C   C1258     1.0  0.05699  0.59619  0.27819  1.0000
  C   C1259     1.0  0.06028  0.57913  0.27752  1.0000
  H   H2023     1.0  0.39762  0.51673  0.31063  1.0000
  C   C1260     1.0  0.22382  0.50224  0.42351  1.0000
  H   H2024     1.0  0.35668  0.90195  0.46647  1.0000
  H   H2025     1.0  0.05738  0.59961  0.28956  1.0000
  H   H2026     1.0  0.20735  0.97765  0.37409  1.0000
  C   C1261     1.0  0.47529  0.59102  0.33936  1.0000
  H   H2027     1.0  0.42442  0.52624  0.29552  1.0000
  H   H2028     1.0  0.01855  0.63985  0.48414  1.0000
  H   H2029     1.0  0.19428  0.51928  0.41407  1.0000
  C   C1262     1.0  0.02148  0.49647  0.34809  1.0000
  C   C1263     1.0  0.06566  0.77438  0.38634  1.0000
  C   C1264     1.0  0.48257  0.57508  0.31734  1.0000
  H   H2030     1.0  0.37300  0.58278  0.34709  1.0000
  C   C1265     1.0  0.30545  0.97346  0.42107  1.0000
  C   C1266     1.0  0.29978  0.96462  0.43758  1.0000
  C   C1267     1.0  0.30335  0.96840  0.45143  1.0000
  C   C1268     1.0  0.31273  0.98086  0.44866  1.0000
  H   H2031     1.0  0.20980  0.58094  0.46246  1.0000
  C   C1269     1.0  0.31469  0.98591  0.41845  1.0000
  C   C1270     1.0  0.06390  0.91607  0.23911  1.0000
  H   H2032     1.0  0.11922  0.50118  0.38463  1.0000
  H   H2033     1.0  0.47972  0.85168  0.40343  1.0000
  H   H2034     1.0  0.11324  0.52313  0.37467  1.0000
  C   C1271     1.0  0.32112  0.91952  0.34769  1.0000
  C   C1272     1.0  0.33346  0.91241  0.33494  1.0000
  C   C1273     1.0  0.34138  0.92286  0.32047  1.0000
  C   C1274     1.0  0.33680  0.94049  0.31856  1.0000
  C   C1275     1.0  0.32418  0.94760  0.33114  1.0000
  C   C1276     1.0  0.31648  0.93715  0.34576  1.0000
  H   H2035     1.0  0.33709  0.89880  0.33629  1.0000
  H   H2036     1.0  0.35101  0.91729  0.31076  1.0000
  H   H2037     1.0  0.32056  0.96124  0.32968  1.0000
  H   H2038     1.0  0.30693  0.94275  0.35548  1.0000
  C   C1277     1.0  0.45450  0.81952  0.41921  1.0000
  C   C1278     1.0  0.47055  0.81347  0.42340  1.0000
  C   C1279     1.0  0.47583  0.82203  0.43252  1.0000
  C   C1280     1.0  0.46537  0.83695  0.43697  1.0000
  C   C1281     1.0  0.44910  0.84284  0.43314  1.0000
  C   C1282     1.0  0.44360  0.83402  0.42437  1.0000
  S   S568      1.0  0.41839  0.91531  0.24465  1.0000
  H   H2039     1.0  0.30285  0.49600  0.37713  1.0000
  H   H2040     1.0  0.44102  0.85450  0.43643  1.0000
  H   H2041     1.0  0.43120  0.83879  0.42109  1.0000
  C   C1283     1.0  0.39138  0.86186  0.35683  1.0000
  C   C1284     1.0  0.40614  0.86372  0.36047  1.0000
  C   C1285     1.0  0.41404  0.87722  0.35097  1.0000
  C   C1286     1.0  0.40738  0.88883  0.33763  1.0000
  C   C1287     1.0  0.39267  0.88690  0.33396  1.0000
  C   C1288     1.0  0.38467  0.87351  0.34354  1.0000
  H   H2042     1.0  0.41168  0.85461  0.37039  1.0000
  H   H2043     1.0  0.42544  0.87858  0.35388  1.0000
  H   H2044     1.0  0.38735  0.89571  0.32378  1.0000
  H   H2045     1.0  0.37332  0.87214  0.34055  1.0000
  C   C1289     1.0  0.35249  0.85442  0.45044  1.0000
  C   C1290     1.0  0.34852  0.86377  0.43490  1.0000
  C   C1291     1.0  0.33268  0.87544  0.43455  1.0000
  C   C1292     1.0  0.32072  0.87732  0.44971  1.0000
  C   C1293     1.0  0.32464  0.86766  0.46510  1.0000
  C   C1294     1.0  0.34054  0.85646  0.46549  1.0000
  H   H2046     1.0  0.35781  0.86233  0.42323  1.0000
  H   H2047     1.0  0.32974  0.88305  0.42266  1.0000
  H   H2048     1.0  0.19086  0.98868  0.35118  1.0000
  H   H2049     1.0  0.08261  0.52883  0.30898  1.0000
  H   H2050     1.0  0.06658  0.90853  0.25114  1.0000
  H   H2051     1.0  0.01899  0.86892  0.33788  1.0000
  C   C1295     1.0  0.24518  0.57138  0.42251  1.0000
  C   C1296     1.0  0.24933  0.55575  0.41777  1.0000
  C   C1297     1.0  0.23652  0.54936  0.41510  1.0000
  C   C1298     1.0  0.21943  0.55844  0.41735  1.0000
  C   C1299     1.0  0.21533  0.57410  0.42196  1.0000
  C   C1300     1.0  0.22813  0.58051  0.42458  1.0000
  H   H2052     1.0  0.26235  0.54851  0.41632  1.0000
  H   H2053     1.0  0.23984  0.53732  0.41139  1.0000
  H   H2054     1.0  0.20239  0.58154  0.42306  1.0000
  H   H2055     1.0  0.22486  0.59274  0.42792  1.0000
  C   C1301     1.0  0.34837  0.55751  0.35137  1.0000
  C   C1302     1.0  0.35908  0.54447  0.36046  1.0000
  C   C1303     1.0  0.37633  0.53895  0.35276  1.0000
  C   C1304     1.0  0.38297  0.54668  0.33610  1.0000
  C   C1305     1.0  0.37215  0.55948  0.32695  1.0000
  C   C1306     1.0  0.35485  0.56472  0.33450  1.0000
  H   H2056     1.0  0.35412  0.53859  0.37337  1.0000
  H   H2057     1.0  0.38463  0.52894  0.35985  1.0000
  H   H2058     1.0  0.37705  0.56528  0.31398  1.0000
  H   H2059     1.0  0.34657  0.57468  0.32734  1.0000
  C   C1307     1.0  0.38480  0.73426  0.39875  1.0000
  C   C1308     1.0  0.38682  0.72788  0.41543  1.0000
  C   C1309     1.0  0.38801  0.73879  0.42492  1.0000
  C   C1310     1.0  0.38733  0.75608  0.41773  1.0000
  C   C1311     1.0  0.38562  0.76241  0.40096  1.0000
  C   C1312     1.0  0.38427  0.75153  0.39152  1.0000
  H   H2060     1.0  0.38741  0.71456  0.42101  1.0000
  H   H2061     1.0  0.38955  0.73380  0.43783  1.0000
  H   H2062     1.0  0.38509  0.77573  0.39531  1.0000
  H   H2063     1.0  0.38274  0.75652  0.37861  1.0000
  C   C1313     1.0  0.40711  0.67402  0.45896  1.0000
  C   C1314     1.0  0.41065  0.68835  0.44658  1.0000
  C   C1315     1.0  0.41655  0.70067  0.45051  1.0000
  H   H2064     1.0  0.47210  0.97942  0.25141  1.0000
  C   C1316     1.0  0.42825  0.55434  0.23720  1.0000
  H   H2065     1.0  0.44066  0.84182  0.46897  1.0000
  H   H2066     1.0  0.40862  0.69012  0.43404  1.0000
  H   H2067     1.0  0.41904  0.71184  0.44096  1.0000
  H   H2068     1.0  0.46093  0.54666  0.33303  1.0000
  H   H2069     1.0  0.10882  0.92334  0.47305  1.0000
  C   C1317     1.0  0.34518  0.63189  0.41622  1.0000
  C   C1318     1.0  0.35976  0.61949  0.41936  1.0000
  C   C1319     1.0  0.35927  0.60223  0.42334  1.0000
  C   C1320     1.0  0.34433  0.59722  0.42384  1.0000
  C   C1321     1.0  0.32989  0.60957  0.42020  1.0000
  C   C1322     1.0  0.33028  0.62686  0.41656  1.0000
  H   H2070     1.0  0.37136  0.62315  0.41896  1.0000
  H   H2071     1.0  0.37052  0.59271  0.42604  1.0000
  H   H2072     1.0  0.31825  0.60584  0.42066  1.0000
  H   H2073     1.0  0.31893  0.63638  0.41415  1.0000
  C   C1323     1.0  0.42031  0.63736  0.36186  1.0000
  C   C1324     1.0  0.43158  0.62927  0.34921  1.0000
  C   C1325     1.0  0.42511  0.62337  0.33859  1.0000
  C   C1326     1.0  0.40737  0.62609  0.34032  1.0000
  C   C1327     1.0  0.39620  0.63421  0.35292  1.0000
  C   C1328     1.0  0.40264  0.63938  0.36393  1.0000
  H   H2074     1.0  0.44528  0.62762  0.34758  1.0000
  H   H2075     1.0  0.43380  0.61710  0.32887  1.0000
  H   H2076     1.0  0.38248  0.63632  0.35432  1.0000
  H   H2077     1.0  0.39386  0.64506  0.37395  1.0000
  C   C1329     1.0  0.47029  0.58497  0.32787  1.0000
  H   H2078     1.0  0.46580  0.59879  0.34739  1.0000
  H   H2079     1.0  0.45699  0.58820  0.32702  1.0000
  H   H2080     1.0  0.36985  0.61070  0.45259  1.0000
  C   C1330     1.0  0.00432  0.93246  0.24779  1.0000
  C   C1331     1.0  0.28858  0.50986  0.42446  1.0000
  H   H2081     1.0  0.23553  0.94918  0.44703  1.0000
  C   C1332     1.0  0.30978  0.50174  0.36443  1.0000
  H   H2082     1.0  0.43059  0.52989  0.27285  1.0000
  H   H2083     1.0  0.26575  0.51422  0.41516  1.0000
  H   H2084     1.0  0.28456  0.52147  0.42909  1.0000
  C   C1333     1.0  0.03208  0.75678  0.42097  1.0000
  C   C1334     1.0  0.04068  0.76584  0.42649  1.0000
  C   C1335     1.0  0.20074  0.92154  0.39125  1.0000
  C   C1336     1.0  0.21859  0.91908  0.38523  1.0000
  C   C1337     1.0  0.22892  0.92276  0.39392  1.0000
  C   C1338     1.0  0.22143  0.92894  0.40870  1.0000
  C   C1339     1.0  0.20358  0.93134  0.41476  1.0000
  C   C1340     1.0  0.19327  0.92761  0.40611  1.0000
  H   H2085     1.0  0.22445  0.91439  0.37375  1.0000
  H   H2086     1.0  0.24265  0.92088  0.38915  1.0000
  H   H2087     1.0  0.19769  0.93606  0.42621  1.0000
  H   H2088     1.0  0.17956  0.92937  0.41096  1.0000
  H   H2089     1.0  0.04560  0.51130  0.31005  1.0000
  H   H2090     1.0  0.14595  0.98322  0.43188  1.0000
  H   H2091     1.0  0.41458  0.97686  0.30288  1.0000
  H   H2092     1.0  0.13457  0.96869  0.41670  1.0000
  H   H2093     1.0  0.44941  0.97049  0.28655  1.0000
  C   C1341     1.0  0.10379  0.92466  0.34450  1.0000
  C   C1342     1.0  0.09047  0.93527  0.35345  1.0000
  C   C1343     1.0  0.07393  0.93946  0.35016  1.0000
  C   C1344     1.0  0.07052  0.93299  0.33800  1.0000
  C   C1345     1.0  0.08383  0.92233  0.32904  1.0000
  C   C1346     1.0  0.10042  0.91824  0.33225  1.0000
  H   H2094     1.0  0.09290  0.94041  0.36280  1.0000
  H   H2095     1.0  0.06371  0.94774  0.35711  1.0000
  H   H2096     1.0  0.08137  0.91732  0.31961  1.0000
  H   H2097     1.0  0.11066  0.91006  0.32523  1.0000
  C   C1347     1.0  0.03923  0.73984  0.41978  1.0000
  C   C1348     1.0  0.05654  0.75800  0.43080  1.0000
  C   C1349     1.0  0.06345  0.74091  0.43009  1.0000
  C   C1350     1.0  0.05480  0.73182  0.42463  1.0000
  H   H2098     1.0  0.07569  0.73476  0.43345  1.0000
  H   H2099     1.0  0.06042  0.71876  0.42375  1.0000
  H   H2100     1.0  0.04872  0.85364  0.45786  1.0000
  C   C1351     1.0  0.09486  0.86104  0.41324  1.0000
  C   C1352     1.0  0.09018  0.86168  0.43041  1.0000
  C   C1353     1.0  0.09510  0.87371  0.43593  1.0000
  C   C1354     1.0  0.10419  0.88544  0.42423  1.0000
  C   C1355     1.0  0.10803  0.88520  0.40705  1.0000
  C   C1356     1.0  0.10387  0.87277  0.40165  1.0000
  H   H2101     1.0  0.08320  0.85266  0.43944  1.0000
  H   H2102     1.0  0.09191  0.87384  0.44922  1.0000
  H   H2103     1.0  0.11427  0.89456  0.39783  1.0000
  H   H2104     1.0  0.10759  0.87233  0.38840  1.0000
  C   C1357     1.0  0.02899  0.84537  0.37529  1.0000
  C   C1358     1.0  0.02678  0.86120  0.34678  1.0000
  C   C1359     1.0  0.04463  0.85702  0.34139  1.0000
  C   C1360     1.0  0.05464  0.84708  0.35296  1.0000
  C   C1361     1.0  0.04684  0.84159  0.36992  1.0000
  H   H2105     1.0  0.06846  0.84401  0.34887  1.0000
  H   H2106     1.0  0.05471  0.83443  0.37877  1.0000
  H   H2107     1.0  0.34287  0.58103  0.37811  1.0000
  H   H2108     1.0  0.49837  0.86014  0.39245  1.0000
  H   H2109     1.0  0.43350  0.56174  0.25753  1.0000
  C   C1362     1.0  0.05615  0.58752  0.24854  1.0000
  H   H2110     1.0  0.38929  0.58047  0.36824  1.0000
  H   H2111     1.0  0.08251  0.53613  0.37433  1.0000
  N   N127      1.0  0.40370  0.69813  0.33572  1.0000
  C   C1363     1.0  0.40258  0.68010  0.34165  1.0000
  C   C1364     1.0  0.39356  0.70639  0.32258  1.0000
  C   C1365     1.0  0.42184  0.69923  0.32859  1.0000
  C   C1366     1.0  0.39686  0.70675  0.35009  1.0000
  H   H2112     1.0  0.40994  0.67359  0.35170  1.0000
  H   H2113     1.0  0.40784  0.67304  0.33125  1.0000
  H   H2114     1.0  0.38907  0.67869  0.34704  1.0000
  H   H2115     1.0  0.39413  0.72002  0.31781  1.0000
  H   H2116     1.0  0.39833  0.70014  0.31157  1.0000
  H   H2117     1.0  0.37980  0.70577  0.32765  1.0000
  H   H2118     1.0  0.42979  0.69299  0.33825  1.0000
  H   H2119     1.0  0.42322  0.71265  0.32410  1.0000
  H   H2120     1.0  0.42744  0.69286  0.31770  1.0000
  H   H2121     1.0  0.39754  0.72038  0.34620  1.0000
  H   H2122     1.0  0.40413  0.70083  0.36032  1.0000
  H   H2123     1.0  0.38317  0.70625  0.35586  1.0000
  N   N128      1.0  0.40628  0.52265  0.28356  1.0000
  C   C1367     1.0  0.40641  0.51620  0.26882  1.0000
  C   C1368     1.0  0.35666  0.68516  0.48165  1.0000
  C   C1369     1.0  0.05321  0.60460  0.24909  1.0000
  H   H2124     1.0  0.46396  0.75294  0.40025  1.0000
  H   H2125     1.0  0.38460  0.51236  0.29911  1.0000
  N   N129      1.0  0.47941  0.63837  0.37721  1.0000
  C   C1370     1.0  0.48387  0.63849  0.39300  1.0000
  H   H2126     1.0  0.48996  0.64932  0.39128  1.0000
  H   H2127     1.0  0.06187  0.81884  0.48232  1.0000
  H   H2128     1.0  0.44845  0.76070  0.45084  1.0000
  C   C1371     1.0  0.33902  0.71341  0.48017  1.0000
  H   H2129     1.0  0.46741  0.62367  0.36845  1.0000
  C   C1372     1.0  0.13388  0.98218  0.41265  1.0000
  H   H2130     1.0  0.47669  0.51319  0.30773  1.0000
  H   H2131     1.0  0.47068  0.62753  0.28229  1.0000
  H   H2132     1.0  0.47985  0.49361  0.33504  1.0000
  H   H2133     1.0  0.48806  0.81711  0.43608  1.0000
  H   H2134     1.0  0.05582  0.58407  0.23719  1.0000
  H   H2135     1.0  0.38216  0.80550  0.46889  1.0000
  H   H2136     1.0  0.44802  0.90015  0.25939  1.0000
  H   H2137     1.0  0.21860  0.49404  0.43560  1.0000
  N   N130      1.0  0.35655  0.70343  0.47522  1.0000
  H   H2138     1.0  0.10289  0.58532  0.23706  1.0000
  H   H2139     1.0  0.45879  0.62541  0.39005  1.0000
  H   H2140     1.0  0.43189  0.50863  0.28522  1.0000
  H   H2141     1.0  0.32801  0.90997  0.44664  1.0000
  C   C1373     1.0  0.42804  0.56601  0.24646  1.0000
  H   H2142     1.0  0.48991  0.63065  0.29907  1.0000
  H   H2143     1.0  0.01550  0.65745  0.46677  1.0000
  N   N131      1.0  0.18105  0.97671  0.37683  1.0000
  H   H2144     1.0  0.28859  0.52514  0.38150  1.0000
  H   H2145     1.0  0.31619  0.51146  0.38971  1.0000
  H   H2146     1.0  0.34862  0.68090  0.47570  1.0000
  H   H2147     1.0  0.11909  0.90784  0.46023  1.0000
  C   C1374     1.0  0.19869  0.50586  0.41264  1.0000
  C   C1375     1.0  0.05118  0.93098  0.23859  1.0000
  C   C1376     1.0  0.05982  0.57482  0.26268  1.0000
  H   H2148     1.0  0.48850  0.91291  0.25578  1.0000
  H   H2149     1.0  0.04214  0.80133  0.39506  1.0000
  H   H2150     1.0  0.00219  0.59145  0.25151  1.0000
  C   C1377     1.0  0.36841  0.70818  0.48251  1.0000
  S   S569      1.0  0.42121  0.97989  0.26656  1.0000
  H   H2151     1.0  0.29743  0.54289  0.36829  1.0000
  H   H2152     1.0  0.35479  0.57988  0.39339  1.0000
  C   C1378     1.0  0.45825  0.73642  0.43285  1.0000
  H   H2153     1.0  0.01085  0.94331  0.24237  1.0000
  N   N132      1.0  0.20589  0.59269  0.48340  1.0000
  C   C1379     1.0  0.42409  0.52182  0.28431  1.0000
  C   C1380     1.0  0.38424  0.77245  0.47305  1.0000
  S   S570      1.0  0.11947  0.98137  0.38710  1.0000
  H   H2154     1.0  0.49353  0.64348  0.26820  1.0000
  H   H2155     1.0  0.40125  0.82652  0.47265  1.0000
  H   H2156     1.0  0.08306  0.50328  0.36538  1.0000
  H   H2157     1.0  0.15645  0.97019  0.38304  1.0000
  C   C1381     1.0  0.47067  0.50356  0.34143  1.0000
  H   H2158     1.0  0.33905  0.61220  0.37132  1.0000
  H   H2159     1.0  0.48669  0.87656  0.35936  1.0000
  H   H2160     1.0  0.38683  0.60299  0.36263  1.0000
  C   C1382     1.0  0.35240  0.61057  0.37272  1.0000
  H   H2161     1.0  0.20685  0.94402  0.44898  1.0000
  N   N133      1.0  0.32330  0.51630  0.47881  1.0000
  H   H2162     1.0  0.00514  0.85823  0.36772  1.0000
  N   N134      1.0  0.09259  0.50984  0.38349  1.0000
  H   H2163     1.0  0.09196  0.81719  0.48137  1.0000
  H   H2164     1.0  0.45759  0.50134  0.34326  1.0000
  N   N135      1.0  0.48690  0.85234  0.37673  1.0000
  H   H2165     1.0  0.45638  0.72939  0.42427  1.0000
  C   C1383     1.0  0.42109  0.58323  0.24114  1.0000
  H   H2166     1.0  0.47897  0.80221  0.41952  1.0000
  S   S571      1.0  0.02909  0.72956  0.41093  1.0000
  H   H2167     1.0  0.15011  0.52275  0.47837  1.0000
  H   H2168     1.0  0.20385  0.95686  0.37638  1.0000
  C   C1384     1.0  0.06846  0.50354  0.33002  1.0000
  H   H2169     1.0  0.49153  0.53558  0.32098  1.0000
  H   H2170     1.0  0.01895  0.67657  0.48288  1.0000
  S   S572      1.0  0.00575  0.50230  0.32149  1.0000
  H   H2171     1.0  0.12788  0.52434  0.46307  1.0000
  C   C1385     1.0  0.07903  0.52534  0.38468  1.0000
  H   H2172     1.0  0.46648  0.96088  0.29765  1.0000
  H   H2173     1.0  0.09890  0.51612  0.35630  1.0000
  C   C1386     1.0  0.04529  0.85435  0.47105  1.0000
  N   N136      1.0  0.21762  0.50063  0.40926  1.0000
  H   H2174     1.0  0.34353  0.84930  0.47751  1.0000
  H   H2175     1.0  0.42160  0.82956  0.45920  1.0000
  C   C1387     1.0  0.48013  0.61585  0.27948  1.0000
  C   C1388     1.0  0.28293  0.49068  0.41080  1.0000
  H   H2176     1.0  0.08860  0.89002  0.47024  1.0000
  H   H2177     1.0  0.19775  0.96639  0.39439  1.0000
  H   H2178     1.0  0.07997  0.49569  0.33488  1.0000
  C   C1389     1.0  0.46965  0.85133  0.37591  1.0000
  C   C1390     1.0  0.32286  0.51658  0.37663  1.0000
  H   H2179     1.0  0.07812  0.76879  0.37871  1.0000
  H   H2180     1.0  0.00231  0.92845  0.23706  1.0000
  H   H2181     1.0  0.06232  0.56162  0.26215  1.0000
  H   H2182     1.0  0.33844  0.72725  0.47536  1.0000
  H   H2183     1.0  0.38302  0.54155  0.28156  1.0000
  H   H2184     1.0  0.48855  0.91398  0.38479  1.0000
  C   C1391     1.0  0.04984  0.77880  0.36480  1.0000
  C   C1392     1.0  0.46050  0.92801  0.24210  1.0000
  C   C1393     1.0  0.41553  0.68424  0.47914  1.0000
  H   H2185     1.0  0.40447  0.84752  0.46281  1.0000
  C   C1394     1.0  0.33144  0.92040  0.44995  1.0000
  C   C1395     1.0  0.32601  0.49815  0.47875  1.0000
  N   N137      1.0  0.49775  0.61674  0.27920  1.0000
  C   C1396     1.0  0.05360  0.60889  0.26395  1.0000
  H   H2186     1.0  0.40509  0.49868  0.30098  1.0000
  C   C1397     1.0  0.27786  0.50567  0.41675  1.0000
  H   H2187     1.0  0.38367  0.93287  0.24179  1.0000
  C   C1398     1.0  0.35591  0.58014  0.37985  1.0000
  H   H2188     1.0  0.06852  0.77991  0.39563  1.0000
  H   H2189     1.0  0.34049  0.89021  0.46989  1.0000
  H   H2190     1.0  0.45582  0.65672  0.38174  1.0000
  C   C1399     1.0  0.46361  0.96670  0.28488  1.0000
  H   H2191     1.0  0.49468  0.60803  0.30613  1.0000
  C   C1400     1.0  0.23561  0.94047  0.45967  1.0000
  N   N138      1.0  0.36838  0.78545  0.47652  1.0000
  C   C1401     1.0  0.30460  0.49931  0.42584  1.0000
  H   H2192     1.0  0.49543  0.85851  0.34964  1.0000
  C   C1402     1.0  0.46555  0.75932  0.40952  1.0000
  C   C1403     1.0  0.38074  0.59256  0.37111  1.0000
  C   C1404     1.0  0.08602  0.51675  0.30453  1.0000
  H   H2193     1.0  0.49226  0.63591  0.35183  1.0000
  C   C1405     1.0  0.41081  0.83467  0.46895  1.0000
  C   C1406     1.0  0.01896  0.85515  0.36365  1.0000
  H   H2194     1.0  0.47183  0.73190  0.43423  1.0000
  C   C1407     1.0  0.46805  0.52290  0.31472  1.0000
  C   C1408     1.0  0.20993  0.95837  0.47241  1.0000
  H   H2195     1.0  0.30229  0.53798  0.48013  1.0000
  C   C1409     1.0  0.16947  0.96495  0.38578  1.0000
  H   H2196     1.0  0.34749  0.51928  0.46188  1.0000
  N   N139      1.0  0.17126  0.88672  0.34497  1.0000
  C   C1410     1.0  0.16570  0.89068  0.32882  1.0000
  C   C1411     1.0  0.15856  0.87883  0.35879  1.0000
  C   C1412     1.0  0.17265  0.90253  0.34855  1.0000
  C   C1413     1.0  0.18816  0.87485  0.34374  1.0000
  H   H2197     1.0  0.17490  0.89675  0.31811  1.0000
  H   H2198     1.0  0.15297  0.89963  0.32938  1.0000
  H   H2199     1.0  0.16443  0.87907  0.32572  1.0000
  H   H2200     1.0  0.16228  0.87575  0.37121  1.0000
  H   H2201     1.0  0.14564  0.88744  0.36011  1.0000
  H   H2202     1.0  0.15713  0.86690  0.35649  1.0000
  H   H2203     1.0  0.17669  0.90006  0.36073  1.0000
  H   H2204     1.0  0.16018  0.91187  0.34947  1.0000
  H   H2205     1.0  0.18219  0.90879  0.33848  1.0000
  H   H2206     1.0  0.18760  0.86273  0.34113  1.0000
  H   H2207     1.0  0.19272  0.87175  0.35573  1.0000
  H   H2208     1.0  0.19805  0.88039  0.33342  1.0000
  C   C1414     1.0  0.46773  0.65458  0.37179  1.0000
  H   H2209     1.0  0.18552  0.60462  0.47003  1.0000
  H   H2210     1.0  0.35140  0.59509  0.34869  1.0000
  H   H2211     1.0  0.38121  0.62989  0.46219  1.0000
  S   S573      1.0  0.02266  0.68806  0.40504  1.0000
  H   H2212     1.0  0.44991  0.73268  0.44550  1.0000
  S   S574      1.0  0.01901  0.83778  0.39634  1.0000
  C   C1415     1.0  0.49446  0.86334  0.36101  1.0000
  H   H2213     1.0  0.01992  0.76295  0.41745  1.0000
  Fe  Fe288     1.0  0.01618  0.67239  0.43118  1.0000
  H   H2214     1.0  0.06423  0.51528  0.33513  1.0000
  N   N140      1.0  0.07195  0.50747  0.31134  1.0000
  H   H2215     1.0  0.22061  0.51086  0.38247  1.0000
  H   H2216     1.0  0.41229  0.52397  0.25670  1.0000
  H   H2217     1.0  0.08885  0.66105  0.47711  1.0000
  Fe  Fe289     1.0  0.00898  0.91791  0.31330  1.0000
  H   H2218     1.0  0.40232  0.54874  0.27013  1.0000
  N   N141      1.0  0.09681  0.60705  0.40407  1.0000
  C   C1416     1.0  0.08428  0.61946  0.39485  1.0000
  C   C1417     1.0  0.10436  0.61596  0.41212  1.0000
  C   C1418     1.0  0.11054  0.59817  0.39210  1.0000
  C   C1419     1.0  0.08805  0.59463  0.41724  1.0000
  H   H2219     1.0  0.07826  0.61319  0.38863  1.0000
  H   H2220     1.0  0.09040  0.62909  0.38481  1.0000
  H   H2221     1.0  0.07376  0.62650  0.40346  1.0000
  H   H2222     1.0  0.11121  0.62540  0.40260  1.0000
  H   H2223     1.0  0.09436  0.62293  0.42115  1.0000
  H   H2224     1.0  0.11383  0.60694  0.41927  1.0000
  H   H2225     1.0  0.12023  0.58872  0.39867  1.0000
  H   H2226     1.0  0.11742  0.60721  0.38202  1.0000
  H   H2227     1.0  0.10529  0.59130  0.38576  1.0000
  H   H2228     1.0  0.09720  0.58496  0.42435  1.0000
  H   H2229     1.0  0.08203  0.58781  0.41161  1.0000
  H   H2230     1.0  0.07775  0.60095  0.42657  1.0000
  H   H2231     1.0  0.36903  0.72177  0.47760  1.0000
  H   H2232     1.0  0.46087  0.86406  0.37455  1.0000
  H   H2233     1.0  0.10109  0.67667  0.47412  1.0000
  H   H2234     1.0  0.10836  0.51762  0.47454  1.0000
  H   H2235     1.0  0.30040  0.52327  0.46900  1.0000
  H   H2236     1.0  0.38154  0.76115  0.47061  1.0000
  C   C1420     1.0  0.48982  0.52289  0.32885  1.0000
  H   H2237     1.0  0.49320  0.52161  0.34112  1.0000
  C   C1421     1.0  0.05634  0.51810  0.30560  1.0000
  C   C1422     1.0  0.39659  0.54044  0.28193  1.0000
  C   C1423     1.0  0.49261  0.58751  0.34001  1.0000
  H   H2238     1.0  0.45468  0.52161  0.31618  1.0000
  H   H2239     1.0  0.38046  0.59275  0.38437  1.0000
  H   H2240     1.0  0.11049  0.65829  0.46502  1.0000
  H   H2241     1.0  0.10725  0.51653  0.39723  1.0000
  C   C1424     1.0  0.35907  0.61098  0.46390  1.0000
  N   N142      1.0  0.45415  0.75496  0.42626  1.0000
  N   N143      1.0  0.36799  0.92881  0.35811  1.0000
  C   C1425     1.0  0.36936  0.92637  0.34106  1.0000
  C   C1426     1.0  0.37743  0.91330  0.36779  1.0000
  C   C1427     1.0  0.34972  0.93221  0.36682  1.0000
  C   C1428     1.0  0.37552  0.94337  0.35656  1.0000
  H   H2242     1.0  0.36271  0.93792  0.33323  1.0000
  H   H2243     1.0  0.36373  0.91558  0.34165  1.0000
  H   H2244     1.0  0.38293  0.92357  0.33419  1.0000
  H   H2245     1.0  0.37640  0.91447  0.38089  1.0000
  H   H2246     1.0  0.37246  0.90197  0.36859  1.0000
  H   H2247     1.0  0.39132  0.91062  0.36160  1.0000
  H   H2248     1.0  0.34807  0.93434  0.37971  1.0000
  H   H2249     1.0  0.34367  0.92146  0.36814  1.0000
  H   H2250     1.0  0.34224  0.94370  0.35963  1.0000
  H   H2251     1.0  0.37478  0.94565  0.36918  1.0000
  H   H2252     1.0  0.36872  0.95523  0.34918  1.0000
  H   H2253     1.0  0.38927  0.94121  0.34983  1.0000
  H   H2254     1.0  0.22494  0.59362  0.46000  1.0000
  N   N144      1.0  0.36333  0.59445  0.36861  1.0000
  H   H2255     1.0  0.03083  0.80562  0.37859  1.0000
  C   C1429     1.0  0.30490  0.52428  0.47992  1.0000
  H   H2256     1.0  0.18733  0.96779  0.35378  1.0000
  H   H2257     1.0  0.33000  0.52362  0.45169  1.0000
  H   H2258     1.0  0.33554  0.50785  0.37385  1.0000
  H   H2259     1.0  0.32387  0.53838  0.34640  1.0000
  C   C1430     1.0  0.10879  0.51277  0.38510  1.0000
  H   H2260     1.0  0.46817  0.95669  0.27734  1.0000
  H   H2261     1.0  0.05141  0.62209  0.26442  1.0000
  H   H2262     1.0  0.35327  0.70387  0.45059  1.0000
  H   H2263     1.0  0.49563  0.89592  0.24466  1.0000
  H   H2264     1.0  0.48824  0.67320  0.48494  1.0000
  C   C1431     1.0  0.33353  0.52484  0.46306  1.0000
  H   H2265     1.0  0.32666  0.94339  0.46850  1.0000
  H   H2266     1.0  0.43259  0.77436  0.41962  1.0000
  N   N145      1.0  0.05960  0.88825  0.37253  1.0000
  C   C1432     1.0  0.07627  0.89100  0.37300  1.0000
  C   C1433     1.0  0.05620  0.87263  0.38497  1.0000
  C   C1434     1.0  0.06008  0.88647  0.35541  1.0000
  C   C1435     1.0  0.04586  0.90287  0.37678  1.0000
  H   H2267     1.0  0.08689  0.88009  0.37008  1.0000
  H   H2268     1.0  0.07626  0.89265  0.38569  1.0000
  H   H2269     1.0  0.07938  0.90255  0.36367  1.0000
  H   H2270     1.0  0.04346  0.87036  0.38541  1.0000
  H   H2271     1.0  0.06608  0.86128  0.38184  1.0000
  H   H2272     1.0  0.05645  0.87329  0.39792  1.0000
  H   H2273     1.0  0.06189  0.89831  0.34578  1.0000
  H   H2274     1.0  0.04792  0.88369  0.35486  1.0000
  H   H2275     1.0  0.07069  0.87598  0.35144  1.0000
  H   H2276     1.0  0.03315  0.90140  0.37611  1.0000
  H   H2277     1.0  0.04825  0.91491  0.36782  1.0000
  H   H2278     1.0  0.04493  0.90443  0.38973  1.0000
  N   N146      1.0  0.32901  0.85589  0.38342  1.0000
  C   C1436     1.0  0.33539  0.83753  0.38943  1.0000
  C   C1437     1.0  0.33644  0.86556  0.39080  1.0000
  C   C1438     1.0  0.31009  0.86012  0.38874  1.0000
  C   C1439     1.0  0.33411  0.86032  0.36475  1.0000
  H   H2279     1.0  0.33001  0.82982  0.38416  1.0000
  H   H2280     1.0  0.33196  0.83374  0.40348  1.0000
  H   H2281     1.0  0.34962  0.83394  0.38548  1.0000
  H   H2282     1.0  0.35067  0.86288  0.38690  1.0000
  H   H2283     1.0  0.33179  0.87946  0.38666  1.0000
  H   H2284     1.0  0.33299  0.86234  0.40486  1.0000
  H   H2285     1.0  0.30578  0.85713  0.40276  1.0000
  H   H2286     1.0  0.30401  0.85305  0.38345  1.0000
  H   H2287     1.0  0.30488  0.87388  0.38430  1.0000
  H   H2288     1.0  0.32955  0.87407  0.35975  1.0000
  H   H2289     1.0  0.32875  0.85326  0.35876  1.0000
  H   H2290     1.0  0.34830  0.85740  0.36029  1.0000
  H   H2291     1.0  0.49307  0.62663  0.39721  1.0000
  C   C1440     1.0  0.39803  0.51214  0.29925  1.0000
  H   H2292     1.0  0.22131  0.52522  0.39451  1.0000
  H   H2293     1.0  0.20081  0.61734  0.46710  1.0000
  H   H2294     1.0  0.32204  0.49647  0.46780  1.0000
  H   H2295     1.0  0.00977  0.53464  0.32234  1.0000
  C   C1441     1.0  0.45681  0.76370  0.43807  1.0000
  C   C1442     1.0  0.34327  0.90105  0.47307  1.0000
  C   C1443     1.0  0.47087  0.62417  0.38017  1.0000
  H   H2296     1.0  0.14703  0.61365  0.48135  1.0000
  H   H2297     1.0  0.33153  0.53864  0.46256  1.0000
  H   H2298     1.0  0.39318  0.51641  0.26802  1.0000
  C   C1444     1.0  0.36425  0.59445  0.35082  1.0000
  C   C1445     1.0  0.49052  0.97572  0.27433  1.0000
  H   H2299     1.0  0.05864  0.52186  0.29156  1.0000
  H   H2300     1.0  0.19265  0.49789  0.42449  1.0000
  H   H2301     1.0  0.43390  0.54108  0.24117  1.0000
  H   H2302     1.0  0.42708  0.75728  0.43696  1.0000
  H   H2303     1.0  0.32214  0.49268  0.36120  1.0000
  H   H2304     1.0  0.47930  0.75543  0.41036  1.0000
  H   H2305     1.0  0.11726  0.63016  0.48330  1.0000
  H   H2306     1.0  0.05190  0.53004  0.31044  1.0000
  H   H2307     1.0  0.36287  0.60001  0.47407  1.0000
  H   H2308     1.0  0.03114  0.78610  0.39418  1.0000
  H   H2309     1.0  0.00662  0.64414  0.42211  1.0000
  N   N147      1.0  0.31254  0.51850  0.36417  1.0000
  H   H2310     1.0  0.48068  0.88126  0.46235  1.0000
  H   H2311     1.0  0.22653  0.57323  0.47413  1.0000
  H   H2312     1.0  0.47018  0.84597  0.36501  1.0000
  H   H2313     1.0  0.12822  0.50226  0.47198  1.0000
  N   N148      1.0  0.05473  0.78718  0.37556  1.0000
  H   H2314     1.0  0.47604  0.60495  0.28933  1.0000
  H   H2315     1.0  0.40719  0.66075  0.48474  1.0000
  C   C1446     1.0  0.03904  0.79539  0.38629  1.0000
  C   C1447     1.0  0.06434  0.80016  0.36475  1.0000
  H   H2316     1.0  0.09699  0.91780  0.46109  1.0000
  H   H2317     1.0  0.05809  0.49634  0.33546  1.0000
  H   H2318     1.0  0.24196  0.92753  0.45732  1.0000
  H   H2319     1.0  0.44686  0.92921  0.24199  1.0000
  H   H2320     1.0  0.45397  0.77772  0.43341  1.0000
  H   H2321     1.0  0.10523  0.49398  0.36556  1.0000
  H   H2322     1.0  0.32908  0.62496  0.48220  1.0000
  H   H2323     1.0  0.47915  0.61417  0.26713  1.0000
  H   H2324     1.0  0.34823  0.80082  0.46393  1.0000
  H   H2325     1.0  0.07604  0.79453  0.35616  1.0000
  H   H2326     1.0  0.30196  0.50271  0.35524  1.0000
  H   H2327     1.0  0.05636  0.81027  0.35672  1.0000
  H   H2328     1.0  0.46258  0.69584  0.48193  1.0000
  H   H2329     1.0  0.47231  0.63969  0.40348  1.0000
  C   C1448     1.0  0.49518  0.63625  0.36385  1.0000
  N   N149      1.0  0.47172  0.98138  0.27647  1.0000
  C   C1449     1.0  0.10189  0.66281  0.47638  1.0000
  H   H2330     1.0  0.34442  0.92174  0.44223  1.0000
  H   H2331     1.0  0.33451  0.51736  0.34342  1.0000
  C   C1450     1.0  0.37027  0.62963  0.47337  1.0000
  H   H2332     1.0  0.05795  0.97970  0.24376  1.0000
  H   H2333     1.0  0.42323  0.85964  0.47232  1.0000
  N   N150      1.0  0.41684  0.83524  0.48373  1.0000
  C   C1451     1.0  0.05257  0.86455  0.47657  1.0000
  C   C1452     1.0  0.43607  0.76042  0.42458  1.0000
  S   S575      1.0  0.42470  0.71483  0.47214  1.0000
  H   H2334     1.0  0.20899  0.96739  0.46008  1.0000
  H   H2335     1.0  0.30961  0.90470  0.47550  1.0000
  H   H2336     1.0  0.31434  0.52720  0.33734  1.0000
  H   H2337     1.0  0.44641  0.53252  0.34212  1.0000
  H   H2338     1.0  0.29865  0.96189  0.46419  1.0000
  H   H2339     1.0  0.39351  0.77740  0.46167  1.0000
  H   H2340     1.0  0.30376  0.92710  0.47460  1.0000
  C   C1453     1.0  0.22502  0.51168  0.39350  1.0000
  H   H2341     1.0  0.35749  0.62166  0.36427  1.0000
  N   N151      1.0  0.35493  0.62719  0.46940  1.0000
  H   H2342     1.0  0.33970  0.49162  0.47800  1.0000
  C   C1454     1.0  0.46149  0.89978  0.25957  1.0000
  H   H2343     1.0  0.35986  0.64196  0.44400  1.0000
  H   H2344     1.0  0.09804  0.50912  0.30854  1.0000
  N   N152      1.0  0.21804  0.94090  0.47011  1.0000
  H   H2345     1.0  0.46285  0.77324  0.40422  1.0000
  H   H2346     1.0  0.47036  0.75985  0.43956  1.0000
  H   H2347     1.0  0.21995  0.51552  0.42532  1.0000
  C   C1455     1.0  0.34953  0.64131  0.45568  1.0000
  H   H2348     1.0  0.41382  0.50286  0.26952  1.0000
  S   S576      1.0  0.03057  0.80992  0.43940  1.0000
  H   H2349     1.0  0.36914  0.60547  0.34197  1.0000
  H   H2350     1.0  0.39645  0.54573  0.29276  1.0000
  H   H2351     1.0  0.34788  0.60891  0.46043  1.0000
  H   H2352     1.0  0.28754  0.53168  0.35957  1.0000
  H   H2353     1.0  0.46936  0.53558  0.30657  1.0000
  H   H2354     1.0  0.37513  0.69927  0.45246  1.0000
  H   H2355     1.0  0.47750  0.87263  0.39020  1.0000
  H   H2356     1.0  0.08880  0.52021  0.29046  1.0000
  N   N153      1.0  0.10196  0.89902  0.48338  1.0000
  H   H2357     1.0  0.31544  0.86907  0.47684  1.0000
  S   S577      1.0  0.02492  0.83184  0.47604  1.0000
  H   H2358     1.0  0.05937  0.76368  0.39368  1.0000
  C   C1456     1.0  0.46743  0.98879  0.25969  1.0000
  H   H2359     1.0  0.21385  0.92246  0.45910  1.0000
  H   H2360     1.0  0.46367  0.84302  0.38757  1.0000
  H   H2361     1.0  0.16804  0.96238  0.39973  1.0000
  H   H2362     1.0  0.36261  0.72054  0.45124  1.0000
  H   H2363     1.0  0.49607  0.77550  0.43243  1.0000
  C   C1457     1.0  0.48775  0.90902  0.24442  1.0000
  H   H2364     1.0  0.12790  0.88640  0.48515  1.0000
  H   H2365     1.0  0.37458  0.61933  0.48385  1.0000
  N   N154      1.0  0.47213  0.52073  0.33131  1.0000
  H   H2366     1.0  0.19458  0.93527  0.46918  1.0000
  H   H2367     1.0  0.34626  0.65375  0.45936  1.0000
  C   C1458     1.0  0.36212  0.70695  0.45657  1.0000
  H   H2368     1.0  0.35165  0.61111  0.38598  1.0000
  S   S578      1.0  0.49333  0.93801  0.35317  1.0000
  H   H2369     1.0  0.47938  0.61171  0.38419  1.0000
  C   C1459     1.0  0.32172  0.52565  0.34707  1.0000
  H   H2370     1.0  0.06671  0.95948  0.23801  1.0000
  H   H2371     1.0  0.34876  0.93258  0.46518  1.0000
  H   H2372     1.0  0.16940  0.98548  0.35526  1.0000
  C   C1460     1.0  0.19826  0.96910  0.38057  1.0000
  N   N155      1.0  0.33093  0.91698  0.46825  1.0000
  H   H2373     1.0  0.11092  0.88024  0.46809  1.0000
  C   C1461     1.0  0.48552  0.85952  0.39135  1.0000
  C   C1462     1.0  0.49277  0.87609  0.46705  1.0000
  C   C1463     1.0  0.41872  0.69875  0.46689  1.0000
  H   H2374     1.0  0.21738  0.96296  0.47876  1.0000
  C   C1464     1.0  0.10693  0.91263  0.46885  1.0000
  C   C1465     1.0  0.37261  0.80013  0.47972  1.0000
  H   H2375     1.0  0.49577  0.96603  0.26640  1.0000
  H   H2376     1.0  0.43357  0.75410  0.41574  1.0000
  C   C1466     1.0  0.03357  0.84522  0.48257  1.0000
  C   C1467     1.0  0.36031  0.79109  0.46174  1.0000
  C   C1468     1.0  0.45992  0.53358  0.34028  1.0000
  C   C1469     1.0  0.34087  0.62684  0.48466  1.0000
  H   H2377     1.0  0.29242  0.95515  0.43970  1.0000
  C   C1470     1.0  0.33556  0.93111  0.47207  1.0000
  H   H2378     1.0  0.17430  0.95259  0.38183  1.0000
  C   C1471     1.0  0.40975  0.67190  0.47518  1.0000
  H   H2379     1.0  0.08528  0.49849  0.40990  1.0000
  H   H2380     1.0  0.06857  0.80639  0.37253  1.0000
  H   H2381     1.0  0.03339  0.49277  0.36904  1.0000
  H   H2382     1.0  0.04253  0.76893  0.37264  1.0000
  C   C1472     1.0  0.09928  0.88534  0.47710  1.0000
  H   H2383     1.0  0.35731  0.78029  0.45864  1.0000
  H   H2384     1.0  0.36900  0.79684  0.45028  1.0000
  H   H2385     1.0  0.32219  0.93227  0.44593  1.0000
  C   C1473     1.0  0.20783  0.93541  0.46152  1.0000
  C   C1474     1.0  0.12228  0.51527  0.47425  1.0000
  H   H2386     1.0  0.01345  0.92184  0.25409  1.0000
  H   H2387     1.0  0.19357  0.50486  0.40212  1.0000
  H   H2388     1.0  0.48910  0.84395  0.47860  1.0000
  H   H2389     1.0  0.33808  0.63983  0.45219  1.0000
  H   H2390     1.0  0.32967  0.70998  0.47509  1.0000
  H   H2391     1.0  0.19676  0.95908  0.48053  1.0000
  C   C1475     1.0  0.19386  0.60791  0.47647  1.0000
  H   H2392     1.0  0.32529  0.52899  0.37661  1.0000
  C   C1476     1.0  0.21727  0.58478  0.46941  1.0000
  S   S579      1.0  0.31784  0.98614  0.46524  1.0000
  C   C1477     1.0  0.42914  0.84653  0.47827  1.0000
  H   H2393     1.0  0.08737  0.60496  0.23610  1.0000
  H   H2394     1.0  0.49714  0.98645  0.26809  1.0000
  H   H2395     1.0  0.24379  0.94427  0.46585  1.0000
  H   H2396     1.0  0.12247  0.54419  0.48154  1.0000
  N   N156      1.0  0.48960  0.86695  0.48490  1.0000
  H   H2397     1.0  0.13482  0.65112  0.47965  1.0000
  H   H2398     1.0  0.99967  0.64486  0.47554  1.0000
  H   H2399     1.0  0.36766  0.64178  0.47751  1.0000
  H   H2400     1.0  0.46857  0.85789  0.48279  1.0000
  H   H2401     1.0  0.46067  0.93336  0.25274  1.0000
  H   H2402     1.0  0.39080  0.76806  0.48385  1.0000
  N   N157      1.0  0.46985  0.91013  0.24382  1.0000
  H   H2403     1.0  0.09590  0.79458  0.48404  1.0000
  H   H2404     1.0  0.38166  0.70062  0.47936  1.0000
  H   H2405     1.0  0.07955  0.49388  0.29125  1.0000
  H   H2406     1.0  0.36107  0.81051  0.48168  1.0000
  H   H2407     1.0  0.36988  0.67723  0.47908  1.0000
  H   H2408     1.0  0.23807  0.49864  0.42126  1.0000
  H   H2409     1.0  0.43693  0.81286  0.48218  1.0000
  H   H2410     1.0  0.99947  0.93056  0.28138  1.0000
  H   H2411     1.0  0.22394  0.60681  0.48354  1.0000
  C   C1478     1.0  0.14752  0.58719  0.48483  1.0000
  C   C1479     1.0  0.49805  0.83516  0.37869  1.0000
  C   C1480     1.0  0.49852  0.61872  0.29589  1.0000
  S   S580      1.0  0.49898  0.59660  0.35306  1.0000
  H   H2412     1.0  0.46833  0.98908  0.29977  1.0000
  C   C1481     1.0  0.31831  0.98960  0.43216  1.0000
  S   S581      1.0  0.42315  0.92572  0.71947  1.0000
  S   S582      1.0  0.03609  0.94567  0.67568  1.0000
  Fe  Fe290     1.0  0.05224  0.86604  0.56432  1.0000
  S   S583      1.0  0.07713  0.84885  0.56924  1.0000
  S   S584      1.0  0.03193  0.87821  0.58412  1.0000
  Fe  Fe291     1.0  0.06281  0.86701  0.52676  1.0000
  S   S585      1.0  0.08857  0.85023  0.52862  1.0000
  S   S586      1.0  0.05832  0.87754  0.50043  1.0000
  Fe  Fe292     1.0  0.07413  0.83474  0.55143  1.0000
  S   S587      1.0  0.08326  0.80627  0.55480  1.0000
  Fe  Fe293     1.0  0.08918  0.86584  0.54608  1.0000
  S   S588      1.0  0.11335  0.87328  0.54586  1.0000
  S   S589      1.0  0.04806  0.85051  0.54834  1.0000
  S   S590      1.0  0.06458  0.88403  0.54233  1.0000
  Fe  Fe294     1.0  0.04900  0.91918  0.68627  1.0000
  S   S591      1.0  0.05625  0.91088  0.71173  1.0000
  Fe  Fe295     1.0  0.05283  0.90744  0.65376  1.0000
  S   S592      1.0  0.04005  0.93291  0.64084  1.0000
  S   S593      1.0  0.06438  0.88545  0.64087  1.0000
  Fe  Fe296     1.0  0.05607  0.94288  0.65180  1.0000
  S   S594      1.0  0.07012  0.91731  0.66316  1.0000
  H   H2413     1.0  0.12356  0.92259  0.62159  1.0000
  S   S595      1.0  0.16044  0.93959  0.54320  1.0000
  S   S596      1.0  0.12248  0.94918  0.51875  1.0000
  Fe  Fe297     1.0  0.17501  0.96046  0.53141  1.0000
  S   S597      1.0  0.20209  0.95665  0.51549  1.0000
  Fe  Fe298     1.0  0.14837  0.95379  0.56415  1.0000
  S   S598      1.0  0.14299  0.93925  0.59111  1.0000
  Fe  Fe299     1.0  0.41442  0.60225  0.66564  1.0000
  S   S599      1.0  0.43413  0.58390  0.65134  1.0000
  S   S600      1.0  0.40218  0.59592  0.69356  1.0000
  Fe  Fe300     1.0  0.41018  0.62909  0.63358  1.0000
  S   S601      1.0  0.42950  0.61324  0.61667  1.0000
  S   S602      1.0  0.39478  0.65445  0.62341  1.0000
  Fe  Fe301     1.0  0.41712  0.59191  0.63263  1.0000
  S   S603      1.0  0.41338  0.57461  0.61821  1.0000
  Fe  Fe302     1.0  0.44479  0.60677  0.63651  1.0000
  S   S604      1.0  0.47294  0.60627  0.62780  1.0000
  S   S605      1.0  0.39640  0.60833  0.64810  1.0000
  S   S606      1.0  0.42648  0.62465  0.65227  1.0000
  Fe  Fe303     1.0  0.41560  0.70806  0.53598  1.0000
  S   S607      1.0  0.38930  0.72365  0.54421  1.0000
  S   S608      1.0  0.43342  0.69110  0.55260  1.0000
  S   S609      1.0  0.38642  0.73238  0.50453  1.0000
  Fe  Fe304     1.0  0.39680  0.74282  0.52059  1.0000
  S   S610      1.0  0.39021  0.77130  0.51732  1.0000
  Fe  Fe305     1.0  0.38163  0.71165  0.52736  1.0000
  S   S611      1.0  0.35720  0.70204  0.53477  1.0000
  S   S612      1.0  0.42380  0.72827  0.51359  1.0000
  S   S613      1.0  0.40734  0.69480  0.52086  1.0000
  Fe  Fe306     1.0  0.33548  0.60113  0.57425  1.0000
  S   S614      1.0  0.35553  0.59407  0.55199  1.0000
  S   S615      1.0  0.34046  0.60090  0.59931  1.0000
  Fe  Fe307     1.0  0.30637  0.60980  0.55553  1.0000
  S   S616      1.0  0.32417  0.60354  0.53151  1.0000
  S   S617      1.0  0.27785  0.62058  0.55961  1.0000
  Fe  Fe308     1.0  0.33661  0.58102  0.54900  1.0000
  S   S618      1.0  0.34557  0.55407  0.54580  1.0000
  Fe  Fe309     1.0  0.34135  0.61718  0.53672  1.0000
  S   S619      1.0  0.35743  0.63371  0.51648  1.0000
  S   S620      1.0  0.31756  0.58620  0.57265  1.0000
  S   S621      1.0  0.32264  0.62539  0.55931  1.0000
  C   C1482     1.0  0.00302  0.58709  0.72084  1.0000
  C   C1483     1.0  0.21878  0.92937  0.48681  1.0000
  C   C1484     1.0  0.15209  0.56953  0.51192  1.0000
  S   S622      1.0  0.29133  0.52923  0.52393  1.0000
  C   C1485     1.0  0.07532  0.78875  0.51494  1.0000
  Fe  Fe310     1.0  0.42600  0.82925  0.54914  1.0000
  S   S623      1.0  0.44179  0.83928  0.52404  1.0000
  S   S624      1.0  0.42687  0.80123  0.55577  1.0000
  Fe  Fe311     1.0  0.41896  0.86256  0.56057  1.0000
  S   S625      1.0  0.43490  0.87481  0.53656  1.0000
  S   S626      1.0  0.40314  0.87772  0.57996  1.0000
  Fe  Fe312     1.0  0.42158  0.86323  0.52419  1.0000
  Fe  Fe313     1.0  0.45335  0.84959  0.53910  1.0000
  S   S627      1.0  0.48201  0.84207  0.53449  1.0000
  S   S628      1.0  0.40449  0.85231  0.54802  1.0000
  S   S629      1.0  0.43867  0.83833  0.56432  1.0000
  Fe  Fe314     1.0  0.39956  0.97050  0.63364  1.0000
  S   S630      1.0  0.42531  0.96853  0.61577  1.0000
  S   S631      1.0  0.39539  0.97897  0.65815  1.0000
  Fe  Fe315     1.0  0.38194  0.96788  0.60697  1.0000
  S   S632      1.0  0.40618  0.96640  0.58702  1.0000
  S   S633      1.0  0.35632  0.96773  0.60252  1.0000
  Fe  Fe316     1.0  0.41808  0.94837  0.60788  1.0000
  S   S634      1.0  0.43750  0.92513  0.60128  1.0000
  H   H2414     1.0  0.46021  0.49575  0.69575  1.0000
  H   H2415     1.0  0.42882  0.76726  0.55380  1.0000
  S   S635      1.0  0.39341  0.94854  0.62761  1.0000
  H   H2416     1.0  0.08592  0.49086  0.68950  1.0000
  H   H2417     1.0  0.12545  0.66981  0.48834  1.0000
  S   S636      1.0  0.29870  0.95011  0.50447  1.0000
  Fe  Fe317     1.0  0.32497  0.96982  0.52336  1.0000
  S   S637      1.0  0.31129  0.94919  0.53912  1.0000
  C   C1486     1.0  0.46745  0.65639  0.60738  1.0000
  Fe  Fe318     1.0  0.32142  0.93739  0.51642  1.0000
  S   S638      1.0  0.33193  0.90925  0.51990  1.0000
  Fe  Fe319     1.0  0.28951  0.96352  0.52611  1.0000
  S   S639      1.0  0.26220  0.96821  0.54131  1.0000
  S   S640      1.0  0.33678  0.95678  0.50170  1.0000
  S   S641      1.0  0.30234  0.98534  0.51247  1.0000
  Fe  Fe320     1.0  0.19796  0.60235  0.54626  1.0000
  S   S642      1.0  0.18050  0.58650  0.54529  1.0000
  S   S643      1.0  0.22623  0.59264  0.53620  1.0000
  Fe  Fe321     1.0  0.16803  0.62917  0.55926  1.0000
  S   S644      1.0  0.14838  0.61545  0.55942  1.0000
  S   S645      1.0  0.15665  0.65409  0.56710  1.0000
  Fe  Fe322     1.0  0.16590  0.59225  0.57060  1.0000
  S   S646      1.0  0.15353  0.57322  0.59174  1.0000
  Fe  Fe323     1.0  0.16459  0.61123  0.53435  1.0000
  C   C1487     1.0  0.12586  0.54224  0.59522  1.0000
  S   S647      1.0  0.18461  0.60621  0.57255  1.0000
  S   S648      1.0  0.18312  0.62668  0.53321  1.0000
  Fe  Fe324     1.0  0.05749  0.69904  0.59450  1.0000
  S   S649      1.0  0.05664  0.68000  0.58089  1.0000
  S   S650      1.0  0.06675  0.68985  0.61873  1.0000
  Fe  Fe325     1.0  0.04380  0.72919  0.56853  1.0000
  S   S651      1.0  0.04170  0.71258  0.55257  1.0000
  S   S652      1.0  0.03370  0.75759  0.56328  1.0000
  Fe  Fe326     1.0  0.03113  0.69641  0.57730  1.0000
  H   H2418     1.0  0.48791  0.65135  0.63890  1.0000
  Fe  Fe327     1.0  0.06749  0.69762  0.55762  1.0000
  S   S653      1.0  0.08905  0.68570  0.53867  1.0000
  S   S654      1.0  0.03108  0.71416  0.59290  1.0000
  S   S655      1.0  0.07044  0.71562  0.57155  1.0000
  Fe  Fe328     1.0  0.06938  0.58079  0.70136  1.0000
  S   S656      1.0  0.05247  0.57905  0.68534  1.0000
  C   C1488     1.0  0.07005  0.81914  0.51126  1.0000
  Fe  Fe329     1.0  0.09520  0.59405  0.67053  1.0000
  S   S657      1.0  0.08017  0.59397  0.65225  1.0000
  S   S658      1.0  0.12039  0.60170  0.65854  1.0000
  Fe  Fe330     1.0  0.05734  0.60461  0.67060  1.0000
  S   S659      1.0  0.03663  0.62528  0.66038  1.0000
  Fe  Fe331     1.0  0.07695  0.56863  0.66846  1.0000
  S   S660      1.0  0.08365  0.54642  0.65608  1.0000
  S   S661      1.0  0.07256  0.60718  0.68772  1.0000
  S   S662      1.0  0.09348  0.56790  0.68575  1.0000
  H   H2419     1.0  0.47431  0.63882  0.63726  1.0000
  Fe  Fe332     1.0  0.14393  0.98786  0.54011  1.0000
  S   S663      1.0  0.02117  0.51798  0.65602  1.0000
  C   C1489     1.0  0.38275  0.63591  0.58524  1.0000
  H   H2420     1.0  0.11419  0.62775  0.50571  1.0000
  H   H2421     1.0  0.35394  0.65078  0.60426  1.0000
  H   H2422     1.0  0.34125  0.54525  0.61639  1.0000
  C   C1490     1.0  0.06604  0.54010  0.65411  1.0000
  C   C1491     1.0  0.04926  0.54906  0.65906  1.0000
  C   C1492     1.0  0.03532  0.54268  0.65898  1.0000
  C   C1493     1.0  0.03824  0.52735  0.65399  1.0000
  C   C1494     1.0  0.05504  0.51881  0.64842  1.0000
  C   C1495     1.0  0.06891  0.52516  0.64851  1.0000
  H   H2423     1.0  0.04701  0.56074  0.66317  1.0000
  H   H2424     1.0  0.02233  0.54934  0.66323  1.0000
  H   H2425     1.0  0.05312  0.51715  0.68481  1.0000
  H   H2426     1.0  0.08185  0.51816  0.64475  1.0000
  C   C1496     1.0  0.05774  0.67247  0.63092  1.0000
  C   C1497     1.0  0.04354  0.66936  0.62728  1.0000
  C   C1498     1.0  0.03688  0.65505  0.63659  1.0000
  C   C1499     1.0  0.04462  0.64357  0.64930  1.0000
  C   C1500     1.0  0.05880  0.64671  0.65293  1.0000
  C   C1501     1.0  0.06517  0.66127  0.64394  1.0000
  H   H2427     1.0  0.03759  0.67803  0.61737  1.0000
  H   H2428     1.0  0.02592  0.65275  0.63371  1.0000
  H   H2429     1.0  0.06479  0.63802  0.66278  1.0000
  H   H2430     1.0  0.07608  0.66365  0.64688  1.0000
  C   C1502     1.0  0.14522  0.58044  0.61078  1.0000
  C   C1503     1.0  0.13284  0.57298  0.62340  1.0000
  C   C1504     1.0  0.12547  0.57919  0.63828  1.0000
  C   C1505     1.0  0.13067  0.59270  0.64076  1.0000
  C   C1506     1.0  0.14350  0.59973  0.62842  1.0000
  C   C1507     1.0  0.15058  0.59378  0.61338  1.0000
  H   H2431     1.0  0.12873  0.56258  0.62160  1.0000
  H   H2432     1.0  0.11581  0.57345  0.64786  1.0000
  H   H2433     1.0  0.14769  0.61007  0.63031  1.0000
  H   H2434     1.0  0.16022  0.59952  0.60383  1.0000
  C   C1508     1.0  0.13858  0.66408  0.55828  1.0000
  C   C1509     1.0  0.12517  0.67537  0.56636  1.0000
  C   C1510     1.0  0.10988  0.68188  0.56051  1.0000
  C   C1511     1.0  0.10819  0.67772  0.54612  1.0000
  C   C1512     1.0  0.12184  0.66688  0.53771  1.0000
  C   C1513     1.0  0.13690  0.65988  0.54392  1.0000
  H   H2435     1.0  0.12643  0.67873  0.57742  1.0000
  H   H2436     1.0  0.09948  0.69013  0.56714  1.0000
  H   H2437     1.0  0.12075  0.66371  0.52653  1.0000
  H   H2438     1.0  0.14725  0.65128  0.53750  1.0000
  H   H2439     1.0  0.37814  0.79653  0.49115  1.0000
  H   H2440     1.0  0.41463  0.75523  0.53884  1.0000
  H   H2441     1.0  0.32350  0.96938  0.56160  1.0000
  H   H2442     1.0  0.12499  0.54413  0.58184  1.0000
  H   H2443     1.0  0.32172  0.51104  0.50557  1.0000
  H   H2444     1.0  0.09548  0.95258  0.70979  1.0000
  C   C1514     1.0  0.48478  0.92780  0.72382  1.0000
  C   C1515     1.0  0.09979  0.94038  0.62788  1.0000
  C   C1516     1.0  0.49738  0.64503  0.60784  1.0000
  Fe  Fe333     1.0  0.13947  0.95694  0.53080  1.0000
  H   H2445     1.0  0.02618  0.93836  0.71279  1.0000
  S   S664      1.0  0.12647  0.96974  0.55249  1.0000
  S   S665      1.0  0.15492  0.97675  0.51711  1.0000
  H   H2446     1.0  0.11835  0.90227  0.49758  1.0000
  H   H2447     1.0  0.47990  0.67941  0.52084  1.0000
  H   H2448     1.0  0.02200  0.65897  0.50033  1.0000
  H   H2449     1.0  0.07774  0.59937  0.72376  1.0000
  H   H2450     1.0  0.44631  0.60624  0.71620  1.0000
  H   H2451     1.0  0.38529  0.64196  0.59432  1.0000
  Fe  Fe334     1.0  0.41288  0.71647  0.49923  1.0000
  H   H2452     1.0  0.49806  0.58006  0.72899  1.0000
  C   C1517     1.0  0.35362  0.97037  0.58183  1.0000
  C   C1518     1.0  0.36607  0.97539  0.56764  1.0000
  C   C1519     1.0  0.36295  0.97877  0.55133  1.0000
  C   C1520     1.0  0.34757  0.97669  0.54908  1.0000
  C   C1521     1.0  0.33541  0.97100  0.56321  1.0000
  C   C1522     1.0  0.33835  0.96806  0.57955  1.0000
  H   H2453     1.0  0.37792  0.97703  0.56926  1.0000
  H   H2454     1.0  0.46462  0.90907  0.72074  1.0000
  H   H2455     1.0  0.32868  0.96417  0.59049  1.0000
  C   C1523     1.0  0.38960  0.88768  0.50643  1.0000
  H   H2456     1.0  0.47491  0.93966  0.72507  1.0000
  C   C1524     1.0  0.36530  0.91153  0.50369  1.0000
  C   C1525     1.0  0.35420  0.90142  0.51476  1.0000
  C   C1526     1.0  0.36084  0.88443  0.52150  1.0000
  C   C1527     1.0  0.37850  0.87763  0.51753  1.0000
  H   H2457     1.0  0.05784  0.50201  0.72950  1.0000
  H   H2458     1.0  0.35229  0.87651  0.52996  1.0000
  H   H2459     1.0  0.38342  0.86452  0.52288  1.0000
  C   C1528     1.0  0.41312  0.89078  0.58552  1.0000
  C   C1529     1.0  0.43096  0.88901  0.58130  1.0000
  C   C1530     1.0  0.43847  0.89952  0.58623  1.0000
  C   C1531     1.0  0.42812  0.91206  0.59500  1.0000
  C   C1532     1.0  0.41030  0.91403  0.59882  1.0000
  C   C1533     1.0  0.40285  0.90327  0.59430  1.0000
  H   H2460     1.0  0.43895  0.87939  0.57450  1.0000
  H   H2461     1.0  0.45225  0.89801  0.58316  1.0000
  H   H2462     1.0  0.40223  0.92364  0.60556  1.0000
  H   H2463     1.0  0.38907  0.90465  0.59767  1.0000
  C   C1534     1.0  0.11752  0.50503  0.50462  1.0000
  H   H2464     1.0  0.33310  0.50099  0.58385  1.0000
  C   C1535     1.0  0.02931  0.84614  0.49964  1.0000
  C   C1536     1.0  0.08858  0.95291  0.67169  1.0000
  H   H2465     1.0  0.47114  0.87679  0.53904  1.0000
  H   H2466     1.0  0.00035  0.91011  0.56526  1.0000
  C   C1537     1.0  0.37107  0.90107  0.55183  1.0000
  H   H2467     1.0  0.35521  0.66995  0.56755  1.0000
  C   C1538     1.0  0.08477  0.50405  0.69069  1.0000
  C   C1539     1.0  0.26387  0.61228  0.55317  1.0000
  C   C1540     1.0  0.27000  0.59996  0.54335  1.0000
  C   C1541     1.0  0.25839  0.59407  0.53808  1.0000
  C   C1542     1.0  0.24062  0.60030  0.54278  1.0000
  C   C1543     1.0  0.23453  0.61245  0.55274  1.0000
  C   C1544     1.0  0.24612  0.61847  0.55783  1.0000
  H   H2468     1.0  0.28366  0.59516  0.53964  1.0000
  H   H2469     1.0  0.26326  0.58483  0.53021  1.0000
  H   H2470     1.0  0.22089  0.61739  0.55640  1.0000
  H   H2471     1.0  0.24131  0.62802  0.56539  1.0000
  C   C1545     1.0  0.32998  0.54710  0.54057  1.0000
  C   C1546     1.0  0.31621  0.55877  0.53460  1.0000
  C   C1547     1.0  0.30429  0.55317  0.52964  1.0000
  C   C1548     1.0  0.30587  0.53584  0.53105  1.0000
  C   C1549     1.0  0.31930  0.52408  0.53757  1.0000
  C   C1550     1.0  0.33148  0.52973  0.54214  1.0000
  H   H2472     1.0  0.31488  0.57216  0.53349  1.0000
  H   H2473     1.0  0.29387  0.56230  0.52469  1.0000
  C   C1551     1.0  0.10107  0.52948  0.60597  1.0000
  H   H2474     1.0  0.34204  0.52064  0.54689  1.0000
  C   C1552     1.0  0.40032  0.77952  0.52816  1.0000
  C   C1553     1.0  0.39680  0.79709  0.52698  1.0000
  C   C1554     1.0  0.40501  0.80395  0.53526  1.0000
  C   C1555     1.0  0.41657  0.79319  0.54496  1.0000
  C   C1556     1.0  0.41997  0.77563  0.54623  1.0000
  C   C1557     1.0  0.41193  0.76880  0.53778  1.0000
  H   H2475     1.0  0.38756  0.80536  0.51981  1.0000
  H   H2476     1.0  0.40211  0.81746  0.53452  1.0000
  C   C1558     1.0  0.35783  0.68269  0.53003  1.0000
  C   C1559     1.0  0.34306  0.67596  0.53572  1.0000
  C   C1560     1.0  0.34297  0.66076  0.53185  1.0000
  C   C1561     1.0  0.35765  0.65223  0.52222  1.0000
  C   C1562     1.0  0.37243  0.65895  0.51647  1.0000
  C   C1563     1.0  0.37255  0.67413  0.52041  1.0000
  H   H2477     1.0  0.33156  0.68260  0.54302  1.0000
  H   H2478     1.0  0.33135  0.65592  0.53594  1.0000
  H   H2479     1.0  0.38376  0.65246  0.50886  1.0000
  H   H2480     1.0  0.38390  0.67932  0.51566  1.0000
  C   C1564     1.0  0.39320  0.58161  0.61272  1.0000
  C   C1565     1.0  0.39116  0.57978  0.59734  1.0000
  C   C1566     1.0  0.37507  0.58578  0.59287  1.0000
  C   C1567     1.0  0.36094  0.59328  0.60398  1.0000
  C   C1568     1.0  0.36298  0.59485  0.61939  1.0000
  C   C1569     1.0  0.37904  0.58912  0.62371  1.0000
  H   H2481     1.0  0.40210  0.57398  0.58877  1.0000
  H   H2482     1.0  0.37360  0.58459  0.58091  1.0000
  H   H2483     1.0  0.35207  0.60049  0.62811  1.0000
  H   H2484     1.0  0.38031  0.59008  0.63581  1.0000
  C   C1570     1.0  0.40567  0.66446  0.60376  1.0000
  C   C1571     1.0  0.42347  0.65949  0.59841  1.0000
  C   C1572     1.0  0.43193  0.66771  0.58268  1.0000
  C   C1573     1.0  0.42261  0.68077  0.57218  1.0000
  C   C1574     1.0  0.40480  0.68551  0.57748  1.0000
  C   C1575     1.0  0.39638  0.67753  0.59331  1.0000
  H   H2485     1.0  0.43074  0.64950  0.60648  1.0000
  H   H2486     1.0  0.44569  0.66392  0.57860  1.0000
  H   H2487     1.0  0.39748  0.69553  0.56954  1.0000
  H   H2488     1.0  0.38265  0.68154  0.59746  1.0000
  H   H2489     1.0  0.10344  0.50724  0.50591  1.0000
  C   C1576     1.0  0.47099  0.60129  0.66161  1.0000
  C   C1577     1.0  0.47749  0.60003  0.67567  1.0000
  H   H2490     1.0  0.45784  0.60044  0.66337  1.0000
  H   H2491     1.0  0.46933  0.59819  0.68822  1.0000
  C   C1578     1.0  0.24594  0.96399  0.53424  1.0000
  C   C1579     1.0  0.22992  0.96315  0.54527  1.0000
  C   C1580     1.0  0.21634  0.96101  0.53965  1.0000
  C   C1581     1.0  0.21878  0.95945  0.52298  1.0000
  C   C1582     1.0  0.23487  0.96005  0.51201  1.0000
  C   C1583     1.0  0.24838  0.96240  0.51758  1.0000
  H   H2492     1.0  0.22799  0.96399  0.55828  1.0000
  H   H2493     1.0  0.20409  0.96028  0.54828  1.0000
  H   H2494     1.0  0.23688  0.95885  0.49911  1.0000
  H   H2495     1.0  0.26059  0.96320  0.50892  1.0000
  C   C1584     1.0  0.09694  0.96804  0.60910  1.0000
  C   C1585     1.0  0.11314  0.96279  0.59900  1.0000
  C   C1586     1.0  0.12272  0.94634  0.60343  1.0000
  H   H2496     1.0  0.08958  0.98077  0.60568  1.0000
  H   H2497     1.0  0.11832  0.97153  0.58796  1.0000
  C   C1587     1.0  0.06919  0.79306  0.55720  1.0000
  C   C1588     1.0  0.07594  0.77570  0.55781  1.0000
  C   C1589     1.0  0.06520  0.76477  0.55940  1.0000
  C   C1590     1.0  0.04758  0.77109  0.56067  1.0000
  C   C1591     1.0  0.04084  0.78847  0.55996  1.0000
  C   C1592     1.0  0.05162  0.79946  0.55819  1.0000
  H   H2498     1.0  0.08958  0.77074  0.55682  1.0000
  H   H2499     1.0  0.07057  0.75152  0.55944  1.0000
  H   H2500     1.0  0.02721  0.79344  0.56086  1.0000
  H   H2501     1.0  0.04632  0.81283  0.55771  1.0000
  C   C1593     1.0  0.04123  0.88066  0.59947  1.0000
  C   C1594     1.0  0.03537  0.89535  0.60609  1.0000
  C   C1595     1.0  0.04264  0.89717  0.61857  1.0000
  C   C1596     1.0  0.05563  0.88422  0.62457  1.0000
  C   C1597     1.0  0.06147  0.86962  0.61791  1.0000
  C   C1598     1.0  0.05428  0.86783  0.60543  1.0000
  H   H2502     1.0  0.02530  0.90536  0.60148  1.0000
  H   H2503     1.0  0.03807  0.90852  0.62359  1.0000
  H   H2504     1.0  0.07144  0.85950  0.62258  1.0000
  H   H2505     1.0  0.05852  0.85625  0.60080  1.0000
  C   C1599     1.0  0.11535  0.89452  0.53848  1.0000
  C   C1600     1.0  0.10262  0.90713  0.53166  1.0000
  C   C1601     1.0  0.10490  0.92390  0.52556  1.0000
  C   C1602     1.0  0.11973  0.92817  0.52662  1.0000
  C   C1603     1.0  0.13229  0.91558  0.53367  1.0000
  C   C1604     1.0  0.13015  0.89880  0.53948  1.0000
  H   H2506     1.0  0.09113  0.90396  0.53095  1.0000
  H   H2507     1.0  0.09513  0.93363  0.52015  1.0000
  H   H2508     1.0  0.14387  0.91865  0.53427  1.0000
  H   H2509     1.0  0.14007  0.88907  0.54468  1.0000
  C   C1605     1.0  0.09747  0.49209  0.58785  1.0000
  H   H2510     1.0  0.14323  0.50980  0.59921  1.0000
  C   C1606     1.0  0.09015  0.95678  0.62349  1.0000
  H   H2511     1.0  0.43924  0.54947  0.64233  1.0000
  C   C1607     1.0  0.03689  0.85604  0.50522  1.0000
  H   H2512     1.0  0.10034  0.65289  0.51871  1.0000
  N   N158      1.0  0.00776  0.59690  0.73036  1.0000
  H   H2513     1.0  0.03354  0.85672  0.51839  1.0000
  H   H2514     1.0  0.45303  0.52954  0.64902  1.0000
  C   C1608     1.0  0.36737  0.66271  0.57154  1.0000
  H   H2515     1.0  0.08935  0.50253  0.58098  1.0000
  C   C1609     1.0  0.41178  0.59645  0.70967  1.0000
  C   C1610     1.0  0.42741  0.60140  0.70596  1.0000
  C   C1611     1.0  0.06206  0.80703  0.49235  1.0000
  H   H2516     1.0  0.13956  0.54109  0.59522  1.0000
  H   H2517     1.0  0.43422  0.60453  0.69295  1.0000
  C   C1612     1.0  0.45505  0.68758  0.49232  1.0000
  H   H2518     1.0  0.08094  0.94673  0.66719  1.0000
  H   H2519     1.0  0.00909  0.51830  0.60627  1.0000
  C   C1613     1.0  0.41604  0.94093  0.70235  1.0000
  C   C1614     1.0  0.40959  0.95800  0.70311  1.0000
  C   C1615     1.0  0.40330  0.96960  0.68946  1.0000
  C   C1616     1.0  0.40369  0.96424  0.67491  1.0000
  C   C1617     1.0  0.41041  0.94723  0.67406  1.0000
  C   C1618     1.0  0.41649  0.93561  0.68778  1.0000
  H   H2520     1.0  0.38658  0.64762  0.66129  1.0000
  H   H2521     1.0  0.08081  0.49863  0.72447  1.0000
  H   H2522     1.0  0.41073  0.94298  0.66292  1.0000
  H   H2523     1.0  0.42144  0.92241  0.68713  1.0000
  C   C1619     1.0  0.15093  0.59972  0.50608  1.0000
  H   H2524     1.0  0.34460  0.61639  0.49530  1.0000
  C   C1620     1.0  0.14981  0.57119  0.49563  1.0000
  H   H2525     1.0  0.06029  0.94595  0.69489  1.0000
  H   H2526     1.0  0.48657  0.54233  0.63614  1.0000
  N   N159      1.0  0.11936  0.52718  0.60604  1.0000
  H   H2527     1.0  0.00558  0.61556  0.61631  1.0000
  H   H2528     1.0  0.02790  0.86688  0.64959  1.0000
  C   C1621     1.0  0.12114  0.52509  0.62354  1.0000
  H   H2529     1.0  0.05435  0.49573  0.69654  1.0000
  H   H2530     1.0  0.12813  0.51299  0.58632  1.0000
  H   H2531     1.0  0.39151  0.91239  0.49071  1.0000
  S   S666      1.0  0.00782  0.68511  0.58470  1.0000
  H   H2532     1.0  0.38249  0.62244  0.59165  1.0000
  S   S667      1.0  0.12068  0.49219  0.55747  1.0000
  H   H2533     1.0  0.04174  0.51302  0.70639  1.0000
  C   C1622     1.0  0.09631  0.65993  0.50666  1.0000
  H   H2534     1.0  0.45998  0.79589  0.56592  1.0000
  H   H2535     1.0  0.15027  0.50075  0.48753  1.0000
  H   H2536     1.0  0.48894  0.67835  0.59556  1.0000
  H   H2537     1.0  0.00714  0.88227  0.63162  1.0000
  C   C1623     1.0  0.09669  0.95635  0.69581  1.0000
  H   H2538     1.0  0.11214  0.88220  0.50440  1.0000
  H   H2539     1.0  0.39236  0.91318  0.56207  1.0000
  C   C1624     1.0  0.35795  0.92057  0.57053  1.0000
  C   C1625     1.0  0.38574  0.92213  0.55221  1.0000
  S   S668      1.0  0.41172  0.87912  0.50120  1.0000
  H   H2540     1.0  0.35862  0.89817  0.55227  1.0000
  H   H2541     1.0  0.41757  0.68240  0.49165  1.0000
  H   H2542     1.0  0.37247  0.98300  0.54042  1.0000
  C   C1626     1.0  0.02223  0.60462  0.71964  1.0000
  H   H2543     1.0  0.47194  0.90489  0.60905  1.0000
  H   H2544     1.0  0.45024  0.57037  0.61736  1.0000
  Fe  Fe335     1.0  0.31324  0.97081  0.49182  1.0000
  H   H2545     1.0  0.09649  0.50444  0.69444  1.0000
  H   H2546     1.0  0.49006  0.93153  0.68154  1.0000
  H   H2547     1.0  0.47314  0.68362  0.61386  1.0000
  S   S669      1.0  0.06988  0.96362  0.63605  1.0000
  H   H2548     1.0  0.39387  0.63593  0.57425  1.0000
  C   C1627     1.0  0.04850  0.86529  0.49368  1.0000
  H   H2549     1.0  0.39542  0.85488  0.49119  1.0000
  C   C1628     1.0  0.12933  0.51191  0.59947  1.0000
  H   H2550     1.0  0.15440  0.58255  0.52974  1.0000
  H   H2551     1.0  0.15375  0.55717  0.52034  1.0000
  H   H2552     1.0  0.00790  0.90167  0.63611  1.0000
  C   C1629     1.0  0.40205  0.84180  0.49644  1.0000
  H   H2553     1.0  0.49534  0.63184  0.61113  1.0000
  C   C1630     1.0  0.48111  0.85301  0.48667  1.0000
  H   H2554     1.0  0.13476  0.52346  0.62409  1.0000
  H   H2555     1.0  0.11367  0.53638  0.62890  1.0000
  H   H2556     1.0  0.48334  0.52306  0.63340  1.0000
  H   H2557     1.0  0.09306  0.54063  0.61129  1.0000
  Fe  Fe336     1.0  0.02139  0.93291  0.66596  1.0000
  H   H2558     1.0  0.45776  0.49228  0.72675  1.0000
  S   S670      1.0  0.46896  0.49393  0.65063  1.0000
  H   H2559     1.0  0.43299  0.49153  0.71637  1.0000
  H   H2560     1.0  0.47535  0.87219  0.50905  1.0000
  H   H2561     1.0  0.39244  0.83365  0.50087  1.0000
  C   C1631     1.0  0.49448  0.60117  0.67358  1.0000
  H   H2562     1.0  0.47873  0.84568  0.49997  1.0000
  H   H2563     1.0  0.45647  0.54868  0.65187  1.0000
  H   H2564     1.0  0.10217  0.94935  0.66499  1.0000
  H   H2565     1.0  0.09920  0.53143  0.59291  1.0000
  H   H2566     1.0  0.08483  0.51238  0.67788  1.0000
  C   C1632     1.0  0.47153  0.68726  0.51198  1.0000
  C   C1633     1.0  0.47840  0.87881  0.49557  1.0000
  H   H2567     1.0  0.34413  0.49033  0.64644  1.0000
  H   H2568     1.0  0.02033  0.69197  0.54825  1.0000
  C   C1634     1.0  0.06791  0.52725  0.70395  1.0000
  H   H2569     1.0  0.47881  0.82156  0.56840  1.0000
  H   H2570     1.0  0.06264  0.78835  0.52383  1.0000
  H   H2571     1.0  0.36714  0.93094  0.73072  1.0000
  H   H2572     1.0  0.29682  0.51817  0.49170  1.0000
  H   H2573     1.0  0.34270  0.89779  0.48693  1.0000
  H   H2574     1.0  0.49130  0.53819  0.61531  1.0000
  C   C1635     1.0  0.00130  0.89087  0.64066  1.0000
  H   H2575     1.0  0.33519  0.54471  0.58272  1.0000
  C   C1636     1.0  0.42538  0.81798  0.49126  1.0000
  H   H2576     1.0  0.08186  0.89602  0.50562  1.0000
  H   H2577     1.0  0.34432  0.78768  0.49464  1.0000
  H   H2578     1.0  0.22639  0.93317  0.49364  1.0000
  H   H2579     1.0  0.22472  0.91605  0.48558  1.0000
  H   H2580     1.0  0.36033  0.92460  0.49829  1.0000
  H   H2581     1.0  0.11975  0.53681  0.50399  1.0000
  H   H2582     1.0  0.08408  0.96684  0.66743  1.0000
  H   H2583     1.0  0.41664  0.80898  0.49509  1.0000
  H   H2584     1.0  0.48888  0.65755  0.50417  1.0000
  H   H2585     1.0  0.49227  0.76812  0.57108  1.0000
  S   S671      1.0  0.34379  0.98175  0.52850  1.0000
  H   H2586     1.0  0.34264  0.51261  0.49283  1.0000
  C   C1637     1.0  0.48150  0.60357  0.64541  1.0000
  H   H2587     1.0  0.14653  0.51547  0.50084  1.0000
  H   H2588     1.0  0.36615  0.64382  0.67390  1.0000
  H   H2589     1.0  0.22543  0.58643  0.49781  1.0000
  H   H2590     1.0  0.45810  0.93065  0.71028  1.0000
  C   C1638     1.0  0.99946  0.69131  0.53798  1.0000
  C   C1639     1.0  0.09255  0.92918  0.69516  1.0000
  H   H2591     1.0  0.39434  0.92074  0.53971  1.0000
  H   H2592     1.0  0.37787  0.66351  0.55998  1.0000
  N   N160      1.0  0.99964  0.66168  0.49079  1.0000
  N   N161      1.0  0.10649  0.63730  0.60764  1.0000
  C   C1640     1.0  0.10516  0.63835  0.62521  1.0000
  C   C1641     1.0  0.09362  0.65121  0.60016  1.0000
  C   C1642     1.0  0.10340  0.62080  0.60757  1.0000
  C   C1643     1.0  0.12385  0.63884  0.59759  1.0000
  H   H2593     1.0  0.09291  0.63549  0.63360  1.0000
  H   H2594     1.0  0.10590  0.65117  0.62592  1.0000
  H   H2595     1.0  0.11569  0.62910  0.63067  1.0000
  H   H2596     1.0  0.09434  0.65091  0.58683  1.0000
  H   H2597     1.0  0.08035  0.65049  0.60748  1.0000
  H   H2598     1.0  0.09561  0.66386  0.60001  1.0000
  H   H2599     1.0  0.10472  0.61944  0.59445  1.0000
  H   H2600     1.0  0.09033  0.61925  0.61489  1.0000
  H   H2601     1.0  0.11274  0.61007  0.61339  1.0000
  H   H2602     1.0  0.12522  0.63853  0.58415  1.0000
  H   H2603     1.0  0.13392  0.62833  0.60250  1.0000
  H   H2604     1.0  0.12692  0.65087  0.59778  1.0000
  H   H2605     1.0  0.34503  0.91811  0.57212  1.0000
  S   S672      1.0  0.16498  0.97304  0.55367  1.0000
  N   N162      1.0  0.36882  0.91859  0.55372  1.0000
  H   H2606     1.0  0.38449  0.93521  0.55375  1.0000
  C   C1644     1.0  0.11608  0.93524  0.61798  1.0000
  C   C1645     1.0  0.36053  0.93060  0.54034  1.0000
  H   H2607     1.0  0.35835  0.94395  0.54151  1.0000
  H   H2608     1.0  0.36856  0.92961  0.52752  1.0000
  H   H2609     1.0  0.34787  0.92806  0.54093  1.0000
  H   H2610     1.0  0.47625  0.78725  0.54962  1.0000
  H   H2611     1.0  0.47486  0.91874  0.58863  1.0000
  H   H2612     1.0  0.46788  0.80780  0.58578  1.0000
  N   N163      1.0  0.48171  0.65686  0.61447  1.0000
  C   C1646     1.0  0.47265  0.79709  0.55727  1.0000
  C   C1647     1.0  0.04546  0.92350  0.72670  1.0000
  H   H2613     1.0  0.09234  0.97039  0.69246  1.0000
  H   H2614     1.0  0.45948  0.52383  0.62054  1.0000
  H   H2615     1.0  0.49516  0.67519  0.61510  1.0000
  C   C1648     1.0  0.05389  0.50883  0.69749  1.0000
  H   H2616     1.0  0.39100  0.58856  0.72956  1.0000
  H   H2617     1.0  0.45006  0.65775  0.51287  1.0000
  H   H2618     1.0  0.02317  0.86848  0.67138  1.0000
  H   H2619     1.0  0.37897  0.94685  0.71859  1.0000
  H   H2620     1.0  0.48493  0.87997  0.59613  1.0000
  H   H2621     1.0  0.01219  0.95693  0.73329  1.0000
  C   C1649     1.0  0.02133  0.87551  0.65850  1.0000
  C   C1650     1.0  0.48040  0.80865  0.57674  1.0000
  N   N164      1.0  0.24259  0.54203  0.55751  1.0000
  C   C1651     1.0  0.24542  0.54917  0.53910  1.0000
  C   C1652     1.0  0.23571  0.52657  0.56134  1.0000
  C   C1653     1.0  0.23024  0.55467  0.56665  1.0000
  C   C1654     1.0  0.25906  0.53773  0.56289  1.0000
  H   H2622     1.0  0.25136  0.56037  0.53564  1.0000
  H   H2623     1.0  0.23316  0.55341  0.53470  1.0000
  H   H2624     1.0  0.25417  0.53973  0.53179  1.0000
  H   H2625     1.0  0.23374  0.52054  0.57505  1.0000
  H   H2626     1.0  0.22318  0.52942  0.55762  1.0000
  H   H2627     1.0  0.24457  0.51689  0.55438  1.0000
  H   H2628     1.0  0.22730  0.54951  0.58054  1.0000
  H   H2629     1.0  0.21791  0.55890  0.56235  1.0000
  H   H2630     1.0  0.23536  0.56623  0.56449  1.0000
  H   H2631     1.0  0.25745  0.53240  0.57673  1.0000
  H   H2632     1.0  0.26472  0.54910  0.55988  1.0000
  H   H2633     1.0  0.26866  0.52821  0.55629  1.0000
  S   S673      1.0  0.03308  0.90648  0.67813  1.0000
  H   H2634     1.0  0.00616  0.69463  0.52496  1.0000
  N   N165      1.0  0.38269  0.64752  0.68771  1.0000
  C   C1655     1.0  0.37999  0.64137  0.67397  1.0000
  C   C1656     1.0  0.37419  0.63844  0.70425  1.0000
  C   C1657     1.0  0.37533  0.66592  0.68563  1.0000
  C   C1658     1.0  0.40126  0.64432  0.68698  1.0000
  H   H2635     1.0  0.10189  0.80352  0.49817  1.0000
  H   H2636     1.0  0.06972  0.83160  0.50215  1.0000
  H   H2637     1.0  0.38506  0.62746  0.67539  1.0000
  H   H2638     1.0  0.36017  0.64045  0.70525  1.0000
  H   H2639     1.0  0.37951  0.62450  0.70618  1.0000
  H   H2640     1.0  0.37605  0.64265  0.71494  1.0000
  H   H2641     1.0  0.35155  0.68225  0.49556  1.0000
  C   C1659     1.0  0.48483  0.67425  0.60954  1.0000
  H   H2642     1.0  0.20809  0.60365  0.50287  1.0000
  H   H2643     1.0  0.09493  0.93170  0.63905  1.0000
  H   H2644     1.0  0.00191  0.90468  0.66583  1.0000
  H   H2645     1.0  0.40725  0.63058  0.68814  1.0000
  N   N166      1.0  0.08653  0.94776  0.69027  1.0000
  C   C1660     1.0  0.48804  0.77844  0.57825  1.0000
  C   C1661     1.0  0.45903  0.53762  0.61520  1.0000
  C   C1662     1.0  0.48218  0.53687  0.62782  1.0000
  H   H2646     1.0  0.33680  0.52652  0.59999  1.0000
  H   H2647     1.0  0.38136  0.67307  0.67317  1.0000
  H   H2648     1.0  0.48754  0.89598  0.54227  1.0000
  H   H2649     1.0  0.02824  0.88606  0.65479  1.0000
  C   C1663     1.0  0.38295  0.90459  0.49936  1.0000
  N   N167      1.0  0.06903  0.50962  0.70301  1.0000
  H   H2650     1.0  0.07879  0.49093  0.61151  1.0000
  H   H2651     1.0  0.20574  0.92958  0.49514  1.0000
  H   H2652     1.0  0.11638  0.51385  0.63209  1.0000
  C   C1664     1.0  0.35635  0.77816  0.49154  1.0000
  C   C1665     1.0  0.03116  0.93643  0.72390  1.0000
  C   C1666     1.0  0.48030  0.66557  0.49556  1.0000
  H   H2653     1.0  0.48782  0.89370  0.57552  1.0000
  N   N168      1.0  0.06856  0.74149  0.60953  1.0000
  C   C1667     1.0  0.08385  0.73324  0.59843  1.0000
  C   C1668     1.0  0.06841  0.75973  0.60648  1.0000
  C   C1669     1.0  0.06906  0.73338  0.62740  1.0000
  C   C1670     1.0  0.05288  0.73954  0.60583  1.0000
  H   H2654     1.0  0.09593  0.73434  0.60096  1.0000
  H   H2655     1.0  0.08398  0.73906  0.58483  1.0000
  H   H2656     1.0  0.08427  0.71946  0.60034  1.0000
  H   H2657     1.0  0.05717  0.76632  0.61482  1.0000
  H   H2658     1.0  0.08023  0.76174  0.60877  1.0000
  H   H2659     1.0  0.06767  0.76626  0.59319  1.0000
  H   H2660     1.0  0.05762  0.73912  0.63617  1.0000
  H   H2661     1.0  0.08071  0.73460  0.63068  1.0000
  H   H2662     1.0  0.06926  0.71956  0.63001  1.0000
  H   H2663     1.0  0.04105  0.74590  0.61370  1.0000
  H   H2664     1.0  0.05241  0.72593  0.60840  1.0000
  H   H2665     1.0  0.05222  0.74508  0.59235  1.0000
  N   N169      1.0  0.09828  0.90896  0.58953  1.0000
  C   C1671     1.0  0.08369  0.92202  0.59580  1.0000
  C   C1672     1.0  0.10527  0.89745  0.60396  1.0000
  C   C1673     1.0  0.11179  0.91724  0.57744  1.0000
  C   C1674     1.0  0.09237  0.89909  0.58096  1.0000
  H   H2666     1.0  0.07795  0.93082  0.58528  1.0000
  H   H2667     1.0  0.08777  0.92981  0.60216  1.0000
  H   H2668     1.0  0.07338  0.91616  0.60518  1.0000
  H   H2669     1.0  0.10982  0.90448  0.61072  1.0000
  H   H2670     1.0  0.09539  0.89098  0.61334  1.0000
  H   H2671     1.0  0.11631  0.88743  0.59970  1.0000
  H   H2672     1.0  0.12307  0.90775  0.57257  1.0000
  H   H2673     1.0  0.11653  0.92487  0.58343  1.0000
  H   H2674     1.0  0.10705  0.92593  0.56627  1.0000
  H   H2675     1.0  0.10302  0.88893  0.57633  1.0000
  H   H2676     1.0  0.08733  0.90728  0.56978  1.0000
  H   H2677     1.0  0.08200  0.89285  0.58963  1.0000
  N   N170      1.0  0.36648  0.64491  0.57990  1.0000
  H   H2678     1.0  0.11852  0.55403  0.59970  1.0000
  C   C1675     1.0  0.36358  0.63647  0.56796  1.0000
  C   C1676     1.0  0.35216  0.64456  0.59493  1.0000
  H   H2679     1.0  0.36973  0.66944  0.58010  1.0000
  H   H2680     1.0  0.37377  0.54006  0.56812  1.0000
  H   H2681     1.0  0.36309  0.62294  0.57376  1.0000
  H   H2682     1.0  0.37390  0.63680  0.55624  1.0000
  H   H2683     1.0  0.35119  0.64270  0.56404  1.0000
  H   H2684     1.0  0.35109  0.63131  0.60150  1.0000
  H   H2685     1.0  0.33964  0.65116  0.59140  1.0000
  H   H2686     1.0  0.03360  0.59479  0.71566  1.0000
  H   H2687     1.0  0.06305  0.96644  0.69474  1.0000
  C   C1677     1.0  0.10889  0.63524  0.49442  1.0000
  H   H2688     1.0  0.47921  0.69574  0.50206  1.0000
  H   H2689     1.0  0.36443  0.70599  0.49655  1.0000
  H   H2690     1.0  0.46597  0.88465  0.49159  1.0000
  N   N171      1.0  0.12521  0.51721  0.49012  1.0000
  H   H2691     1.0  0.11056  0.95311  0.68978  1.0000
  H   H2692     1.0  0.10650  0.92512  0.68991  1.0000
  H   H2693     1.0  0.47989  0.94751  0.69377  1.0000
  H   H2694     1.0  0.34078  0.56285  0.59857  1.0000
  C   C1678     1.0  0.48444  0.87209  0.53990  1.0000
  H   H2695     1.0  0.32051  0.51067  0.53884  1.0000
  H   H2696     1.0  0.44355  0.67391  0.52497  1.0000
  H   H2697     1.0  0.39818  0.98278  0.69012  1.0000
  H   H2698     1.0  0.35015  0.52539  0.57942  1.0000
  S   S674      1.0  0.15307  0.61749  0.51161  1.0000
  C   C1679     1.0  0.49256  0.85537  0.53875  1.0000
  Fe  Fe337     1.0  0.29169  0.50143  0.53276  1.0000
  H   H2699     1.0  0.48340  0.92142  0.60492  1.0000
  H   H2700     1.0  0.10311  0.53752  0.49370  1.0000
  H   H2701     1.0  0.48789  0.61868  0.71891  1.0000
  S   S675      1.0  0.06063  0.57152  0.72963  1.0000
  H   H2702     1.0  0.34068  0.95415  0.73233  1.0000
  H   H2703     1.0  0.01477  0.51170  0.62650  1.0000
  N   N172      1.0  0.46439  0.54531  0.62621  1.0000
  C   C1680     1.0  0.43425  0.60234  0.71916  1.0000
  N   N173      1.0  0.48584  0.79534  0.56676  1.0000
  H   H2704     1.0  0.43365  0.84755  0.48916  1.0000
  H   H2705     1.0  0.35891  0.55584  0.60823  1.0000
  C   C1681     1.0  0.46837  0.91897  0.70942  1.0000
  H   H2706     1.0  0.36209  0.77370  0.50291  1.0000
  N   N174      1.0  0.10813  0.65353  0.49196  1.0000
  Fe  Fe338     1.0  0.41114  0.98665  0.59665  1.0000
  H   H2707     1.0  0.09592  0.51816  0.61371  1.0000
  C   C1682     1.0  0.14820  0.60141  0.49000  1.0000
  C   C1683     1.0  0.21630  0.59760  0.49225  1.0000
  H   H2708     1.0  0.37809  0.55264  0.58013  1.0000
  H   H2709     1.0  0.01232  0.64416  0.60994  1.0000
  C   C1684     1.0  0.00654  0.50985  0.61899  1.0000
  H   H2710     1.0  0.09015  0.92464  0.70917  1.0000
  C   C1685     1.0  0.45278  0.54317  0.64311  1.0000
  H   H2711     1.0  0.37728  0.67104  0.69569  1.0000
  C   C1686     1.0  0.06823  0.95258  0.69845  1.0000
  H   H2712     1.0  0.35612  0.93363  0.57244  1.0000
  H   H2713     1.0  0.46485  0.64338  0.61079  1.0000
  H   H2714     1.0  0.35950  0.55973  0.57105  1.0000
  H   H2715     1.0  0.36181  0.51766  0.61304  1.0000
  C   C1687     1.0  0.15259  0.58384  0.51719  1.0000
  C   C1688     1.0  0.32870  0.51791  0.49353  1.0000
  C   C1689     1.0  0.49372  0.88293  0.54172  1.0000
  H   H2716     1.0  0.44375  0.69606  0.49861  1.0000
  H   H2717     1.0  0.49721  0.88385  0.61842  1.0000
  H   H2718     1.0  0.49576  0.89603  0.71871  1.0000
  C   C1690     1.0  0.19604  0.58048  0.49549  1.0000
  C   C1691     1.0  0.49385  0.88747  0.58661  1.0000
  C   C1692     1.0  0.47720  0.65171  0.63313  1.0000
  H   H2719     1.0  0.37668  0.89160  0.56210  1.0000
  H   H2720     1.0  0.08573  0.92233  0.69041  1.0000
  C   C1693     1.0  0.36775  0.54836  0.57742  1.0000
  H   H2721     1.0  0.99975  0.85846  0.65529  1.0000
  H   H2722     1.0  0.36387  0.91159  0.58089  1.0000
  C   C1694     1.0  0.08588  0.90597  0.49450  1.0000
  H   H2723     1.0  0.13042  0.64948  0.50203  1.0000
  H   H2724     1.0  0.08495  0.78677  0.52263  1.0000
  H   H2725     1.0  0.46234  0.65768  0.52755  1.0000
  H   H2726     1.0  0.40934  0.96223  0.71422  1.0000
  H   H2727     1.0  0.06720  0.53613  0.69149  1.0000
  C   C1695     1.0  0.34928  0.55134  0.60458  1.0000
  C   C1696     1.0  0.34433  0.53380  0.58865  1.0000
  H   H2728     1.0  0.46743  0.56984  0.62676  1.0000
  H   H2729     1.0  0.47069  0.80970  0.54845  1.0000
  H   H2730     1.0  0.07934  0.81788  0.51911  1.0000
  H   H2731     1.0  0.37983  0.89891  0.53961  1.0000
  C   C1697     1.0  0.45490  0.66597  0.51804  1.0000
  H   H2732     1.0  0.47585  0.77657  0.58747  1.0000
  N   N175      1.0  0.35759  0.53955  0.59301  1.0000
  H   H2733     1.0  0.05633  0.53183  0.71330  1.0000
  H   H2734     1.0  0.08732  0.91648  0.49931  1.0000
  H   H2735     1.0  0.35322  0.96976  0.72100  1.0000
  N   N176      1.0  0.46546  0.67658  0.50448  1.0000
  C   C1698     1.0  0.36905  0.52472  0.60129  1.0000
  H   H2736     1.0  0.35286  0.76708  0.48956  1.0000
  H   H2737     1.0  0.40808  0.65116  0.67478  1.0000
  H   H2738     1.0  0.06618  0.94910  0.71251  1.0000
  H   H2739     1.0  0.00420  0.88789  0.56608  1.0000
  H   H2740     1.0  0.01397  0.57678  0.71701  1.0000
  H   H2741     1.0  0.47416  0.60400  0.72418  1.0000
  H   H2742     1.0  0.02033  0.83901  0.50861  1.0000
  H   H2743     1.0  0.05741  0.50713  0.64428  1.0000
  H   H2744     1.0  0.37545  0.51559  0.59283  1.0000
  H   H2745     1.0  0.37926  0.52854  0.60472  1.0000
  H   H2746     1.0  0.11979  0.50598  0.51676  1.0000
  H   H2747     1.0  0.36129  0.66877  0.68624  1.0000
  S   S676      1.0  0.15067  0.55329  0.48837  1.0000
  N   N177      1.0  0.07483  0.80499  0.50239  1.0000
  H   H2748     1.0  0.09596  0.63274  0.49614  1.0000
  H   H2749     1.0  0.48463  0.88920  0.49497  1.0000
  C   C1699     1.0  0.37398  0.94021  0.73171  1.0000
  N   N178      1.0  0.48532  0.92211  0.70851  1.0000
  H   H2750     1.0  0.07514  0.91089  0.48771  1.0000
  C   C1700     1.0  0.40312  0.59236  0.72661  1.0000
  H   H2751     1.0  0.04885  0.80777  0.50039  1.0000
  H   H2752     1.0  0.01886  0.61341  0.70788  1.0000
  H   H2753     1.0  0.09586  0.67358  0.50553  1.0000
  H   H2754     1.0  0.40381  0.64835  0.69744  1.0000
  C   C1701     1.0  0.14384  0.51386  0.48917  1.0000
  H   H2755     1.0  0.46748  0.53891  0.60233  1.0000
  H   H2756     1.0  0.49736  0.93025  0.72361  1.0000
  C   C1702     1.0  0.48127  0.91178  0.59933  1.0000
  H   H2757     1.0  0.42960  0.81785  0.50279  1.0000
  C   C1703     1.0  0.06958  0.49833  0.71986  1.0000
  C   C1704     1.0  0.47959  0.61152  0.72965  1.0000
  H   H2758     1.0  0.05716  0.81959  0.51988  1.0000
  H   H2759     1.0  0.07875  0.77777  0.50875  1.0000
  H   H2760     1.0  0.45025  0.68004  0.48633  1.0000
  H   H2761     1.0  0.00716  0.93646  0.63650  1.0000
  H   H2762     1.0  0.47206  0.56569  0.60598  1.0000
  H   H2763     1.0  0.12482  0.50028  0.60738  1.0000
  H   H2764     1.0  0.49002  0.80768  0.58411  1.0000
  C   C1705     1.0  0.00743  0.68996  0.55114  1.0000
  N   N179      1.0  0.49750  0.90008  0.59368  1.0000
  H   H2765     1.0  0.46062  0.69539  0.51922  1.0000
  H   H2766     1.0  0.44562  0.54376  0.61377  1.0000
  H   H2767     1.0  0.07932  0.52845  0.70769  1.0000
  H   H2768     1.0  0.31836  0.49138  0.49043  1.0000
  C   C1706     1.0  0.11723  0.53468  0.49247  1.0000
  H   H2769     1.0  0.08298  0.65867  0.50798  1.0000
  H   H2770     1.0  0.40616  0.84243  0.50774  1.0000
  Fe  Fe339     1.0  0.03285  0.49070  0.65562  1.0000
  H   H2771     1.0  0.33747  0.63883  0.48926  1.0000
  N   N180      1.0  0.00297  0.88201  0.65809  1.0000
  C   C1707     1.0  0.46350  0.56359  0.61876  1.0000
  H   H2772     1.0  0.46570  0.66058  0.63862  1.0000
  H   H2773     1.0  0.33457  0.71114  0.49421  1.0000
  H   H2774     1.0  0.37798  0.97116  0.73116  1.0000
  H   H2775     1.0  0.46817  0.91471  0.69808  1.0000
  H   H2776     1.0  0.32600  0.53141  0.49449  1.0000
  H   H2777     1.0  0.00562  0.67760  0.50354  1.0000
  C   C1708     1.0  0.12545  0.65613  0.49038  1.0000
  C   C1709     1.0  0.34837  0.96241  0.73384  1.0000
  C   C1710     1.0  0.01211  0.66901  0.49457  1.0000
  H   H2778     1.0  0.18755  0.58602  0.50630  1.0000
  H   H2779     1.0  0.31259  0.91285  0.49187  1.0000
  H   H2780     1.0  0.45534  0.66505  0.61218  1.0000
  H   H2781     1.0  0.18769  0.57677  0.48938  1.0000
  H   H2782     1.0  0.12312  0.49175  0.50310  1.0000
  H   H2783     1.0  0.20464  0.56870  0.50083  1.0000
  H   H2784     1.0  0.01088  0.49649  0.61736  1.0000
  H   H2785     1.0  0.48636  0.97224  0.72166  1.0000
  H   H2786     1.0  0.06489  0.79629  0.48594  1.0000
  H   H2787     1.0  0.47039  0.66027  0.59333  1.0000
  C   C1711     1.0  0.09192  0.80506  0.49099  1.0000
  C   C1712     1.0  0.11570  0.89217  0.49303  1.0000
  H   H2788     1.0  0.47619  0.65705  0.49010  1.0000
  C   C1713     1.0  0.49859  0.60450  0.64328  1.0000
  S   S677      1.0  0.27818  0.49118  0.55900  1.0000
  S   S678      1.0  0.27810  0.49096  0.51974  1.0000
  H   H2789     1.0  0.09591  0.87464  0.48766  1.0000
  H   H2790     1.0  0.00986  0.62658  0.63910  1.0000
  C   C1714     1.0  0.48957  0.93540  0.69334  1.0000
  H   H2791     1.0  0.02639  0.61186  0.72651  1.0000
  H   H2792     1.0  0.00013  0.64123  0.51272  1.0000
  H   H2793     1.0  0.31334  0.49235  0.66070  1.0000
  H   H2794     1.0  0.49799  0.77669  0.58553  1.0000
  C   C1715     1.0  0.49856  0.90633  0.70745  1.0000
  H   H2795     1.0  0.23433  0.98853  0.56189  1.0000
  H   H2796     1.0  0.18524  0.61432  0.48666  1.0000
  H   H2797     1.0  0.33503  0.92898  0.48580  1.0000
  H   H2798     1.0  0.46865  0.62083  0.73530  1.0000
  S   S679      1.0  0.01719  0.81513  0.90997  1.0000
  Fe  Fe340     1.0  0.03441  0.84334  0.92844  1.0000
  S   S680      1.0  0.05042  0.83073  0.90720  1.0000
  S   S681      1.0  0.04081  0.86227  0.93907  1.0000
  Fe  Fe341     1.0  0.02656  0.83905  0.89688  1.0000
  S   S682      1.0  0.02734  0.84994  0.86918  1.0000
  Fe  Fe342     1.0  0.03956  0.80790  0.92230  1.0000
  S   S683      1.0  0.05663  0.78171  0.92531  1.0000
  S   S684      1.0  0.02565  0.81978  0.94463  1.0000
  Fe  Fe343     1.0  0.11968  0.90585  0.90245  1.0000
  S   S685      1.0  0.10082  0.92960  0.90741  1.0000
  S   S686      1.0  0.11285  0.88144  0.90297  1.0000
  Fe  Fe344     1.0  0.15071  0.92201  0.89497  1.0000
  S   S687      1.0  0.13426  0.94732  0.89918  1.0000
  S   S688      1.0  0.17968  0.91412  0.89054  1.0000
  Fe  Fe345     1.0  0.11901  0.93209  0.92157  1.0000
  S   S689      1.0  0.10949  0.93659  0.94809  1.0000
  Fe  Fe346     1.0  0.11756  0.94261  0.88454  1.0000
  S   S690      1.0  0.10411  0.96323  0.86603  1.0000
  S   S691      1.0  0.13657  0.90708  0.91856  1.0000
  S   S692      1.0  0.13534  0.91856  0.87845  1.0000
  H   H2799     1.0  0.07635  0.97732  0.84853  1.0000
  S   S693      1.0  0.03755  0.93265  0.80630  1.0000
  Fe  Fe347     1.0  0.05286  0.94872  0.81087  1.0000
  S   S694      1.0  0.07944  0.93631  0.81519  1.0000
  H   H2800     1.0  0.32890  0.58794  0.96059  1.0000
  H   H2801     1.0  0.46359  0.72538  0.89479  1.0000
  H   H2802     1.0  0.08696  0.55519  0.87967  1.0000
  H   H2803     1.0  0.07133  0.84555  0.91852  1.0000
  H   H2804     1.0  0.35941  0.62824  0.97800  1.0000
  C   C1716     1.0  0.49696  0.61077  0.74875  1.0000
  H   H2805     1.0  0.05941  0.92749  0.85409  1.0000
  H   H2806     1.0  0.06040  0.67963  0.80062  1.0000
  Fe  Fe348     1.0  0.44324  0.94394  0.76177  1.0000
  S   S695      1.0  0.44505  0.91907  0.75577  1.0000
  S   S696      1.0  0.46852  0.95180  0.75594  1.0000
  Fe  Fe349     1.0  0.40452  0.94996  0.77303  1.0000
  S   S697      1.0  0.40335  0.92555  0.76766  1.0000
  S   S698      1.0  0.38106  0.96876  0.78286  1.0000
  Fe  Fe350     1.0  0.42578  0.91446  0.78008  1.0000
  S   S699      1.0  0.42930  0.88822  0.79653  1.0000
  H   H2807     1.0  0.04764  0.88563  0.87374  1.0000
  S   S700      1.0  0.42571  0.93831  0.78726  1.0000
  S   S701      1.0  0.42212  0.95784  0.74796  1.0000
  Fe  Fe351     1.0  0.37877  0.83345  0.92301  1.0000
  S   S702      1.0  0.36855  0.81782  0.91179  1.0000
  S   S703      1.0  0.37443  0.82698  0.95151  1.0000
  Fe  Fe352     1.0  0.39098  0.85533  0.88878  1.0000
  S   S704      1.0  0.38211  0.84128  0.87489  1.0000
  S   S705      1.0  0.40009  0.87958  0.87540  1.0000
  Fe  Fe353     1.0  0.35845  0.84256  0.89557  1.0000
  S   S706      1.0  0.33335  0.84887  0.88747  1.0000
  Fe  Fe354     1.0  0.39309  0.81765  0.89223  1.0000
  S   S707      1.0  0.40800  0.79476  0.88106  1.0000
  S   S708      1.0  0.36642  0.85831  0.90838  1.0000
  S   S709      1.0  0.40425  0.83163  0.90451  1.0000
  Fe  Fe355     1.0  0.25613  0.95877  0.85822  1.0000
  S   S710      1.0  0.26227  0.96224  0.88115  1.0000
  H   H2808     1.0  0.20139  0.51643  0.92568  1.0000
  Fe  Fe356     1.0  0.29418  0.95124  0.84088  1.0000
  S   S711      1.0  0.30282  0.95508  0.86234  1.0000
  S   S712      1.0  0.31399  0.94052  0.81986  1.0000
  Fe  Fe357     1.0  0.28372  0.93958  0.87851  1.0000
  S   S713      1.0  0.29070  0.92043  0.90149  1.0000
  H   H2809     1.0  0.00868  0.62149  0.85327  1.0000
  S   S714      1.0  0.27604  0.93451  0.85712  1.0000
  H   H2810     1.0  0.45974  0.52799  0.85782  1.0000
  C   C1717     1.0  0.05319  0.91740  0.86328  1.0000
  H   H2811     1.0  0.05881  0.54034  0.87618  1.0000
  C   C1718     1.0  0.49774  0.98528  0.74068  1.0000
  H   H2812     1.0  0.08468  0.88366  0.85372  1.0000
  S   S715      1.0  0.48232  0.68317  0.95397  1.0000
  H   H2813     1.0  0.08865  0.89303  0.87752  1.0000
  Fe  Fe358     1.0  0.39511  0.70113  0.90027  1.0000
  S   S716      1.0  0.40659  0.68120  0.92048  1.0000
  S   S717      1.0  0.38122  0.72626  0.90753  1.0000
  Fe  Fe359     1.0  0.40369  0.67598  0.87692  1.0000
  S   S718      1.0  0.41583  0.65459  0.89537  1.0000
  S   S719      1.0  0.40121  0.67140  0.85245  1.0000
  Fe  Fe360     1.0  0.39333  0.66392  0.91490  1.0000
  S   S720      1.0  0.37928  0.64521  0.93486  1.0000
  Fe  Fe361     1.0  0.42776  0.67401  0.89887  1.0000
  S   S721      1.0  0.45626  0.66913  0.89649  1.0000
  S   S722      1.0  0.38027  0.68438  0.89627  1.0000
  S   S723      1.0  0.41724  0.69502  0.87889  1.0000
  Fe  Fe362     1.0  0.42556  0.59222  0.81474  1.0000
  S   S724      1.0  0.40787  0.60790  0.79767  1.0000
  S   S725      1.0  0.43757  0.60092  0.83106  1.0000
  Fe  Fe363     1.0  0.42284  0.55899  0.80833  1.0000
  S   S726      1.0  0.40491  0.57186  0.79076  1.0000
  S   S727      1.0  0.43016  0.53068  0.81692  1.0000
  Fe  Fe364     1.0  0.42240  0.59036  0.77995  1.0000
  S   S728      1.0  0.43450  0.59965  0.75237  1.0000
  Fe  Fe365     1.0  0.39214  0.58799  0.81005  1.0000
  S   S729      1.0  0.36369  0.59499  0.82028  1.0000
  S   S730      1.0  0.44143  0.57604  0.79624  1.0000
  S   S731      1.0  0.40879  0.57372  0.82836  1.0000
  Fe  Fe366     1.0  0.28330  0.58954  0.92529  1.0000
  S   S732      1.0  0.29736  0.56269  0.93306  1.0000
  S   S733      1.0  0.25556  0.59982  0.92371  1.0000
  Fe  Fe367     1.0  0.31493  0.60390  0.91930  1.0000
  S   S734      1.0  0.33176  0.57845  0.92667  1.0000
  S   S735      1.0  0.32318  0.62861  0.90757  1.0000
  Fe  Fe368     1.0  0.31883  0.56982  0.91130  1.0000
  S   S736      1.0  0.33450  0.55319  0.89294  1.0000
  Fe  Fe369     1.0  0.30894  0.57372  0.94772  1.0000
  S   S737      1.0  0.30370  0.59565  0.90240  1.0000
  S   S738      1.0  0.29326  0.60001  0.94162  1.0000
  Fe  Fe370     1.0  0.08455  0.57607  0.83769  1.0000
  S   S739      1.0  0.08449  0.60273  0.82300  1.0000
  S   S740      1.0  0.10726  0.55748  0.84632  1.0000
  Fe  Fe371     1.0  0.04728  0.57900  0.83912  1.0000
  S   S741      1.0  0.04369  0.60585  0.82464  1.0000
  H   H2814     1.0  0.48458  0.58306  0.76635  1.0000
  Fe  Fe372     1.0  0.06895  0.59716  0.80787  1.0000
  S   S742      1.0  0.07371  0.60878  0.77987  1.0000
  Fe  Fe373     1.0  0.05933  0.60940  0.84083  1.0000
  S   S743      1.0  0.04910  0.63319  0.85114  1.0000
  S   S744      1.0  0.07128  0.56969  0.82100  1.0000
  S   S745      1.0  0.06063  0.58315  0.85693  1.0000
  Fe  Fe374     1.0  0.05410  0.68994  0.93141  1.0000
  S   S746      1.0  0.08042  0.69230  0.91571  1.0000
  S   S747      1.0  0.03256  0.71366  0.93249  1.0000
  Fe  Fe375     1.0  0.06700  0.65190  0.94642  1.0000
  S   S748      1.0  0.09382  0.65267  0.93227  1.0000
  S   S749      1.0  0.06460  0.62730  0.96520  1.0000
  Fe  Fe376     1.0  0.08917  0.67745  0.93954  1.0000
  S   S750      1.0  0.10553  0.68368  0.95346  1.0000
  Fe  Fe377     1.0  0.08155  0.66713  0.91034  1.0000
  S   S751      1.0  0.09377  0.65859  0.88560  1.0000
  S   S752      1.0  0.06295  0.67571  0.95532  1.0000
  S   S753      1.0  0.05459  0.66555  0.92433  1.0000
  Fe  Fe378     1.0  0.18691  0.55511  0.92208  1.0000
  S   S754      1.0  0.17231  0.54387  0.94744  1.0000
  S   S755      1.0  0.21587  0.54815  0.91690  1.0000
  Fe  Fe379     1.0  0.15459  0.56871  0.90784  1.0000
  S   S756      1.0  0.13750  0.55798  0.93187  1.0000
  S   S757      1.0  0.14317  0.58620  0.88639  1.0000
  Fe  Fe380     1.0  0.15220  0.56791  0.94429  1.0000
  S   S758      1.0  0.13841  0.58012  0.96647  1.0000
  Fe  Fe381     1.0  0.15909  0.53505  0.93271  1.0000
  S   S759      1.0  0.15797  0.50755  0.94091  1.0000
  S   S760      1.0  0.16810  0.58019  0.92028  1.0000
  S   S761      1.0  0.17481  0.54476  0.90739  1.0000
  C   C1719     1.0  0.09070  0.69606  0.96712  1.0000
  C   C1720     1.0  0.07552  0.70571  0.96237  1.0000
  H   H2815     1.0  0.06271  0.91095  0.74356  1.0000
  C   C1721     1.0  0.48625  0.65463  0.86249  1.0000
  H   H2816     1.0  0.30581  0.49140  0.89523  1.0000
  C   C1722     1.0  0.47771  0.59154  0.75648  1.0000
  C   C1723     1.0  0.08469  0.61314  0.96516  1.0000
  C   C1724     1.0  0.09623  0.61040  0.94998  1.0000
  C   C1725     1.0  0.11258  0.59976  0.95024  1.0000
  C   C1726     1.0  0.11755  0.59218  0.96566  1.0000
  H   H2817     1.0  0.24649  0.49263  0.91724  1.0000
  H   H2818     1.0  0.07724  0.51841  0.91412  1.0000
  H   H2819     1.0  0.09242  0.61633  0.93806  1.0000
  H   H2820     1.0  0.12138  0.59760  0.93853  1.0000
  H   H2821     1.0  0.42013  0.72473  0.93627  1.0000
  H   H2822     1.0  0.45581  0.55949  0.84756  1.0000
  C   C1727     1.0  0.06993  0.59833  0.76606  1.0000
  C   C1728     1.0  0.06109  0.58512  0.77222  1.0000
  C   C1729     1.0  0.05812  0.57718  0.76088  1.0000
  H   H2823     1.0  0.09878  0.64884  0.78373  1.0000
  C   C1730     1.0  0.04371  0.93148  0.75302  1.0000
  H   H2824     1.0  0.05645  0.58113  0.78568  1.0000
  H   H2825     1.0  0.05108  0.56718  0.76562  1.0000
  S   S762      1.0  0.03273  0.95832  0.83201  1.0000
  C   C1731     1.0  0.06157  0.63904  0.86169  1.0000
  C   C1732     1.0  0.07926  0.63251  0.85964  1.0000
  C   C1733     1.0  0.08903  0.63854  0.86707  1.0000
  C   C1734     1.0  0.08111  0.65066  0.87707  1.0000
  C   C1735     1.0  0.06337  0.65683  0.87946  1.0000
  C   C1736     1.0  0.05369  0.65121  0.87160  1.0000
  H   H2826     1.0  0.08547  0.62305  0.85211  1.0000
  H   H2827     1.0  0.10275  0.63376  0.86510  1.0000
  H   H2828     1.0  0.05717  0.66632  0.88695  1.0000
  H   H2829     1.0  0.04003  0.65636  0.87321  1.0000
  C   C1737     1.0  0.11689  0.56534  0.85790  1.0000
  C   C1738     1.0  0.11268  0.58259  0.85809  1.0000
  C   C1739     1.0  0.12075  0.58882  0.86700  1.0000
  C   C1740     1.0  0.13268  0.57777  0.87615  1.0000
  C   C1741     1.0  0.13646  0.56040  0.87649  1.0000
  C   C1742     1.0  0.12871  0.55422  0.86719  1.0000
  H   H2830     1.0  0.10347  0.59122  0.85111  1.0000
  H   H2831     1.0  0.11774  0.60225  0.86677  1.0000
  H   H2832     1.0  0.14573  0.55182  0.88348  1.0000
  H   H2833     1.0  0.13203  0.54086  0.86708  1.0000
  H   H2834     1.0  0.03692  0.87404  0.83878  1.0000
  H   H2835     1.0  0.07231  0.90872  0.88700  1.0000
  C   C1743     1.0  0.42562  0.59817  0.73613  1.0000
  H   H2836     1.0  0.49630  0.52827  0.83683  1.0000
  H   H2837     1.0  0.03642  0.57375  0.81353  1.0000
  H   H2838     1.0  0.37968  0.54500  0.78689  1.0000
  C   C1744     1.0  0.45910  0.90762  0.81197  1.0000
  Fe  Fe382     1.0  0.01691  0.94378  0.82617  1.0000
  C   C1745     1.0  0.14314  0.50283  0.93260  1.0000
  C   C1746     1.0  0.12682  0.51332  0.93266  1.0000
  C   C1747     1.0  0.11449  0.50831  0.92764  1.0000
  H   H2839     1.0  0.12356  0.52506  0.93695  1.0000
  H   H2840     1.0  0.10177  0.51624  0.92801  1.0000
  C   C1748     1.0  0.22667  0.56258  0.91901  1.0000
  C   C1749     1.0  0.24454  0.55804  0.91724  1.0000
  C   C1750     1.0  0.25351  0.56933  0.91879  1.0000
  C   C1751     1.0  0.24463  0.58528  0.92199  1.0000
  C   C1752     1.0  0.22677  0.58986  0.92367  1.0000
  C   C1753     1.0  0.21779  0.57851  0.92227  1.0000
  H   H2841     1.0  0.25143  0.54574  0.91471  1.0000
  H   H2842     1.0  0.26727  0.56576  0.91737  1.0000
  H   H2843     1.0  0.21985  0.60217  0.92616  1.0000
  H   H2844     1.0  0.20403  0.58209  0.92366  1.0000
  C   C1754     1.0  0.10155  0.87722  0.95825  1.0000
  H   H2845     1.0  0.06584  0.89335  0.84510  1.0000
  C   C1755     1.0  0.35568  0.58289  0.84020  1.0000
  C   C1756     1.0  0.36501  0.56699  0.84688  1.0000
  C   C1757     1.0  0.35840  0.55785  0.86301  1.0000
  C   C1758     1.0  0.34254  0.56464  0.87260  1.0000
  C   C1759     1.0  0.33312  0.58038  0.86573  1.0000
  C   C1760     1.0  0.33964  0.58944  0.84960  1.0000
  H   H2846     1.0  0.37718  0.56159  0.83955  1.0000
  H   H2847     1.0  0.36567  0.54558  0.86810  1.0000
  H   H2848     1.0  0.32057  0.58540  0.87258  1.0000
  H   H2849     1.0  0.33221  0.60157  0.84439  1.0000
  C   C1761     1.0  0.36458  0.63936  0.92703  1.0000
  C   C1762     1.0  0.36270  0.64621  0.91035  1.0000
  C   C1763     1.0  0.34994  0.64284  0.90458  1.0000
  C   C1764     1.0  0.33946  0.63192  0.91517  1.0000
  C   C1765     1.0  0.34187  0.62423  0.93159  1.0000
  C   C1766     1.0  0.35429  0.62813  0.93758  1.0000
  H   H2850     1.0  0.37095  0.65428  0.90189  1.0000
  H   H2851     1.0  0.34817  0.64882  0.89187  1.0000
  H   H2852     1.0  0.33385  0.61573  0.93983  1.0000
  H   H2853     1.0  0.35585  0.62259  0.95040  1.0000
  C   C1767     1.0  0.41200  0.65205  0.84623  1.0000
  C   C1768     1.0  0.40791  0.64812  0.83283  1.0000
  C   C1769     1.0  0.41581  0.63256  0.82797  1.0000
  C   C1770     1.0  0.42790  0.62082  0.83643  1.0000
  C   C1771     1.0  0.43228  0.62488  0.84958  1.0000
  C   C1772     1.0  0.42433  0.64042  0.85448  1.0000
  H   H2854     1.0  0.39854  0.65713  0.82625  1.0000
  H   H2855     1.0  0.41258  0.62974  0.81760  1.0000
  H   H2856     1.0  0.44167  0.61589  0.85614  1.0000
  H   H2857     1.0  0.42775  0.64339  0.86463  1.0000
  C   C1773     1.0  0.47557  0.67792  0.93844  1.0000
  C   C1774     1.0  0.45879  0.67566  0.94161  1.0000
  C   C1775     1.0  0.45278  0.67267  0.92887  1.0000
  C   C1776     1.0  0.46365  0.67175  0.91302  1.0000
  C   C1777     1.0  0.48060  0.67350  0.91005  1.0000
  C   C1778     1.0  0.48653  0.67667  0.92272  1.0000
  H   H2858     1.0  0.45034  0.67646  0.95384  1.0000
  H   H2859     1.0  0.43979  0.67105  0.93133  1.0000
  H   H2860     1.0  0.48905  0.67283  0.89779  1.0000
  S   S763      1.0  0.42916  0.49238  0.76236  1.0000
  H   H2861     1.0  0.46415  0.56807  0.82577  1.0000
  C   C1779     1.0  0.43265  0.51908  0.77263  1.0000
  C   C1780     1.0  0.43269  0.52779  0.78465  1.0000
  C   C1781     1.0  0.42971  0.52005  0.80184  1.0000
  H   H2862     1.0  0.34772  0.93436  0.75842  1.0000
  H   H2863     1.0  0.36606  0.93477  0.76548  1.0000
  H   H2864     1.0  0.43519  0.52507  0.75932  1.0000
  H   H2865     1.0  0.43531  0.54041  0.78058  1.0000
  H   H2866     1.0  0.07186  0.50773  0.90125  1.0000
  C   C1782     1.0  0.02704  0.88084  0.84743  1.0000
  H   H2867     1.0  0.04343  0.91548  0.85757  1.0000
  C   C1783     1.0  0.40071  0.77564  0.88857  1.0000
  C   C1784     1.0  0.38851  0.77299  0.90367  1.0000
  C   C1785     1.0  0.38270  0.75776  0.90929  1.0000
  C   C1786     1.0  0.38922  0.74495  0.90001  1.0000
  C   C1787     1.0  0.40161  0.74746  0.88500  1.0000
  C   C1788     1.0  0.40729  0.76281  0.87927  1.0000
  H   H2868     1.0  0.38370  0.78257  0.91115  1.0000
  H   H2869     1.0  0.37320  0.75583  0.92099  1.0000
  H   H2870     1.0  0.40659  0.73771  0.87768  1.0000
  H   H2871     1.0  0.41675  0.76480  0.86756  1.0000
  C   C1789     1.0  0.38354  0.83731  0.96126  1.0000
  H   H2872     1.0  0.07108  0.88163  0.98003  1.0000
  C   C1790     1.0  0.02113  0.89841  0.84244  1.0000
  H   H2873     1.0  0.30155  0.54302  0.89644  1.0000
  C   C1791     1.0  0.40409  0.85347  0.96028  1.0000
  C   C1792     1.0  0.39615  0.84641  0.95194  1.0000
  H   H2874     1.0  0.44543  0.78558  0.97998  1.0000
  C   C1793     1.0  0.29460  0.53302  0.89744  1.0000
  H   H2875     1.0  0.41406  0.86026  0.95304  1.0000
  H   H2876     1.0  0.40000  0.84774  0.93835  1.0000
  C   C1794     1.0  0.32016  0.86794  0.89244  1.0000
  C   C1795     1.0  0.32101  0.87335  0.90644  1.0000
  C   C1796     1.0  0.31141  0.88924  0.90948  1.0000
  C   C1797     1.0  0.30120  0.89993  0.89834  1.0000
  C   C1798     1.0  0.29997  0.89430  0.88462  1.0000
  C   C1799     1.0  0.30925  0.87823  0.88182  1.0000
  H   H2877     1.0  0.32902  0.86529  0.91499  1.0000
  H   H2878     1.0  0.31223  0.89343  0.92025  1.0000
  H   H2879     1.0  0.29187  0.90231  0.87616  1.0000
  H   H2880     1.0  0.30836  0.87401  0.87110  1.0000
  C   C1800     1.0  0.42002  0.88618  0.81822  1.0000
  C   C1801     1.0  0.41935  0.86999  0.82839  1.0000
  C   C1802     1.0  0.41302  0.86787  0.84594  1.0000
  C   C1803     1.0  0.40775  0.88192  0.85343  1.0000
  C   C1804     1.0  0.40860  0.89811  0.84329  1.0000
  C   C1805     1.0  0.41436  0.90030  0.82567  1.0000
  H   H2881     1.0  0.42381  0.85901  0.82270  1.0000
  H   H2882     1.0  0.41267  0.85531  0.85371  1.0000
  H   H2883     1.0  0.40474  0.90899  0.84908  1.0000
  H   H2884     1.0  0.41485  0.91284  0.81794  1.0000
  C   C1806     1.0  0.36297  0.96052  0.79490  1.0000
  C   C1807     1.0  0.36306  0.94337  0.79721  1.0000
  C   C1808     1.0  0.34798  0.93736  0.80506  1.0000
  C   C1809     1.0  0.33292  0.94827  0.81145  1.0000
  C   C1810     1.0  0.33304  0.96523  0.81006  1.0000
  C   C1811     1.0  0.34800  0.97140  0.80157  1.0000
  H   H2885     1.0  0.37460  0.93478  0.79259  1.0000
  H   H2886     1.0  0.34795  0.92424  0.80606  1.0000
  H   H2887     1.0  0.48691  0.62043  0.75484  1.0000
  H   H2888     1.0  0.13486  0.65586  0.97871  1.0000
  H   H2889     1.0  0.06650  0.87624  0.88235  1.0000
  H   H2890     1.0  0.07380  0.70661  0.94991  1.0000
  H   H2891     1.0  0.05027  0.89237  0.89124  1.0000
  H   H2892     1.0  0.37339  0.49632  0.78596  1.0000
  H   H2893     1.0  0.46812  0.63825  0.84064  1.0000
  C   C1812     1.0  0.07090  0.51458  0.80809  1.0000
  C   C1813     1.0  0.47691  0.94715  0.77410  1.0000
  C   C1814     1.0  0.46600  0.94873  0.78980  1.0000
  C   C1815     1.0  0.47280  0.94490  0.80425  1.0000
  H   H2894     1.0  0.09257  0.65660  0.81188  1.0000
  H   H2895     1.0  0.04859  0.92953  0.76423  1.0000
  H   H2896     1.0  0.45233  0.95319  0.79077  1.0000
  H   H2897     1.0  0.46433  0.94622  0.81637  1.0000
  H   H2898     1.0  0.08516  0.91473  0.86632  1.0000
  H   H2899     1.0  0.28965  0.50767  0.88653  1.0000
  H   H2900     1.0  0.08180  0.90525  0.84206  1.0000
  C   C1816     1.0  0.12313  0.94174  0.97189  1.0000
  H   H2901     1.0  0.41835  0.71995  0.90935  1.0000
  H   H2902     1.0  0.41364  0.81322  0.97392  1.0000
  C   C1817     1.0  0.19297  0.92882  0.88043  1.0000
  C   C1818     1.0  0.18611  0.94594  0.87448  1.0000
  C   C1819     1.0  0.19701  0.95746  0.86728  1.0000
  C   C1820     1.0  0.21479  0.95198  0.86609  1.0000
  C   C1821     1.0  0.22163  0.93488  0.87211  1.0000
  C   C1822     1.0  0.21075  0.92333  0.87918  1.0000
  H   H2903     1.0  0.17243  0.95027  0.87537  1.0000
  H   H2904     1.0  0.23200  0.49108  0.93744  1.0000
  H   H2905     1.0  0.23532  0.93053  0.87120  1.0000
  H   H2906     1.0  0.21613  0.91010  0.88376  1.0000
  C   C1823     1.0  0.12228  0.94591  0.95480  1.0000
  C   C1824     1.0  0.13157  0.95747  0.94335  1.0000
  C   C1825     1.0  0.14189  0.96460  0.94894  1.0000
  H   H2907     1.0  0.48315  0.88279  0.79953  1.0000
  C   C1826     1.0  0.38208  0.53112  0.79245  1.0000
  C   C1827     1.0  0.45883  0.55722  0.83453  1.0000
  H   H2908     1.0  0.13063  0.96106  0.93022  1.0000
  H   H2909     1.0  0.14893  0.97366  0.94008  1.0000
  H   H2910     1.0  0.05667  0.49298  0.80084  1.0000
  H   H2911     1.0  0.14484  0.54446  0.98241  1.0000
  C   C1828     1.0  0.09727  0.95573  0.85189  1.0000
  C   C1829     1.0  0.10597  0.94035  0.84718  1.0000
  C   C1830     1.0  0.10059  0.93467  0.83568  1.0000
  C   C1831     1.0  0.08625  0.94413  0.82909  1.0000
  C   C1832     1.0  0.07748  0.95947  0.83384  1.0000
  C   C1833     1.0  0.08311  0.96537  0.84504  1.0000
  H   H2912     1.0  0.11710  0.93300  0.85206  1.0000
  H   H2913     1.0  0.10756  0.92288  0.83192  1.0000
  H   H2914     1.0  0.06651  0.96690  0.82872  1.0000
  C   C1834     1.0  0.42593  0.49513  0.79500  1.0000
  C   C1835     1.0  0.04930  0.76346  0.92641  1.0000
  C   C1836     1.0  0.03188  0.76347  0.92896  1.0000
  C   C1837     1.0  0.02676  0.74826  0.93063  1.0000
  C   C1838     1.0  0.03900  0.73297  0.92975  1.0000
  C   C1839     1.0  0.05632  0.73324  0.92689  1.0000
  C   C1840     1.0  0.06143  0.74828  0.92533  1.0000
  H   H2915     1.0  0.02240  0.77512  0.92978  1.0000
  H   H2916     1.0  0.01333  0.74840  0.93255  1.0000
  H   H2917     1.0  0.06591  0.72186  0.92580  1.0000
  H   H2918     1.0  0.07493  0.74812  0.92321  1.0000
  H   H2919     1.0  0.33952  0.97160  0.74140  1.0000
  N   N181      1.0  0.48937  0.60042  0.74233  1.0000
  C   C1841     1.0  0.02018  0.87205  0.86352  1.0000
  H   H2920     1.0  0.08355  0.63823  0.82169  1.0000
  H   H2921     1.0  0.23513  0.50023  0.89091  1.0000
  C   C1842     1.0  0.06063  0.86798  0.92874  1.0000
  C   C1843     1.0  0.06376  0.88315  0.93007  1.0000
  C   C1844     1.0  0.07965  0.88767  0.92199  1.0000
  C   C1845     1.0  0.09253  0.87684  0.91285  1.0000
  C   C1846     1.0  0.08933  0.86178  0.91151  1.0000
  C   C1847     1.0  0.07344  0.85739  0.91936  1.0000
  H   H2922     1.0  0.05385  0.89144  0.93725  1.0000
  H   H2923     1.0  0.08198  0.89941  0.92287  1.0000
  H   H2924     1.0  0.09927  0.85335  0.90448  1.0000
  S   S764      1.0  0.02499  0.56624  0.84983  1.0000
  C   C1848     1.0  0.36225  0.91527  0.84554  1.0000
  N   N182      1.0  0.30669  0.51671  0.89549  1.0000
  H   H2925     1.0  0.03991  0.50787  0.82408  1.0000
  H   H2926     1.0  0.14007  0.51029  0.98071  1.0000
  H   H2927     1.0  0.38193  0.65443  0.96767  1.0000
  C   C1849     1.0  0.00487  0.61015  0.86258  1.0000
  N   N183      1.0  0.36264  0.95230  0.74209  1.0000
  H   H2928     1.0  0.08452  0.77490  0.98184  1.0000
  H   H2929     1.0  0.48990  0.65070  0.87502  1.0000
  H   H2930     1.0  0.32583  0.49877  0.90786  1.0000
  H   H2931     1.0  0.34985  0.52628  0.79977  1.0000
  C   C1850     1.0  0.11207  0.64109  0.97464  1.0000
  C   C1851     1.0  0.07497  0.89565  0.85133  1.0000
  Fe  Fe383     1.0  0.00394  0.82865  0.93119  1.0000
  C   C1852     1.0  0.07239  0.53327  0.87351  1.0000
  Fe  Fe384     1.0  0.02377  0.97945  0.81129  1.0000
  N   N184      1.0  0.07377  0.65391  0.80005  1.0000
  C   C1853     1.0  0.07003  0.67208  0.79184  1.0000
  C   C1854     1.0  0.08656  0.64432  0.78800  1.0000
  C   C1855     1.0  0.05782  0.64745  0.80520  1.0000
  H   H2932     1.0  0.06482  0.67412  0.78041  1.0000
  H   H2933     1.0  0.08180  0.67738  0.78779  1.0000
  H   H2934     1.0  0.08968  0.63054  0.79376  1.0000
  H   H2935     1.0  0.08169  0.64537  0.77659  1.0000
  H   H2936     1.0  0.06025  0.63384  0.81148  1.0000
  H   H2937     1.0  0.05237  0.64860  0.79413  1.0000
  H   H2938     1.0  0.04788  0.65425  0.81442  1.0000
  H   H2939     1.0  0.07110  0.65860  0.82468  1.0000
  H   H2940     1.0  0.07169  0.50219  0.81735  1.0000
  H   H2941     1.0  0.38532  0.93283  0.73714  1.0000
  H   H2942     1.0  0.11439  0.88469  0.98108  1.0000
  H   H2943     1.0  0.01465  0.59883  0.85928  1.0000
  Fe  Fe385     1.0  0.02779  0.95598  0.78800  1.0000
  C   C1856     1.0  0.00725  0.88089  0.87455  1.0000
  S   S765      1.0  0.00578  0.96591  0.80767  1.0000
  H   H2944     1.0  0.37873  0.51766  0.75909  1.0000
  C   C1857     1.0  0.02000  0.56446  0.80397  1.0000
  H   H2945     1.0  0.07249  0.52100  0.87077  1.0000
  H   H2946     1.0  0.45407  0.91796  0.81911  1.0000
  H   H2947     1.0  0.08670  0.54563  0.90148  1.0000
  C   C1858     1.0  0.10590  0.59464  0.98081  1.0000
  H   H2948     1.0  0.46696  0.60068  0.76263  1.0000
  S   S766      1.0  0.01127  0.85323  0.91697  1.0000
  H   H2949     1.0  0.36674  0.91361  0.83224  1.0000
  H   H2950     1.0  0.07915  0.54076  0.86172  1.0000
  N   N185      1.0  0.37315  0.61442  0.86438  1.0000
  C   C1859     1.0  0.35581  0.61390  0.87507  1.0000
  C   C1860     1.0  0.37177  0.62269  0.84674  1.0000
  C   C1861     1.0  0.38346  0.59694  0.86492  1.0000
  C   C1862     1.0  0.38153  0.62410  0.87077  1.0000
  H   H2951     1.0  0.34920  0.60644  0.87083  1.0000
  H   H2952     1.0  0.34761  0.62688  0.87473  1.0000
  H   H2953     1.0  0.35627  0.60801  0.88856  1.0000
  H   H2954     1.0  0.36492  0.61607  0.84177  1.0000
  H   H2955     1.0  0.36469  0.63614  0.84569  1.0000
  H   H2956     1.0  0.38463  0.62262  0.83817  1.0000
  H   H2957     1.0  0.39668  0.59689  0.85702  1.0000
  H   H2958     1.0  0.37756  0.58936  0.86002  1.0000
  H   H2959     1.0  0.38463  0.59024  0.87806  1.0000
  H   H2960     1.0  0.39493  0.62402  0.86352  1.0000
  H   H2961     1.0  0.38200  0.61874  0.88432  1.0000
  H   H2962     1.0  0.37465  0.63763  0.86970  1.0000
  H   H2963     1.0  0.45786  0.62913  0.87184  1.0000
  H   H2964     1.0  0.49808  0.65668  0.85274  1.0000
  S   S767      1.0  0.00028  0.55092  0.79226  1.0000
  H   H2965     1.0  0.11850  0.55547  0.97037  1.0000
  C   C1863     1.0  0.05167  0.92098  0.74132  1.0000
  H   H2966     1.0  0.00462  0.85677  0.95175  1.0000
  H   H2967     1.0  0.02810  0.52323  0.80956  1.0000
  H   H2968     1.0  0.28548  0.53182  0.90997  1.0000
  H   H2969     1.0  0.03896  0.53002  0.82142  1.0000
  H   H2970     1.0  0.41983  0.74874  0.91187  1.0000
  H   H2971     1.0  0.08290  0.51361  0.79810  1.0000
  N   N186      1.0  0.07566  0.76123  0.96892  1.0000
  H   H2972     1.0  0.45097  0.52672  0.84104  1.0000
  H   H2973     1.0  0.43733  0.70345  0.90870  1.0000
  N   N187      1.0  0.06597  0.90151  0.86716  1.0000
  H   H2974     1.0  0.12105  0.51828  0.97219  1.0000
  N   N188      1.0  0.46866  0.89227  0.82171  1.0000
  S   S768      1.0  0.04526  0.97108  0.79038  1.0000
  C   C1864     1.0  0.37884  0.50361  0.79169  1.0000
  H   H2975     1.0  0.46736  0.91255  0.79970  1.0000
  C   C1865     1.0  0.08944  0.60487  0.98058  1.0000
  H   H2976     1.0  0.43775  0.74918  0.89416  1.0000
  C   C1866     1.0  0.47385  0.64764  0.84312  1.0000
  C   C1867     1.0  0.05719  0.88837  0.87913  1.0000
  N   N189      1.0  0.37519  0.52193  0.78402  1.0000
  N   N190      1.0  0.35067  0.90384  0.85575  1.0000
  C   C1868     1.0  0.34604  0.90566  0.87352  1.0000
  C   C1869     1.0  0.35939  0.88607  0.85502  1.0000
  C   C1870     1.0  0.33498  0.90835  0.84899  1.0000
  H   H2977     1.0  0.35572  0.92882  0.84516  1.0000
  H   H2978     1.0  0.33750  0.89706  0.88155  1.0000
  H   H2979     1.0  0.35761  0.90239  0.87902  1.0000
  H   H2980     1.0  0.33911  0.91880  0.87471  1.0000
  H   H2981     1.0  0.37122  0.88225  0.86015  1.0000
  H   H2982     1.0  0.36321  0.88417  0.84181  1.0000
  H   H2983     1.0  0.35096  0.87712  0.86264  1.0000
  H   H2984     1.0  0.32620  0.89965  0.85595  1.0000
  H   H2985     1.0  0.33800  0.90773  0.83542  1.0000
  H   H2986     1.0  0.32768  0.92143  0.85000  1.0000
  N   N191      1.0  0.43998  0.72636  0.91360  1.0000
  C   C1871     1.0  0.06420  0.58217  0.74337  1.0000
  C   C1872     1.0  0.43404  0.74488  0.90815  1.0000
  H   H2987     1.0  0.11772  0.89960  0.96110  1.0000
  H   H2988     1.0  0.41695  0.79152  0.97265  1.0000
  H   H2989     1.0  0.35315  0.54209  0.78055  1.0000
  H   H2990     1.0  0.32788  0.50690  0.87684  1.0000
  C   C1873     1.0  0.31649  0.51097  0.90901  1.0000
  H   H2991     1.0  0.28691  0.53771  0.88750  1.0000
  C   C1874     1.0  0.05915  0.75886  0.96747  1.0000
  C   C1875     1.0  0.34555  0.52209  0.97655  1.0000
  H   H2992     1.0  0.00019  0.72779  0.95654  1.0000
  H   H2993     1.0  0.09873  0.74586  0.97667  1.0000
  C   C1876     1.0  0.06228  0.71370  0.97381  1.0000
  C   C1877     1.0  0.07294  0.59544  0.73722  1.0000
  H   H2994     1.0  0.43995  0.72755  0.93882  1.0000
  H   H2995     1.0  0.06643  0.53493  0.77792  1.0000
  H   H2996     1.0  0.11091  0.88116  0.94637  1.0000
  H   H2997     1.0  0.34785  0.98467  0.79991  1.0000
  H   H2998     1.0  0.22103  0.51893  0.89742  1.0000
  H   H2999     1.0  0.32512  0.51009  0.96484  1.0000
  H   H3000     1.0  0.38935  0.63203  0.96977  1.0000
  C   C1878     1.0  0.00315  0.55576  0.83778  1.0000
  N   N192      1.0  0.13788  0.63098  0.89979  1.0000
  C   C1879     1.0  0.15330  0.62296  0.88866  1.0000
  C   C1880     1.0  0.12328  0.62348  0.90103  1.0000
  C   C1881     1.0  0.13376  0.64938  0.89259  1.0000
  C   C1882     1.0  0.14120  0.62811  0.91684  1.0000
  H   H3001     1.0  0.16440  0.62875  0.88683  1.0000
  H   H3002     1.0  0.15089  0.62405  0.87598  1.0000
  H   H3003     1.0  0.15723  0.60920  0.89401  1.0000
  H   H3004     1.0  0.11121  0.62970  0.90869  1.0000
  H   H3005     1.0  0.12079  0.62480  0.88833  1.0000
  H   H3006     1.0  0.12566  0.60972  0.90696  1.0000
  H   H3007     1.0  0.12219  0.65592  0.90063  1.0000
  H   H3008     1.0  0.13095  0.65194  0.87982  1.0000
  H   H3009     1.0  0.14448  0.65548  0.89136  1.0000
  H   H3010     1.0  0.14434  0.61433  0.92261  1.0000
  H   H3011     1.0  0.12976  0.63393  0.92555  1.0000
  H   H3012     1.0  0.15212  0.63360  0.91641  1.0000
  H   H3013     1.0  0.10558  0.51981  0.89364  1.0000
  H   H3014     1.0  0.49231  0.90108  0.81284  1.0000
  C   C1883     1.0  0.46302  0.52684  0.84439  1.0000
  H   H3015     1.0  0.44622  0.88273  0.83614  1.0000
  H   H3016     1.0  0.07451  0.90329  0.95333  1.0000
  H   H3017     1.0  0.47696  0.66705  0.86229  1.0000
  H   H3018     1.0  0.08021  0.91696  0.96311  1.0000
  N   N193      1.0  0.09409  0.89103  0.96762  1.0000
  H   H3019     1.0  0.47177  0.58367  0.75197  1.0000
  H   H3020     1.0  0.38082  0.53833  0.75951  1.0000
  C   C1884     1.0  0.22233  0.50511  0.89851  1.0000
  H   H3021     1.0  0.08699  0.76058  0.94278  1.0000
  H   H3022     1.0  0.47180  0.51428  0.84353  1.0000
  C   C1885     1.0  0.33593  0.59254  0.98150  1.0000
  H   H3023     1.0  0.11567  0.93308  0.98081  1.0000
  H   H3024     1.0  0.19166  0.97067  0.86258  1.0000
  C   C1886     1.0  0.08536  0.90602  0.95674  1.0000
  H   H3025     1.0  0.49785  0.66084  0.97974  1.0000
  H   H3026     1.0  0.47955  0.90636  0.83236  1.0000
  C   C1887     1.0  0.08603  0.74467  0.97572  1.0000
  H   H3027     1.0  0.37326  0.50111  0.80554  1.0000
  H   H3028     1.0  0.44799  0.90497  0.80899  1.0000
  S   S769      1.0  0.22802  0.96686  0.85715  1.0000
  C   C1888     1.0  0.37253  0.96377  0.74373  1.0000
  C   C1889     1.0  0.49171  0.62560  0.85990  1.0000
  H   H3029     1.0  0.09952  0.50847  0.88179  1.0000
  C   C1890     1.0  0.07140  0.52052  0.90309  1.0000
  H   H3030     1.0  0.06686  0.55444  0.89440  1.0000
  H   H3031     1.0  0.34736  0.95158  0.76742  1.0000
  C   C1891     1.0  0.41003  0.59315  0.73981  1.0000
  H   H3032     1.0  0.31169  0.52329  0.86828  1.0000
  H   H3033     1.0  0.13840  0.52917  0.96444  1.0000
  C   C1892     1.0  0.45891  0.72183  0.90874  1.0000
  H   H3034     1.0  0.10593  0.52820  0.87162  1.0000
  N   N194      1.0  0.47092  0.54083  0.83305  1.0000
  C   C1893     1.0  0.49051  0.93935  0.80309  1.0000
  H   H3035     1.0  0.43598  0.72139  0.89135  1.0000
  H   H3036     1.0  0.32142  0.97373  0.81490  1.0000
  C   C1894     1.0  0.09869  0.52138  0.88351  1.0000
  C   C1895     1.0  0.09309  0.69532  0.98318  1.0000
  S   S770      1.0  0.99971  0.92906  0.84713  1.0000
  C   C1896     1.0  0.37862  0.83564  0.97887  1.0000
  H   H3037     1.0  0.09791  0.76993  0.95245  1.0000
  H   H3038     1.0  0.48139  0.54884  0.80650  1.0000
  H   H3039     1.0  0.46319  0.53931  0.81120  1.0000
  H   H3040     1.0  0.48512  0.64975  0.83259  1.0000
  H   H3041     1.0  0.28783  0.50175  0.90912  1.0000
  H   H3042     1.0  0.36444  0.97292  0.75169  1.0000
  C   C1897     1.0  0.14330  0.95987  0.96589  1.0000
  C   C1898     1.0  0.48361  0.89631  0.82487  1.0000
  H   H3043     1.0  0.35179  0.51841  0.96419  1.0000
  H   H3044     1.0  0.32389  0.52045  0.90847  1.0000
  C   C1899     1.0  0.32806  0.58449  0.97410  1.0000
  H   H3045     1.0  0.39287  0.49829  0.78987  1.0000
  H   H3046     1.0  0.49131  0.88501  0.83202  1.0000
  H   H3047     1.0  0.10268  0.90621  0.97915  1.0000
  C   C1900     1.0  0.13383  0.94850  0.97741  1.0000
  H   H3048     1.0  0.30787  0.50904  0.92180  1.0000
  H   H3049     1.0  0.31270  0.52767  0.97421  1.0000
  H   H3050     1.0  0.48664  0.61554  0.85781  1.0000
  S   S771      1.0  0.30943  0.56173  0.97506  1.0000
  H   H3051     1.0  0.09149  0.87345  0.95452  1.0000
  C   C1901     1.0  0.49466  0.94189  0.77288  1.0000
  H   H3052     1.0  0.44647  0.55771  0.83147  1.0000
  C   C1902     1.0  0.03995  0.52005  0.81457  1.0000
  S   S772      1.0  0.01902  0.95801  0.76425  1.0000
  H   H3053     1.0  0.04471  0.50842  0.78653  1.0000
  H   H3054     1.0  0.05489  0.54562  0.79478  1.0000
  N   N195      1.0  0.18733  0.93113  0.93108  1.0000
  C   C1903     1.0  0.18350  0.93353  0.94861  1.0000
  C   C1904     1.0  0.20200  0.93882  0.92088  1.0000
  C   C1905     1.0  0.17214  0.93940  0.92365  1.0000
  C   C1906     1.0  0.19166  0.91282  0.93116  1.0000
  H   H3055     1.0  0.17217  0.92831  0.95656  1.0000
  H   H3056     1.0  0.18050  0.94721  0.94894  1.0000
  H   H3057     1.0  0.19453  0.92720  0.95480  1.0000
  H   H3058     1.0  0.20502  0.93749  0.90751  1.0000
  H   H3059     1.0  0.19923  0.95262  0.92066  1.0000
  H   H3060     1.0  0.21379  0.93270  0.92594  1.0000
  H   H3061     1.0  0.17447  0.93781  0.91051  1.0000
  H   H3062     1.0  0.16865  0.95326  0.92315  1.0000
  H   H3063     1.0  0.16081  0.93390  0.93099  1.0000
  H   H3064     1.0  0.19503  0.91061  0.91806  1.0000
  H   H3065     1.0  0.18066  0.90673  0.93824  1.0000
  H   H3066     1.0  0.20284  0.90606  0.93702  1.0000
  N   N196      1.0  0.34735  0.79903  0.88047  1.0000
  C   C1907     1.0  0.34216  0.79847  0.89886  1.0000
  C   C1908     1.0  0.35313  0.78155  0.87758  1.0000
  C   C1909     1.0  0.36153  0.80810  0.87288  1.0000
  C   C1910     1.0  0.33258  0.80808  0.87258  1.0000
  H   H3067     1.0  0.33135  0.79189  0.90500  1.0000
  H   H3068     1.0  0.33793  0.81148  0.90147  1.0000
  H   H3069     1.0  0.35294  0.79162  0.90527  1.0000
  H   H3070     1.0  0.35690  0.78149  0.86385  1.0000
  H   H3071     1.0  0.36453  0.77456  0.88305  1.0000
  H   H3072     1.0  0.34293  0.77414  0.88352  1.0000
  H   H3073     1.0  0.35745  0.82147  0.87434  1.0000
  H   H3074     1.0  0.36623  0.80829  0.85912  1.0000
  H   H3075     1.0  0.37264  0.80205  0.87897  1.0000
  H   H3076     1.0  0.33607  0.80901  0.85866  1.0000
  H   H3077     1.0  0.32788  0.82128  0.87472  1.0000
  H   H3078     1.0  0.32164  0.80158  0.87793  1.0000
  N   N197      1.0  0.47883  0.64175  0.85968  1.0000
  C   C1911     1.0  0.45734  0.88639  0.83805  1.0000
  S   S773      1.0  0.27351  0.97510  0.83971  1.0000
  H   H3079     1.0  0.08837  0.73548  0.96753  1.0000
  H   H3080     1.0  0.21262  0.50368  0.89242  1.0000
  H   H3081     1.0  0.37617  0.52940  0.80623  1.0000
  C   C1912     1.0  0.00111  0.89840  0.86943  1.0000
  H   H3082     1.0  0.46349  0.87561  0.80921  1.0000
  H   H3083     1.0  0.05769  0.52691  0.90655  1.0000
  H   H3084     1.0  0.00580  0.93196  0.79409  1.0000
  C   C1913     1.0  0.07234  0.77280  0.98047  1.0000
  H   H3085     1.0  0.08254  0.61376  0.74365  1.0000
  H   H3086     1.0  0.09437  0.91029  0.94476  1.0000
  C   C1914     1.0  0.38525  0.64236  0.97693  1.0000
  H   H3087     1.0  0.46413  0.65982  0.84258  1.0000
  H   H3088     1.0  0.49580  0.62092  0.87222  1.0000
  C   C1915     1.0  0.43259  0.71742  0.90538  1.0000
  N   N198      1.0  0.08068  0.53060  0.88777  1.0000
  H   H3089     1.0  0.49323  0.55081  0.82947  1.0000
  H   H3090     1.0  0.46665  0.63534  0.88597  1.0000
  C   C1916     1.0  0.46352  0.63912  0.87322  1.0000
  C   C1917     1.0  0.13102  0.52206  0.97605  1.0000
  C   C1918     1.0  0.08154  0.88541  0.98307  1.0000
  H   H3091     1.0  0.10086  0.54502  0.97887  1.0000
  H   H3092     1.0  0.40875  0.89647  0.97537  1.0000
  H   H3093     1.0  0.46379  0.70795  0.91271  1.0000
  C   C1919     1.0  0.20293  0.50278  0.92582  1.0000
  H   H3094     1.0  0.39618  0.52656  0.79119  1.0000
  H   H3095     1.0  0.48439  0.54202  0.85109  1.0000
  C   C1920     1.0  0.47497  0.53877  0.81539  1.0000
  C   C1921     1.0  0.38341  0.52465  0.76580  1.0000
  C   C1922     1.0  0.47455  0.87879  0.81191  1.0000
  H   H3096     1.0  0.34274  0.60223  0.97366  1.0000
  H   H3097     1.0  0.19264  0.50184  0.92019  1.0000
  C   C1923     1.0  0.07570  0.60355  0.74852  1.0000
  H   H3098     1.0  0.48171  0.86694  0.81891  1.0000
  C   C1924     1.0  0.05504  0.53536  0.78865  1.0000
  C   C1925     1.0  0.43436  0.72131  0.93217  1.0000
  C   C1926     1.0  0.05619  0.50561  0.79205  1.0000
  H   H3099     1.0  0.05162  0.75344  0.97997  1.0000
  C   C1927     1.0  0.08024  0.54718  0.89101  1.0000
  H   H3100     1.0  0.01679  0.59237  0.75321  1.0000
  H   H3101     1.0  0.42406  0.49770  0.82032  1.0000
  H   H3102     1.0  0.35221  0.65078  0.97534  1.0000
  H   H3103     1.0  0.46498  0.72823  0.91478  1.0000
  H   H3104     1.0  0.36687  0.92649  0.97245  1.0000
  C   C1928     1.0  0.29703  0.50384  0.89670  1.0000
  C   C1929     1.0  0.42919  0.50280  0.77778  1.0000
  H   H3105     1.0  0.40323  0.59001  0.75281  1.0000
  C   C1930     1.0  0.00806  0.90722  0.85339  1.0000
  H   H3106     1.0  0.48379  0.52637  0.81390  1.0000
  H   H3107     1.0  0.35084  0.52157  0.77993  1.0000
  C   C1931     1.0  0.31951  0.51418  0.97708  1.0000
  H   H3108     1.0  0.45212  0.89645  0.84555  1.0000
  H   H3109     1.0  0.33946  0.53583  0.97379  1.0000
  C   C1932     1.0  0.02950  0.94449  0.75010  1.0000
  C   C1933     1.0  0.00605  0.55669  0.80808  1.0000
  H   H3110     1.0  0.02642  0.56799  0.79088  1.0000
  C   C1934     1.0  0.35562  0.94285  0.75907  1.0000
  C   C1935     1.0  0.13750  0.62208  0.98286  1.0000
  H   H3111     1.0  0.06117  0.75006  0.95899  1.0000
  N   N199      1.0  0.05553  0.51889  0.80085  1.0000
  H   H3112     1.0  0.00572  0.61115  0.87523  1.0000
  C   C1936     1.0  0.35643  0.52828  0.78614  1.0000
  H   H3113     1.0  0.05043  0.72077  0.97001  1.0000
  H   H3114     1.0  0.00162  0.87423  0.88684  1.0000
  C   C1937     1.0  0.08058  0.65179  0.81517  1.0000
  Fe  Fe386     1.0  0.28052  0.97741  0.86271  1.0000
  S   S774      1.0  0.15738  0.96803  0.97211  1.0000
  H   H3115     1.0  0.05109  0.77106  0.96211  1.0000
  C   C1938     1.0  0.23335  0.49788  0.92393  1.0000
  C   C1939     1.0  0.00588  0.85355  0.98373  1.0000
  C   C1940     1.0  0.07854  0.90464  0.87483  1.0000
  N   N200      1.0  0.22012  0.49583  0.91638  1.0000
  H   H3116     1.0  0.04337  0.53918  0.78324  1.0000
  H   H3117     1.0  0.37379  0.91276  0.85085  1.0000
  N   N201      1.0  0.27021  0.64813  0.90429  1.0000
  C   C1941     1.0  0.25168  0.65260  0.90442  1.0000
  C   C1942     1.0  0.27913  0.63634  0.89285  1.0000
  C   C1943     1.0  0.27272  0.63988  0.92160  1.0000
  C   C1944     1.0  0.27736  0.66357  0.89834  1.0000
  H   H3118     1.0  0.24448  0.66142  0.91300  1.0000
  H   H3119     1.0  0.24607  0.64106  0.90889  1.0000
  H   H3120     1.0  0.24926  0.65880  0.89155  1.0000
  H   H3121     1.0  0.27744  0.64208  0.87968  1.0000
  H   H3122     1.0  0.29317  0.63274  0.89241  1.0000
  H   H3123     1.0  0.27414  0.62447  0.89707  1.0000
  H   H3124     1.0  0.28659  0.63619  0.92196  1.0000
  H   H3125     1.0  0.26745  0.62818  0.92650  1.0000
  H   H3126     1.0  0.26623  0.64841  0.93059  1.0000
  H   H3127     1.0  0.27096  0.67278  0.90667  1.0000
  H   H3128     1.0  0.27583  0.67009  0.88525  1.0000
  H   H3129     1.0  0.29136  0.66044  0.89823  1.0000
  H   H3130     1.0  0.38340  0.95661  0.74987  1.0000
  C   C1945     1.0  0.01739  0.56314  0.83369  1.0000
  C   C1946     1.0  0.48687  0.54047  0.83786  1.0000
  C   C1947     1.0  0.42640  0.50369  0.80700  1.0000
  H   H3131     1.0  0.02637  0.90497  0.82996  1.0000
  H   H3132     1.0  0.43839  0.70740  0.93670  1.0000
  H   H3133     1.0  0.38641  0.91582  0.96060  1.0000
  H   H3134     1.0  0.10841  0.86575  0.96600  1.0000
  H   H3135     1.0  0.07074  0.52433  0.81487  1.0000
  C   C1948     1.0  0.31866  0.51900  0.87879  1.0000
  H   H3136     1.0  0.32623  0.52860  0.87744  1.0000
  H   H3137     1.0  0.40920  0.91322  0.98468  1.0000
  C   C1949     1.0  0.02563  0.56776  0.81676  1.0000
  H   H3138     1.0  0.06448  0.78540  0.97571  1.0000
  H   H3139     1.0  0.39760  0.52012  0.76378  1.0000
  H   H3140     1.0  0.04627  0.92237  0.87486  1.0000
  H   H3141     1.0  0.06776  0.50440  0.78159  1.0000
  H   H3142     1.0  0.13402  0.61103  0.98073  1.0000
  C   C1950     1.0  0.08508  0.76859  0.95203  1.0000
  H   H3143     1.0  0.43953  0.75205  0.91393  1.0000
  H   H3144     1.0  0.02398  0.57503  0.74266  1.0000
  H   H3145     1.0  0.38671  0.93260  0.96995  1.0000
  H   H3146     1.0  0.20055  0.49594  0.93929  1.0000
  C   C1951     1.0  0.35601  0.63892  0.98463  1.0000
  Fe  Fe387     1.0  0.42263  0.93244  0.74382  1.0000
  H   H3147     1.0  0.00690  0.82354  0.87525  1.0000
  H   H3148     1.0  0.11967  0.64710  0.96246  1.0000
  C   C1952     1.0  0.41209  0.80036  0.98148  1.0000
  H   H3149     1.0  0.45338  0.65098  0.87308  1.0000
  H   H3150     1.0  0.46428  0.87509  0.84593  1.0000
  H   H3151     1.0  0.07791  0.78140  0.94679  1.0000
  H   H3152     1.0  0.23249  0.51149  0.92341  1.0000
  H   H3153     1.0  0.10793  0.63063  0.97219  1.0000
  H   H3154     1.0  0.01024  0.86540  0.98222  1.0000
  H   H3155     1.0  0.39650  0.64295  0.98134  1.0000
  C   C1953     1.0  0.11859  0.49293  0.92241  1.0000
  C   C1954     1.0  0.10786  0.89553  0.97242  1.0000
  C   C1955     1.0  0.39943  0.85148  0.97793  1.0000
  H   H3156     1.0  0.44185  0.80734  0.98133  1.0000
  H   H3157     1.0  0.38147  0.88817  0.97881  1.0000
  H   H3158     1.0  0.14589  0.62744  0.97091  1.0000
  H   H3159     1.0  0.01669  0.84500  0.97690  1.0000
  H   H3160     1.0  0.49841  0.97405  0.75141  1.0000
  H   H3161     1.0  0.10031  0.65081  0.97812  1.0000
  C   C1956     1.0  0.38086  0.92156  0.97194  1.0000
  C   C1957     1.0  0.11167  0.54800  0.98211  1.0000
  C   C1958     1.0  0.31927  0.57194  0.98416  1.0000
  H   H3162     1.0  0.30966  0.50665  0.98432  1.0000
  H   H3163     1.0  0.35578  0.52062  0.98338  1.0000
  C   C1959     1.0  0.01287  0.58547  0.74581  1.0000
  H   H3164     1.0  0.00223  0.57952  0.75429  1.0000
  S   S775      1.0  0.49862  0.93376  0.82150  1.0000
  H   H3165     1.0  0.48164  0.91809  0.73553  1.0000
  C   C1960     1.0  0.02322  0.94688  0.73557  1.0000
  H   H3166     1.0  0.58010  0.05795  0.13400  1.0000
  Fe  Fe388     1.0  0.88827  0.06639  0.14227  1.0000
  S   S776      1.0  0.86251  0.07504  0.15844  1.0000
  S   S777      1.0  0.90061  0.03914  0.14059  1.0000
  Fe  Fe389     1.0  0.89425  0.10233  0.12833  1.0000
  S   S778      1.0  0.86906  0.11368  0.14342  1.0000
  S   S779      1.0  0.91277  0.11824  0.11105  1.0000
  Fe  Fe390     1.0  0.87548  0.09208  0.16480  1.0000
  S   S780      1.0  0.86902  0.09799  0.19080  1.0000
  Fe  Fe391     1.0  0.85865  0.09580  0.13553  1.0000
  S   S781      1.0  0.83324  0.10557  0.12770  1.0000
  S   S782      1.0  0.90164  0.08193  0.15031  1.0000
  S   S783      1.0  0.88348  0.08590  0.11882  1.0000
  Fe  Fe392     1.0  0.80066  0.13660  0.01176  1.0000
  S   S784      1.0  0.78375  0.15854  0.02269  1.0000
  C   C1961     1.0  0.82524  0.39828  0.99603  1.0000
  Fe  Fe393     1.0  0.81012  0.11763  0.04516  1.0000
  S   S785      1.0  0.79386  0.13803  0.05878  1.0000
  S   S786      1.0  0.82798  0.09547  0.05780  1.0000
  Fe  Fe394     1.0  0.77423  0.13871  0.04459  1.0000
  S   S787      1.0  0.74589  0.14456  0.05655  1.0000
  Fe  Fe395     1.0  0.80482  0.15585  0.03571  1.0000
  S   S788      1.0  0.81231  0.17894  0.03788  1.0000
  S   S789      1.0  0.78966  0.11670  0.03270  1.0000
  S   S790      1.0  0.82254  0.13546  0.02305  1.0000
  Fe  Fe396     1.0  0.89379  0.20920  0.06730  1.0000
  S   S791      1.0  0.91441  0.19368  0.05075  1.0000
  S   S792      1.0  0.88487  0.19762  0.09479  1.0000
  Fe  Fe397     1.0  0.88645  0.23858  0.03771  1.0000
  S   S793      1.0  0.90606  0.22478  0.01908  1.0000
  S   S794      1.0  0.87362  0.26441  0.02483  1.0000
  Fe  Fe398     1.0  0.89557  0.20188  0.03378  1.0000
  S   S795      1.0  0.89059  0.18258  0.02248  1.0000
  Fe  Fe399     1.0  0.92269  0.21832  0.03788  1.0000
  S   S796      1.0  0.94861  0.22511  0.02698  1.0000
  S   S797      1.0  0.87453  0.21612  0.05104  1.0000
  S   S798      1.0  0.90356  0.23329  0.05591  1.0000
  H   H3167     1.0  0.67239  0.46652  0.08308  1.0000
  C   C1962     1.0  0.67579  0.06840  0.05000  1.0000
  C   C1963     1.0  0.59247  0.48055  0.11478  1.0000
  H   H3168     1.0  0.89559  0.12773  0.05070  1.0000
  H   H3169     1.0  0.68163  0.06200  0.03917  1.0000
  H   H3170     1.0  0.58509  0.42431  0.11255  1.0000
  S   S799      1.0  0.63838  0.01622  0.06419  1.0000
  H   H3171     1.0  0.97597  0.18554  0.07192  1.0000
  H   H3172     1.0  0.52123  0.32717  0.03225  1.0000
  H   H3173     1.0  0.87267  0.13389  0.17533  1.0000
  H   H3174     1.0  0.51428  0.23220  0.09933  1.0000
  Fe  Fe400     1.0  0.53000  0.16888  0.16715  1.0000
  S   S800      1.0  0.53174  0.14508  0.15894  1.0000
  S   S801      1.0  0.53346  0.19327  0.14851  1.0000
  Fe  Fe401     1.0  0.52686  0.15126  0.20453  1.0000
  S   S802      1.0  0.52855  0.12605  0.19926  1.0000
  H   H3175     1.0  0.61411  0.45970  0.11170  1.0000
  Fe  Fe402     1.0  0.54934  0.13306  0.17692  1.0000
  S   S803      1.0  0.57403  0.11465  0.16983  1.0000
  H   H3176     1.0  0.51952  0.18749  0.99982  1.0000
  C   C1964     1.0  0.87637  0.14507  0.16560  1.0000
  S   S804      1.0  0.54916  0.15714  0.18358  1.0000
  H   H3177     1.0  0.92036  0.16177  0.03381  1.0000
  Fe  Fe403     1.0  0.51789  0.24228  0.02627  1.0000
  S   S805      1.0  0.53781  0.25624  0.02499  1.0000
  H   H3178     1.0  0.73196  0.46125  0.02295  1.0000
  Fe  Fe404     1.0  0.51189  0.23099  0.06454  1.0000
  S   S806      1.0  0.53069  0.24501  0.06628  1.0000
  H   H3179     1.0  0.94889  0.46905  0.14872  1.0000
  Fe  Fe405     1.0  0.51935  0.26608  0.04684  1.0000
  H   H3180     1.0  0.82529  0.46784  0.10084  1.0000
  Fe  Fe406     1.0  0.54729  0.23385  0.04432  1.0000
  S   S807      1.0  0.57516  0.22410  0.04544  1.0000
  H   H3181     1.0  0.88965  0.11462  0.23169  1.0000
  S   S808      1.0  0.52914  0.21873  0.04349  1.0000
  Fe  Fe407     1.0  0.66238  0.11732  0.06418  1.0000
  S   S809      1.0  0.64290  0.10742  0.05767  1.0000
  S   S810      1.0  0.69010  0.10862  0.05124  1.0000
  Fe  Fe408     1.0  0.63559  0.13408  0.09077  1.0000
  S   S811      1.0  0.61429  0.12529  0.08663  1.0000
  S   S812      1.0  0.62693  0.14974  0.11048  1.0000
  Fe  Fe409     1.0  0.63303  0.10053  0.08568  1.0000
  S   S813      1.0  0.62580  0.07600  0.10137  1.0000
  Fe  Fe410     1.0  0.62591  0.13321  0.05915  1.0000
  S   S814      1.0  0.60731  0.14700  0.04217  1.0000
  S   S815      1.0  0.65354  0.10863  0.09226  1.0000
  S   S816      1.0  0.64620  0.14380  0.06321  1.0000
  C   C1965     1.0  0.57674  0.13829  0.22057  1.0000
  S   S817      1.0  0.53577  0.46226  0.15335  1.0000
  H   H3182     1.0  0.70414  0.45500  0.09799  1.0000
  H   H3183     1.0  0.93640  0.44149  0.18213  1.0000
  H   H3184     1.0  0.51140  0.36229  0.00908  1.0000
  S   S818      1.0  0.50787  0.47481  0.19686  1.0000
  C   C1966     1.0  0.51623  0.47729  0.21299  1.0000
  Fe  Fe411     1.0  0.66770  0.46807  0.03039  1.0000
  S   S819      1.0  0.69654  0.46168  0.02621  1.0000
  Fe  Fe412     1.0  0.63623  0.45249  0.04352  1.0000
  Fe  Fe413     1.0  0.52072  0.47907  0.13427  1.0000
  S   S820      1.0  0.62624  0.42960  0.05947  1.0000
  Fe  Fe414     1.0  0.52192  0.48142  0.16955  1.0000
  S   S821      1.0  0.65506  0.45518  0.01851  1.0000
  S   S822      1.0  0.65039  0.46302  0.05599  1.0000
  Fe  Fe415     1.0  0.53927  0.38832  0.08320  1.0000
  S   S823      1.0  0.53702  0.40712  0.05889  1.0000
  S   S824      1.0  0.53518  0.39561  0.10814  1.0000
  Fe  Fe416     1.0  0.54768  0.35791  0.06666  1.0000
  S   S825      1.0  0.54632  0.37441  0.04088  1.0000
  S   S826      1.0  0.55260  0.32928  0.07296  1.0000
  Fe  Fe417     1.0  0.56068  0.38990  0.04762  1.0000
  S   S827      1.0  0.58112  0.40184  0.02813  1.0000
  Fe  Fe418     1.0  0.52284  0.38999  0.05463  1.0000
  H   H3185     1.0  0.56677  0.17372  0.99259  1.0000
  S   S828      1.0  0.56409  0.37209  0.07234  1.0000
  S   S829      1.0  0.52317  0.37239  0.07995  1.0000
  C   C1967     1.0  0.69766  0.44534  0.09717  1.0000
  C   C1968     1.0  0.55978  0.19481  0.09565  1.0000
  C   C1969     1.0  0.75723  0.13671  0.00947  1.0000
  H   H3186     1.0  0.50161  0.41422  0.07937  1.0000
  H   H3187     1.0  0.85817  0.39981  0.98917  1.0000
  H   H3188     1.0  0.93761  0.40259  0.10353  1.0000
  H   H3189     1.0  0.70546  0.43260  0.10165  1.0000
  Fe  Fe419     1.0  0.92667  0.45614  0.10337  1.0000
  S   S830      1.0  0.91729  0.43841  0.12730  1.0000
  S   S831      1.0  0.95513  0.45379  0.09499  1.0000
  H   H3190     1.0  0.99225  0.10892  0.20269  1.0000
  S   S832      1.0  0.87836  0.45683  0.12138  1.0000
  H   H3191     1.0  0.59918  0.99069  0.13212  1.0000
  Fe  Fe420     1.0  0.89740  0.46142  0.13327  1.0000
  H   H3192     1.0  0.91080  0.29034  0.04985  1.0000
  Fe  Fe421     1.0  0.89953  0.43564  0.11274  1.0000
  S   S833      1.0  0.89457  0.41057  0.11249  1.0000
  H   H3193     1.0  0.87860  0.99615  0.19322  1.0000
  S   S834      1.0  0.91050  0.45175  0.08832  1.0000
  Fe  Fe422     1.0  0.85613  0.38603  0.03164  1.0000
  S   S835      1.0  0.87820  0.39652  0.01429  1.0000
  S   S836      1.0  0.82962  0.40216  0.03758  1.0000
  Fe  Fe423     1.0  0.87803  0.35031  0.03865  1.0000
  S   S837      1.0  0.90191  0.35819  0.02160  1.0000
  S   S838      1.0  0.87915  0.32373  0.05451  1.0000
  Fe  Fe424     1.0  0.89315  0.38077  0.03376  1.0000
  S   S839      1.0  0.91068  0.39330  0.04015  1.0000
  Fe  Fe425     1.0  0.88447  0.37311  0.00394  1.0000
  S   S840      1.0  0.87050  0.37192  0.05205  1.0000
  S   S841      1.0  0.86117  0.36355  0.02009  1.0000
  H   H3194     1.0  0.96583  0.10502  0.22499  1.0000
  S   S842      1.0  0.98266  0.46174  0.15466  1.0000
  S   S843      1.0  0.50746  0.16557  0.18880  1.0000
  C   C1970     1.0  0.50540  0.37952  0.02578  1.0000
  C   C1971     1.0  0.89583  0.45980  0.17580  1.0000
  C   C1972     1.0  0.90122  0.44217  0.17820  1.0000
  C   C1973     1.0  0.90455  0.43248  0.19393  1.0000
  C   C1974     1.0  0.94936  0.39498  0.09664  1.0000
  C   C1975     1.0  0.50689  0.20839  0.10416  1.0000
  H   H3195     1.0  0.51409  0.17567  0.13766  1.0000
  H   H3196     1.0  0.90254  0.43599  0.16805  1.0000
  H   H3197     1.0  0.90847  0.41882  0.19581  1.0000
  H   H3198     1.0  0.81948  0.41127  0.99844  1.0000
  H   H3199     1.0  0.75840  0.12274  0.01236  1.0000
  C   C1976     1.0  0.96294  0.45567  0.11160  1.0000
  C   C1977     1.0  0.98054  0.45080  0.11133  1.0000
  C   C1978     1.0  0.98673  0.45237  0.12465  1.0000
  C   C1979     1.0  0.97534  0.45916  0.13804  1.0000
  C   C1980     1.0  0.95776  0.46392  0.13834  1.0000
  C   C1981     1.0  0.95155  0.46199  0.12525  1.0000
  H   H3200     1.0  0.98938  0.44582  0.10084  1.0000
  C   C1982     1.0  0.68524  0.46449  0.07442  1.0000
  H   H3201     1.0  0.85186  0.37349  0.98666  1.0000
  Fe  Fe426     1.0  0.55417  0.47972  0.14177  1.0000
  C   C1983     1.0  0.89928  0.40546  0.09249  1.0000
  C   C1984     1.0  0.91138  0.41235  0.07909  1.0000
  C   C1985     1.0  0.91484  0.40839  0.06317  1.0000
  C   C1986     1.0  0.90623  0.39749  0.06049  1.0000
  C   C1987     1.0  0.89432  0.39032  0.07394  1.0000
  C   C1988     1.0  0.89092  0.39423  0.08993  1.0000
  H   H3202     1.0  0.91836  0.42046  0.08102  1.0000
  H   H3203     1.0  0.92419  0.41385  0.05286  1.0000
  H   H3204     1.0  0.88793  0.38155  0.07213  1.0000
  H   H3205     1.0  0.88175  0.38861  0.10032  1.0000
  C   C1989     1.0  0.81617  0.45652  0.00759  1.0000
  C   C1990     1.0  0.80371  0.44912  0.02004  1.0000
  C   C1991     1.0  0.80802  0.43241  0.02905  1.0000
  C   C1992     1.0  0.82479  0.42292  0.02559  1.0000
  C   C1993     1.0  0.83717  0.43012  0.01276  1.0000
  C   C1994     1.0  0.83285  0.44689  0.00371  1.0000
  H   H3206     1.0  0.79065  0.45621  0.02263  1.0000
  H   H3207     1.0  0.79831  0.42687  0.03880  1.0000
  H   H3208     1.0  0.85010  0.42294  0.00990  1.0000
  H   H3209     1.0  0.95923  0.40261  0.20799  1.0000
  C   C1995     1.0  0.60812  0.47241  0.10611  1.0000
  C   C1996     1.0  0.71286  0.44567  0.06820  1.0000
  C   C1997     1.0  0.54544  0.99354  0.11875  1.0000
  C   C1998     1.0  0.99419  0.21465  0.04043  1.0000
  H   H3210     1.0  0.50624  0.28346  0.01284  1.0000
  H   H3211     1.0  0.98883  0.40128  0.07409  1.0000
  H   H3212     1.0  0.57130  0.46647  0.07322  1.0000
  C   C1999     1.0  0.50141  0.37119  0.01549  1.0000
  H   H3213     1.0  0.51318  0.45664  0.08831  1.0000
  S   S844      1.0  0.80531  0.48121  0.07564  1.0000
  H   H3214     1.0  0.58356  0.14808  0.22037  1.0000
  H   H3215     1.0  0.56758  0.99530  0.14152  1.0000
  H   H3216     1.0  0.60315  0.12432  0.18600  1.0000
  H   H3217     1.0  0.58946  0.18306  0.10670  1.0000
  H   H3218     1.0  0.55096  0.46191  0.10134  1.0000
  C   C2000     1.0  0.74330  0.16416  0.99586  1.0000
  C   C2001     1.0  0.89506  0.01091  0.13451  1.0000
  S   S845      1.0  0.81106  0.47801  0.99755  1.0000
  H   H3219     1.0  0.97896  0.44039  0.18856  1.0000
  H   H3220     1.0  0.87465  0.07153  0.23284  1.0000
  Fe  Fe427     1.0  0.63826  0.48100  0.01247  1.0000
  C   C2002     1.0  0.61395  0.42199  0.05042  1.0000
  C   C2003     1.0  0.61290  0.42819  0.03344  1.0000
  C   C2004     1.0  0.60296  0.42180  0.02658  1.0000
  C   C2005     1.0  0.59367  0.40961  0.03681  1.0000
  C   C2006     1.0  0.59460  0.40361  0.05381  1.0000
  C   C2007     1.0  0.60495  0.40958  0.06052  1.0000
  H   H3221     1.0  0.61987  0.43775  0.02557  1.0000
  H   H3222     1.0  0.60235  0.42640  0.01341  1.0000
  H   H3223     1.0  0.58766  0.39411  0.06174  1.0000
  H   H3224     1.0  0.60588  0.40461  0.07360  1.0000
  C   C2008     1.0  0.51206  0.23057  0.99242  1.0000
  H   H3225     1.0  0.73355  0.17148  0.98829  1.0000
  C   C2009     1.0  0.53728  0.48572  0.22232  1.0000
  H   H3226     1.0  0.56095  0.40884  0.00220  1.0000
  C   C2010     1.0  0.88489  0.00002  0.13443  1.0000
  H   H3227     1.0  0.68558  0.43579  0.06595  1.0000
  C   C2011     1.0  0.52284  0.43802  0.12678  1.0000
  C   C2012     1.0  0.52829  0.42114  0.12490  1.0000
  C   C2013     1.0  0.52843  0.41699  0.10982  1.0000
  C   C2014     1.0  0.52311  0.42986  0.09656  1.0000
  C   C2015     1.0  0.51739  0.44673  0.09855  1.0000
  C   C2016     1.0  0.99264  0.20147  0.05474  1.0000
  H   H3228     1.0  0.53236  0.41123  0.13521  1.0000
  H   H3229     1.0  0.52331  0.42684  0.08485  1.0000
  C   C2017     1.0  0.83869  0.05355  0.08429  1.0000
  H   H3230     1.0  0.58617  0.42241  0.99227  1.0000
  H   H3231     1.0  0.54852  0.16864  0.11847  1.0000
  H   H3232     1.0  0.94544  0.39118  0.08681  1.0000
  H   H3233     1.0  0.95691  0.41787  0.17144  1.0000
  H   H3234     1.0  0.55691  0.99931  0.11465  1.0000
  C   C2018     1.0  0.52360  0.30412  0.05142  1.0000
  C   C2019     1.0  0.52587  0.32063  0.04366  1.0000
  C   C2020     1.0  0.53436  0.32866  0.05045  1.0000
  C   C2021     1.0  0.54075  0.32011  0.06494  1.0000
  C   C2022     1.0  0.53836  0.30362  0.07276  1.0000
  C   C2023     1.0  0.52979  0.29563  0.06602  1.0000
  H   H3235     1.0  0.55305  0.07895  0.12990  1.0000
  H   H3236     1.0  0.53627  0.34132  0.04426  1.0000
  H   H3237     1.0  0.54317  0.29705  0.08408  1.0000
  H   H3238     1.0  0.52778  0.28299  0.07222  1.0000
  C   C2024     1.0  0.58404  0.20277  0.04413  1.0000
  C   C2025     1.0  0.59931  0.19461  0.04961  1.0000
  C   C2026     1.0  0.60641  0.17746  0.04923  1.0000
  C   C2027     1.0  0.59857  0.16849  0.04288  1.0000
  C   C2028     1.0  0.58346  0.17675  0.03708  1.0000
  C   C2029     1.0  0.57611  0.19381  0.03786  1.0000
  H   H3239     1.0  0.60560  0.20151  0.05433  1.0000
  H   H3240     1.0  0.61810  0.17126  0.05362  1.0000
  H   H3241     1.0  0.57735  0.16988  0.03215  1.0000
  H   H3242     1.0  0.56447  0.20005  0.03339  1.0000
  H   H3243     1.0  0.62806  0.47416  0.08363  1.0000
  H   H3244     1.0  0.59005  0.09865  0.10620  1.0000
  C   C2030     1.0  0.72432  0.47221  0.02794  1.0000
  H   H3245     1.0  0.58419  0.14072  0.18688  1.0000
  C   C2031     1.0  0.83129  0.03400  0.11077  1.0000
  C   C2032     1.0  0.58902  0.12451  0.15381  1.0000
  C   C2033     1.0  0.60349  0.11457  0.14531  1.0000
  C   C2034     1.0  0.61514  0.12229  0.13193  1.0000
  C   C2035     1.0  0.61283  0.13997  0.12763  1.0000
  C   C2036     1.0  0.59874  0.14989  0.13660  1.0000
  C   C2037     1.0  0.58662  0.14219  0.14937  1.0000
  H   H3246     1.0  0.60562  0.10090  0.14890  1.0000
  H   H3247     1.0  0.62610  0.11456  0.12513  1.0000
  H   H3248     1.0  0.59698  0.16355  0.13341  1.0000
  H   H3249     1.0  0.57549  0.15000  0.15577  1.0000
  C   C2038     1.0  0.52244  0.19912  0.13206  1.0000
  C   C2039     1.0  0.52250  0.21504  0.12116  1.0000
  C   C2040     1.0  0.51463  0.21971  0.10733  1.0000
  C   C2041     1.0  0.88982  0.99313  0.18285  1.0000
  C   C2042     1.0  0.67972  0.04179  0.07029  1.0000
  H   H3250     1.0  0.81457  0.39220  0.99701  1.0000
  H   H3251     1.0  0.52858  0.22382  0.12347  1.0000
  S   S846      1.0  0.90799  0.47939  0.10999  1.0000
  H   H3252     1.0  0.71195  0.44612  0.05514  1.0000
  H   H3253     1.0  0.94447  0.41947  0.21711  1.0000
  H   H3254     1.0  0.89664  0.15317  0.18100  1.0000
  H   H3255     1.0  0.68518  0.03472  0.05991  1.0000
  C   C2043     1.0  0.67496  0.06813  0.07897  1.0000
  H   H3256     1.0  0.59763  0.10972  0.23284  1.0000
  H   H3257     1.0  0.82972  0.02493  0.10410  1.0000
  H   H3258     1.0  0.51572  0.21075  0.01444  1.0000
  C   C2044     1.0  0.63391  0.03280  0.07479  1.0000
  C   C2045     1.0  0.63303  0.04951  0.06538  1.0000
  C   C2046     1.0  0.63026  0.06291  0.07347  1.0000
  C   C2047     1.0  0.62844  0.05962  0.09100  1.0000
  C   C2048     1.0  0.62899  0.04297  0.10045  1.0000
  C   C2049     1.0  0.63177  0.02956  0.09237  1.0000
  H   H3259     1.0  0.63452  0.05207  0.05179  1.0000
  H   H3260     1.0  0.62945  0.07576  0.06615  1.0000
  H   H3261     1.0  0.62757  0.04035  0.11403  1.0000
  H   H3262     1.0  0.63244  0.01669  0.09970  1.0000
  C   C2050     1.0  0.96353  0.20296  0.05255  1.0000
  H   H3263     1.0  0.69467  0.42141  0.08296  1.0000
  N   N202      1.0  0.95876  0.42750  0.19193  1.0000
  H   H3264     1.0  0.50081  0.18364  0.11282  1.0000
  H   H3265     1.0  0.59551  0.44186  0.10653  1.0000
  C   C2051     1.0  0.89953  0.15809  0.14750  1.0000
  H   H3266     1.0  0.91590  0.12595  0.03579  1.0000
  H   H3267     1.0  0.84255  0.45255  0.99407  1.0000
  H   H3268     1.0  0.56933  0.15515  0.11973  1.0000
  S   S847      1.0  0.61815  0.47710  0.03630  1.0000
  C   C2052     1.0  0.97726  0.19568  0.06081  1.0000
  Fe  Fe428     1.0  0.63797  0.99004  0.08057  1.0000
  H   H3269     1.0  0.52260  0.44103  0.13855  1.0000
  C   C2053     1.0  0.95015  0.41495  0.20508  1.0000
  H   H3270     1.0  0.75411  0.14078  0.02168  1.0000
  H   H3271     1.0  0.51842  0.37708  0.02716  1.0000
  Fe  Fe429     1.0  0.63353  0.48795  0.04703  1.0000
  C   C2054     1.0  0.87344  0.28128  0.03354  1.0000
  C   C2055     1.0  0.87286  0.29763  0.02331  1.0000
  C   C2056     1.0  0.87415  0.31095  0.02971  1.0000
  C   C2057     1.0  0.87576  0.30796  0.04644  1.0000
  C   C2058     1.0  0.87582  0.29172  0.05678  1.0000
  C   C2059     1.0  0.87473  0.27839  0.05034  1.0000
  H   H3272     1.0  0.87180  0.29993  0.01032  1.0000
  H   H3273     1.0  0.87412  0.32345  0.02166  1.0000
  H   H3274     1.0  0.87698  0.28938  0.06976  1.0000
  H   H3275     1.0  0.87494  0.26587  0.05837  1.0000
  H   H3276     1.0  0.95172  0.19843  0.05727  1.0000
  C   C2060     1.0  0.73077  0.13371  0.05575  1.0000
  C   C2061     1.0  0.71328  0.14036  0.06141  1.0000
  C   C2062     1.0  0.70073  0.13259  0.06034  1.0000
  C   C2063     1.0  0.70560  0.11814  0.05351  1.0000
  C   C2064     1.0  0.72311  0.11133  0.04801  1.0000
  C   C2065     1.0  0.73569  0.11903  0.04923  1.0000
  H   H3277     1.0  0.70939  0.15165  0.06656  1.0000
  H   H3278     1.0  0.68728  0.13790  0.06466  1.0000
  H   H3279     1.0  0.72696  0.10007  0.04283  1.0000
  H   H3280     1.0  0.74915  0.11362  0.04516  1.0000
  C   C2066     1.0  0.83414  0.17992  0.03260  1.0000
  C   C2067     1.0  0.84717  0.16625  0.02821  1.0000
  C   C2068     1.0  0.86447  0.16725  0.02483  1.0000
  C   C2069     1.0  0.86882  0.18184  0.02600  1.0000
  C   C2070     1.0  0.85576  0.19557  0.03016  1.0000
  C   C2071     1.0  0.83851  0.19459  0.03348  1.0000
  H   H3281     1.0  0.84397  0.15490  0.02746  1.0000
  H   H3282     1.0  0.87445  0.15669  0.02129  1.0000
  H   H3283     1.0  0.85889  0.20712  0.03042  1.0000
  H   H3284     1.0  0.82849  0.20529  0.03671  1.0000
  Fe  Fe430     1.0  0.51069  0.14066  0.18202  1.0000
  H   H3285     1.0  0.67410  0.43553  0.08743  1.0000
  C   C2072     1.0  0.91522  0.09474  0.20053  1.0000
  C   C2073     1.0  0.90258  0.09316  0.19322  1.0000
  H   H3286     1.0  0.95361  0.38323  0.10582  1.0000
  H   H3287     1.0  0.90625  0.08710  0.18258  1.0000
  C   C2074     1.0  0.90476  0.14027  0.10669  1.0000
  C   C2075     1.0  0.91630  0.15111  0.09990  1.0000
  C   C2076     1.0  0.91022  0.16875  0.09606  1.0000
  C   C2077     1.0  0.89258  0.17561  0.09922  1.0000
  C   C2078     1.0  0.88103  0.16478  0.10617  1.0000
  C   C2079     1.0  0.88711  0.14713  0.10971  1.0000
  H   H3288     1.0  0.92997  0.14588  0.09756  1.0000
  H   H3289     1.0  0.91918  0.17709  0.09079  1.0000
  H   H3290     1.0  0.86737  0.17009  0.10860  1.0000
  H   H3291     1.0  0.87812  0.13888  0.11455  1.0000
  C   C2080     1.0  0.82949  0.09881  0.07694  1.0000
  C   C2081     1.0  0.84561  0.09588  0.08067  1.0000
  C   C2082     1.0  0.84692  0.09816  0.09614  1.0000
  C   C2083     1.0  0.83210  0.10291  0.10810  1.0000
  C   C2084     1.0  0.81600  0.10587  0.10431  1.0000
  C   C2085     1.0  0.81469  0.10395  0.08871  1.0000
  H   H3292     1.0  0.85709  0.09201  0.07151  1.0000
  H   H3293     1.0  0.85937  0.09618  0.09878  1.0000
  H   H3294     1.0  0.80448  0.10957  0.11351  1.0000
  H   H3295     1.0  0.80219  0.10605  0.08596  1.0000
  C   C2086     1.0  0.88747  0.02618  0.13992  1.0000
  C   C2087     1.0  0.86966  0.03050  0.14532  1.0000
  C   C2088     1.0  0.85950  0.01957  0.14535  1.0000
  H   H3296     1.0  0.86372  0.04215  0.14970  1.0000
  H   H3297     1.0  0.84573  0.02291  0.14971  1.0000
  N   N203      1.0  0.96303  0.40473  0.08905  1.0000
  C   C2089     1.0  0.90203  0.14167  0.17553  1.0000
  H   H3298     1.0  0.68497  0.44670  0.10620  1.0000
  H   H3299     1.0  0.93796  0.46556  0.12565  1.0000
  H   H3300     1.0  0.89880  0.13064  0.18569  1.0000
  C   C2090     1.0  0.68715  0.43445  0.07904  1.0000
  H   H3301     1.0  0.61015  0.12486  0.21990  1.0000
  S   S848      1.0  0.85389  0.99137  0.13934  1.0000
  H   H3302     1.0  0.61175  0.46916  0.00562  1.0000
  H   H3303     1.0  0.59979  0.40175  0.99244  1.0000
  H   H3304     1.0  0.92863  0.08996  0.19538  1.0000
  N   N204      1.0  0.58096  0.27074  0.04879  1.0000
  C   C2091     1.0  0.58340  0.28720  0.04985  1.0000
  C   C2092     1.0  0.56987  0.27363  0.03677  1.0000
  C   C2093     1.0  0.57278  0.26204  0.06568  1.0000
  C   C2094     1.0  0.59780  0.26002  0.04285  1.0000
  H   H3305     1.0  0.59135  0.28557  0.05913  1.0000
  H   H3306     1.0  0.90886  0.00756  0.13024  1.0000
  H   H3307     1.0  0.56018  0.20183  0.10497  1.0000
  H   H3308     1.0  0.57553  0.28030  0.02391  1.0000
  H   H3309     1.0  0.56797  0.26142  0.03555  1.0000
  H   H3310     1.0  0.55695  0.28146  0.04095  1.0000
  H   H3311     1.0  0.57070  0.24960  0.06528  1.0000
  H   H3312     1.0  0.56005  0.26973  0.07057  1.0000
  H   H3313     1.0  0.58079  0.25959  0.07509  1.0000
  H   H3314     1.0  0.59641  0.24747  0.04197  1.0000
  H   H3315     1.0  0.60650  0.25757  0.05163  1.0000
  H   H3316     1.0  0.60429  0.26610  0.03008  1.0000
  C   C2095     1.0  0.90270  0.44037  0.20724  1.0000
  C   C2096     1.0  0.99869  0.09599  0.20849  1.0000
  H   H3317     1.0  0.59341  0.18332  0.08459  1.0000
  H   H3318     1.0  0.88657  0.00123  0.17080  1.0000
  H   H3319     1.0  0.98192  0.23183  0.02088  1.0000
  N   N205      1.0  0.56941  0.17706  0.09919  1.0000
  H   H3320     1.0  0.98200  0.41930  0.20134  1.0000
  C   C2097     1.0  0.56234  0.16857  0.11661  1.0000
  H   H3321     1.0  0.97300  0.39823  0.11159  1.0000
  H   H3322     1.0  0.56478  0.07545  0.15524  1.0000
  H   H3323     1.0  0.94527  0.42838  0.08345  1.0000
  H   H3324     1.0  0.73991  0.16883  0.00782  1.0000
  S   S849      1.0  0.90784  0.42795  0.22651  1.0000
  H   H3325     1.0  0.91132  0.11937  0.07441  1.0000
  H   H3326     1.0  0.59921  0.06525  0.13178  1.0000
  H   H3327     1.0  0.58586  0.10394  0.20305  1.0000
  H   H3328     1.0  0.91626  0.13985  0.17228  1.0000
  H   H3329     1.0  0.71925  0.45604  0.06737  1.0000
  H   H3330     1.0  0.86725  0.11185  0.21881  1.0000
  H   H3331     1.0  0.89406  0.17002  0.15225  1.0000
  H   H3332     1.0  0.53510  0.00262  0.11281  1.0000
  H   H3333     1.0  0.96656  0.43627  0.20980  1.0000
  C   C2098     1.0  0.50789  0.47263  0.22997  1.0000
  C   C2099     1.0  0.91060  0.10221  0.21459  1.0000
  S   S850      1.0  0.52421  0.15572  0.23045  1.0000
  H   H3334     1.0  0.69161  0.47473  0.07402  1.0000
  H   H3335     1.0  0.50214  0.33508  0.07423  1.0000
  C   C2100     1.0  0.83256  0.47531  0.09010  1.0000
  H   H3336     1.0  0.84876  0.04930  0.12195  1.0000
  H   H3337     1.0  0.68528  0.03429  0.08139  1.0000
  H   H3338     1.0  0.54604  0.19543  0.09638  1.0000
  C   C2101     1.0  0.58668  0.09820  0.12005  1.0000
  N   N206      1.0  0.89521  0.14315  0.16059  1.0000
  C   C2102     1.0  0.61099  0.47221  0.99248  1.0000
  C   C2103     1.0  0.51727  0.45084  0.11365  1.0000
  H   H3339     1.0  0.58978  0.29400  0.03739  1.0000
  N   N207      1.0  0.69573  0.44747  0.07972  1.0000
  H   H3340     1.0  0.95225  0.45349  0.17892  1.0000
  H   H3341     1.0  0.57277  0.17439  0.07376  1.0000
  N   N208      1.0  0.91288  0.14111  0.05373  1.0000
  C   C2104     1.0  0.92597  0.15068  0.04292  1.0000
  C   C2105     1.0  0.92086  0.12670  0.06574  1.0000
  C   C2106     1.0  0.90578  0.13470  0.04300  1.0000
  C   C2107     1.0  0.89890  0.15239  0.06324  1.0000
  H   H3342     1.0  0.93165  0.15566  0.05061  1.0000
  C   C2108     1.0  0.95675  0.42018  0.07700  1.0000
  H   H3343     1.0  0.93661  0.14263  0.03540  1.0000
  S   S851      1.0  0.78118  0.48039  0.04287  1.0000
  H   H3344     1.0  0.87082  0.14626  0.15459  1.0000
  H   H3345     1.0  0.92655  0.13112  0.07387  1.0000
  N   N209      1.0  0.84413  0.04396  0.10019  1.0000
  C   C2109     1.0  0.61600  0.48056  0.09012  1.0000
  H   H3346     1.0  0.90001  0.14530  0.03357  1.0000
  H   H3347     1.0  0.88944  0.14535  0.07246  1.0000
  H   H3348     1.0  0.89185  0.16282  0.05468  1.0000
  H   H3349     1.0  0.90397  0.15851  0.07039  1.0000
  H   H3350     1.0  0.83516  0.02635  0.12274  1.0000
  C   C2110     1.0  0.70642  0.47597  0.02999  1.0000
  H   H3351     1.0  0.95309  0.41705  0.06662  1.0000
  H   H3352     1.0  0.98359  0.38256  0.08870  1.0000
  H   H3353     1.0  0.97766  0.41738  0.09716  1.0000
  H   H3354     1.0  0.60232  0.14297  0.19311  1.0000
  H   H3355     1.0  0.59500  0.45455  0.99611  1.0000
  C   C2111     1.0  0.97215  0.43100  0.19820  1.0000
  N   N210      1.0  0.57670  0.08509  0.12946  1.0000
  S   S852      1.0  0.58252  0.46964  0.13441  1.0000
  H   H3356     1.0  0.79166  0.10973  0.99872  1.0000
  H   H3357     1.0  0.86557  0.02517  0.10794  1.0000
  C   C2112     1.0  0.86708  0.00433  0.13989  1.0000
  H   H3358     1.0  0.97527  0.39028  0.06975  1.0000
  H   H3359     1.0  0.56506  0.20175  0.08275  1.0000
  H   H3360     1.0  0.82607  0.06251  0.08675  1.0000
  H   H3361     1.0  0.93945  0.41256  0.20109  1.0000
  H   H3362     1.0  0.91366  0.15691  0.14317  1.0000
  N   N211      1.0  0.93003  0.27904  0.03073  1.0000
  C   C2113     1.0  0.92013  0.29398  0.03789  1.0000
  C   C2114     1.0  0.93893  0.26643  0.04338  1.0000
  C   C2115     1.0  0.94278  0.28435  0.01535  1.0000
  C   C2116     1.0  0.91829  0.27134  0.02630  1.0000
  H   H3363     1.0  0.92858  0.30051  0.04085  1.0000
  H   H3364     1.0  0.72148  0.43337  0.07237  1.0000
  H   H3365     1.0  0.91263  0.30349  0.02900  1.0000
  H   H3366     1.0  0.94675  0.25510  0.03830  1.0000
  H   H3367     1.0  0.94767  0.27185  0.04729  1.0000
  H   H3368     1.0  0.92961  0.26182  0.05496  1.0000
  H   H3369     1.0  0.93642  0.29391  0.00560  1.0000
  H   H3370     1.0  0.95038  0.27334  0.00962  1.0000
  H   H3371     1.0  0.95193  0.29014  0.01822  1.0000
  H   H3372     1.0  0.90859  0.26713  0.03763  1.0000
  H   H3373     1.0  0.92531  0.25997  0.02092  1.0000
  H   H3374     1.0  0.91115  0.28048  0.01693  1.0000
  N   N212      1.0  0.58798  0.12537  0.21112  1.0000
  H   H3375     1.0  0.93887  0.44826  0.19961  1.0000
  H   H3376     1.0  0.97320  0.42984  0.16624  1.0000
  C   C2117     1.0  0.60238  0.11613  0.21951  1.0000
  H   H3377     1.0  0.77982  0.09281  0.98642  1.0000
  H   H3378     1.0  0.98760  0.11701  0.23020  1.0000
  C   C2118     1.0  0.89401  0.46768  0.18909  1.0000
  C   C2119     1.0  0.60159  0.46387  0.98708  1.0000
  H   H3379     1.0  0.66171  0.06935  0.05278  1.0000
  H   H3380     1.0  0.96663  0.42800  0.07118  1.0000
  H   H3381     1.0  0.58355  0.08338  0.15283  1.0000
  S   S853      1.0  0.51254  0.29461  0.04287  1.0000
  H   H3382     1.0  0.83744  0.04498  0.07689  1.0000
  C   C2120     1.0  0.59475  0.13373  0.19354  1.0000
  H   H3383     1.0  0.66571  0.04208  0.07404  1.0000
  S   S854      1.0  0.89116  0.47249  0.15648  1.0000
  H   H3384     1.0  0.89960  0.11621  0.16306  1.0000
  C   C2121     1.0  0.90289  0.12769  0.15369  1.0000
  C   C2122     1.0  0.88525  0.09935  0.19977  1.0000
  H   H3385     1.0  0.83182  0.39101  0.00654  1.0000
  H   H3386     1.0  0.77005  0.13934  0.00262  1.0000
  H   H3387     1.0  0.53737  0.11988  0.23098  1.0000
  H   H3388     1.0  0.57955  0.11104  0.12212  1.0000
  C   C2123     1.0  0.94603  0.44339  0.18800  1.0000
  H   H3389     1.0  0.89442  0.15966  0.13612  1.0000
  C   C2124     1.0  0.51519  0.21368  0.00123  1.0000
  H   H3390     1.0  0.66080  0.06959  0.08219  1.0000
  C   C2125     1.0  0.84559  0.05594  0.10947  1.0000
  H   H3391     1.0  0.81851  0.04238  0.11425  1.0000
  H   H3392     1.0  0.89812  0.12850  0.14236  1.0000
  H   H3393     1.0  0.87009  0.15653  0.17100  1.0000
  N   N213      1.0  0.82863  0.15613  0.08491  1.0000
  C   C2126     1.0  0.82859  0.17423  0.07722  1.0000
  C   C2127     1.0  0.84087  0.14950  0.09624  1.0000
  C   C2128     1.0  0.83379  0.14640  0.07143  1.0000
  C   C2129     1.0  0.81122  0.15438  0.09471  1.0000
  H   H3394     1.0  0.82537  0.18188  0.08702  1.0000
  H   H3395     1.0  0.81896  0.17980  0.06915  1.0000
  H   H3396     1.0  0.84130  0.17601  0.06903  1.0000
  H   H3397     1.0  0.83714  0.15632  0.10678  1.0000
  H   H3398     1.0  0.84137  0.13581  0.10209  1.0000
  H   H3399     1.0  0.85408  0.15088  0.08929  1.0000
  H   H3400     1.0  0.82470  0.15092  0.06279  1.0000
  H   H3401     1.0  0.83398  0.13270  0.07678  1.0000
  H   H3402     1.0  0.84675  0.14758  0.06355  1.0000
  H   H3403     1.0  0.80176  0.15884  0.08640  1.0000
  H   H3404     1.0  0.80668  0.16185  0.10477  1.0000
  H   H3405     1.0  0.81087  0.14092  0.10101  1.0000
  H   H3406     1.0  0.88198  0.34434  0.99342  1.0000
  H   H3407     1.0  0.57484  0.38843  0.00169  1.0000
  H   H3408     1.0  0.85591  0.06291  0.10230  1.0000
  C   C2130     1.0  0.84838  0.47757  0.09099  1.0000
  H   H3409     1.0  0.56330  0.17506  0.12613  1.0000
  C   C2131     1.0  0.72726  0.14213  0.00912  1.0000
  H   H3410     1.0  0.59538  0.16354  0.09957  1.0000
  C   C2132     1.0  0.89329  0.10845  0.22111  1.0000
  H   H3411     1.0  0.83341  0.06552  0.11186  1.0000
  H   H3412     1.0  0.88108  0.24911  0.99488  1.0000
  H   H3413     1.0  0.86024  0.02289  0.08956  1.0000
  H   H3414     1.0  0.89613  0.46423  0.21484  1.0000
  C   C2133     1.0  0.96669  0.42066  0.17647  1.0000
  C   C2134     1.0  0.51430  0.18793  0.12921  1.0000
  C   C2135     1.0  0.73236  0.48232  0.03275  1.0000
  H   H3415     1.0  0.84804  0.06128  0.07599  1.0000
  H   H3416     1.0  0.91712  0.12563  0.14983  1.0000
  C   C2136     1.0  0.57199  0.08542  0.14764  1.0000
  C   C2137     1.0  0.70174  0.05821  0.06067  1.0000
  H   H3417     1.0  0.93130  0.11776  0.05906  1.0000
  N   N214      1.0  0.68305  0.05911  0.06499  1.0000
  S   S855      1.0  0.51002  0.47203  0.11586  1.0000
  H   H3418     1.0  0.57538  0.15475  0.08895  1.0000
  H   H3419     1.0  0.67798  0.08157  0.04574  1.0000
  H   H3420     1.0  0.70764  0.05147  0.07173  1.0000
  H   H3421     1.0  0.70831  0.05145  0.05018  1.0000
  H   H3422     1.0  0.70460  0.07115  0.05654  1.0000
  C   C2138     1.0  0.89751  0.45801  0.20473  1.0000
  C   C2139     1.0  0.98055  0.22180  0.03208  1.0000
  H   H3423     1.0  0.56376  0.09786  0.14990  1.0000
  H   H3424     1.0  0.97651  0.40876  0.17890  1.0000
  C   C2140     1.0  0.88064  0.10694  0.21376  1.0000
  H   H3425     1.0  0.67763  0.08106  0.07557  1.0000
  C   C2141     1.0  0.56095  0.08855  0.12301  1.0000
  H   H3426     1.0  0.57095  0.29576  0.05395  1.0000
  Fe  Fe431     1.0  0.89052  0.47307  0.09764  1.0000
  H   H3427     1.0  0.55798  0.39559  0.99012  1.0000
  C   C2142     1.0  0.97830  0.39425  0.07999  1.0000
  H   H3428     1.0  0.87090  0.03942  0.08806  1.0000
  C   C2143     1.0  0.86095  0.03236  0.09623  1.0000
  H   H3429     1.0  0.56406  0.08832  0.10931  1.0000
  H   H3430     1.0  0.59903  0.09553  0.12406  1.0000
  C   C2144     1.0  0.50664  0.19252  0.11521  1.0000
  C   C2145     1.0  0.56785  0.16807  0.08701  1.0000
  S   S856      1.0  0.92673  0.10396  0.22346  1.0000
  C   C2146     1.0  0.99424  0.10387  0.23514  1.0000
  C   C2147     1.0  0.58768  0.17676  0.09744  1.0000
  H   H3431     1.0  0.67973  0.06127  0.09067  1.0000
  H   H3432     1.0  0.55279  0.10123  0.12453  1.0000
  C   C2148     1.0  0.96523  0.21595  0.03807  1.0000
  N   N215      1.0  0.85202  0.43128  0.06174  1.0000
  C   C2149     1.0  0.84693  0.41546  0.07230  1.0000
  C   C2150     1.0  0.83656  0.44408  0.05793  1.0000
  C   C2151     1.0  0.86378  0.42772  0.04577  1.0000
  C   C2152     1.0  0.86079  0.43779  0.07095  1.0000
  H   H3433     1.0  0.85829  0.40550  0.07535  1.0000
  H   H3434     1.0  0.84029  0.41020  0.06569  1.0000
  H   H3435     1.0  0.83807  0.41761  0.08447  1.0000
  H   H3436     1.0  0.82734  0.44701  0.06971  1.0000
  H   H3437     1.0  0.83984  0.45625  0.05006  1.0000
  H   H3438     1.0  0.82964  0.43961  0.05093  1.0000
  H   H3439     1.0  0.85761  0.42257  0.03866  1.0000
  H   H3440     1.0  0.87563  0.41816  0.04817  1.0000
  H   H3441     1.0  0.86782  0.43936  0.03738  1.0000
  H   H3442     1.0  0.87264  0.42853  0.07384  1.0000
  H   H3443     1.0  0.85237  0.44037  0.08319  1.0000
  H   H3444     1.0  0.86460  0.44986  0.06345  1.0000
  C   C2153     1.0  0.96774  0.40956  0.10253  1.0000
  H   H3445     1.0  0.59110  0.06757  0.11350  1.0000
  H   H3446     1.0  0.56253  0.42458  0.09873  1.0000
  H   H3447     1.0  0.55425  0.16778  0.08815  1.0000
  N   N216      1.0  0.57516  0.44520  0.09394  1.0000
  C   C2154     1.0  0.56217  0.45382  0.10660  1.0000
  C   C2155     1.0  0.58951  0.43431  0.10169  1.0000
  C   C2156     1.0  0.58175  0.45800  0.07939  1.0000
  C   C2157     1.0  0.56725  0.43466  0.08812  1.0000
  H   H3448     1.0  0.95646  0.41727  0.10981  1.0000
  H   H3449     1.0  0.56761  0.46212  0.11104  1.0000
  H   H3450     1.0  0.55723  0.44453  0.11794  1.0000
  H   H3451     1.0  0.57655  0.42826  0.07828  1.0000
  H   H3452     1.0  0.59973  0.42788  0.09236  1.0000
  C   C2158     1.0  0.58717  0.06821  0.12712  1.0000
  H   H3453     1.0  0.59163  0.45187  0.06961  1.0000
  H   H3454     1.0  0.58788  0.46611  0.08336  1.0000
  H   H3455     1.0  0.61107  0.10619  0.21280  1.0000
  H   H3456     1.0  0.55612  0.44240  0.08256  1.0000
  H   H3457     1.0  0.68305  0.46622  0.06156  1.0000
  H   H3458     1.0  0.88976  0.48130  0.18733  1.0000
  S   S857      1.0  0.50824  0.24736  0.00251  1.0000
  H   H3459     1.0  0.50448  0.13490  0.15021  1.0000
  C   C2159     1.0  0.97307  0.09215  0.22996  1.0000
  C   C2160     1.0  0.51727  0.20056  0.99297  1.0000
  H   H3460     1.0  0.86055  0.27676  0.99267  1.0000
  N   N217      1.0  0.74412  0.14574  0.99942  1.0000
  H   H3461     1.0  0.52097  0.28069  0.99323  1.0000
  H   H3462     1.0  0.71700  0.14871  0.00195  1.0000
  H   H3463     1.0  0.85306  0.47203  0.10246  1.0000
  H   H3464     1.0  0.56653  0.11991  0.20556  1.0000
  C   C2161     1.0  0.53091  0.48391  0.20921  1.0000
  C   C2162     1.0  0.56781  0.39971  0.99384  1.0000
  H   H3465     1.0  0.74614  0.47919  0.03137  1.0000
  H   H3466     1.0  0.57209  0.13248  0.23409  1.0000
  C   C2163     1.0  0.51236  0.29040  0.00030  1.0000
  H   H3467     1.0  0.56519  0.14497  0.21522  1.0000
  H   H3468     1.0  0.90081  0.99709  0.18470  1.0000
  H   H3469     1.0  0.97059  0.08317  0.22379  1.0000
  H   H3470     1.0  0.99715  0.08688  0.20186  1.0000
  H   H3471     1.0  0.57365  0.10599  0.22384  1.0000
  H   H3472     1.0  0.53750  0.48743  0.19622  1.0000
  H   H3473     1.0  0.72750  0.12830  0.01219  1.0000
  C   C2164     1.0  0.82586  0.48313  0.07563  1.0000
  H   H3474     1.0  0.54104  0.99233  0.13272  1.0000
  H   H3475     1.0  0.52043  0.29773  0.00271  1.0000
  H   H3476     1.0  0.75591  0.16724  0.98867  1.0000
  C   C2165     1.0  0.57807  0.11327  0.21091  1.0000
  H   H3477     1.0  0.72337  0.14634  0.02135  1.0000
  N   N218      1.0  0.99162  0.09160  0.22690  1.0000
  H   H3478     1.0  0.89753  0.06783  0.22917  1.0000
  N   N219      1.0  0.49932  0.30157  0.99093  1.0000
  C   C2166     1.0  0.85758  0.48770  0.07743  1.0000
  C   C2167     1.0  0.79134  0.11333  0.98545  1.0000
  H   H3479     1.0  0.99891  0.06472  0.22814  1.0000
  H   H3480     1.0  0.74993  0.12603  0.98556  1.0000
  S   S858      1.0  0.93303  0.21154  0.45376  1.0000
  Fe  Fe432     1.0  0.91415  0.16445  0.36754  1.0000
  S   S859      1.0  0.89220  0.18511  0.36026  1.0000
  S   S860      1.0  0.93327  0.14890  0.34987  1.0000
  Fe  Fe433     1.0  0.90385  0.16839  0.40403  1.0000
  S   S861      1.0  0.88102  0.18937  0.39975  1.0000
  S   S862      1.0  0.90835  0.15857  0.43037  1.0000
  Fe  Fe434     1.0  0.87671  0.17303  0.38476  1.0000
  S   S863      1.0  0.85086  0.16868  0.38560  1.0000
  Fe  Fe435     1.0  0.89888  0.19923  0.37586  1.0000
  S   S864      1.0  0.90350  0.22575  0.36522  1.0000
  S   S865      1.0  0.89822  0.15132  0.39090  1.0000
  S   S866      1.0  0.92216  0.17930  0.38131  1.0000
  Fe  Fe436     1.0  0.81646  0.08894  0.40647  1.0000
  S   S867      1.0  0.79900  0.10695  0.39034  1.0000
  S   S868      1.0  0.83385  0.09594  0.41870  1.0000
  Fe  Fe437     1.0  0.80779  0.05829  0.40085  1.0000
  S   S869      1.0  0.78976  0.07387  0.38386  1.0000
  S   S870      1.0  0.81583  0.02982  0.40721  1.0000
  Fe  Fe438     1.0  0.81004  0.08936  0.37246  1.0000
  S   S871      1.0  0.81755  0.10252  0.34520  1.0000
  Fe  Fe439     1.0  0.78035  0.09006  0.40329  1.0000
  S   S872      1.0  0.75339  0.10417  0.41228  1.0000
  S   S873      1.0  0.82886  0.07243  0.38768  1.0000
  S   S874      1.0  0.79692  0.07335  0.42113  1.0000
  H   H3481     1.0  0.96519  0.34565  0.38259  1.0000
  S   S875      1.0  0.92849  0.07711  0.26743  1.0000
  H   H3482     1.0  0.97552  0.22800  0.46892  1.0000
  Fe  Fe440     1.0  0.91272  0.11970  0.28159  1.0000
  S   S876      1.0  0.91986  0.09515  0.29962  1.0000
  S   S877      1.0  0.90344  0.14437  0.29020  1.0000
  Fe  Fe441     1.0  0.94229  0.08958  0.27835  1.0000
  S   S878      1.0  0.97042  0.07990  0.27810  1.0000
  Fe  Fe442     1.0  0.90526  0.08543  0.28693  1.0000
  S   S879      1.0  0.88774  0.06793  0.30269  1.0000
  S   S880      1.0  0.93625  0.11496  0.26125  1.0000
  S   S881      1.0  0.89650  0.11042  0.27009  1.0000
  H   H3483     1.0  0.83659  0.14614  0.46433  1.0000
  Fe  Fe443     1.0  0.60346  0.44567  0.41213  1.0000
  S   S882      1.0  0.62462  0.43646  0.39142  1.0000
  S   S883      1.0  0.58631  0.42977  0.43204  1.0000
  C   C2168     1.0  0.83986  0.46336  0.30950  1.0000
  H   H3484     1.0  0.59598  0.01135  0.33867  1.0000
  C   C2169     1.0  0.79465  0.46683  0.43990  1.0000
  Fe  Fe444     1.0  0.61289  0.46017  0.37455  1.0000
  S   S884      1.0  0.60744  0.46022  0.34960  1.0000
  Fe  Fe445     1.0  0.63938  0.45283  0.39641  1.0000
  S   S885      1.0  0.66558  0.44288  0.40316  1.0000
  S   S886      1.0  0.59096  0.46825  0.39502  1.0000
  S   S887      1.0  0.61882  0.46044  0.41845  1.0000
  Fe  Fe446     1.0  0.51480  0.36076  0.44992  1.0000
  S   S888      1.0  0.54060  0.34355  0.44484  1.0000
  Fe  Fe447     1.0  0.51084  0.36764  0.41372  1.0000
  S   S889      1.0  0.53587  0.35002  0.40592  1.0000
  Fe  Fe448     1.0  0.52835  0.33253  0.43089  1.0000
  S   S890      1.0  0.53050  0.30420  0.43920  1.0000
  Fe  Fe449     1.0  0.54556  0.36282  0.42059  1.0000
  S   S891      1.0  0.56991  0.37204  0.40753  1.0000
  S   S892      1.0  0.52082  0.38126  0.42710  1.0000
  Fe  Fe450     1.0  0.52616  0.47253  0.28266  1.0000
  H   H3485     1.0  0.60182  0.42287  0.46042  1.0000
  S   S893      1.0  0.84707  0.46275  0.28791  1.0000
  Fe  Fe451     1.0  0.52293  0.44253  0.31264  1.0000
  H   H3486     1.0  0.85352  0.46507  0.34354  1.0000
  S   S894      1.0  0.53065  0.41444  0.32261  1.0000
  C   C2170     1.0  0.58056  0.18321  0.46836  1.0000
  C   C2171     1.0  0.63700  0.14046  0.46577  1.0000
  H   H3487     1.0  0.51334  0.15917  0.36831  1.0000
  S   S895      1.0  0.54257  0.45867  0.30167  1.0000
  C   C2172     1.0  0.50395  0.19656  0.46959  1.0000
  H   H3488     1.0  0.91212  0.05570  0.25323  1.0000
  H   H3489     1.0  0.90277  0.35371  0.47340  1.0000
  H   H3490     1.0  0.96460  0.22496  0.45460  1.0000
  H   H3491     1.0  0.98177  0.34652  0.46167  1.0000
  S   S896      1.0  0.76954  0.47828  0.38784  1.0000
  Fe  Fe452     1.0  0.62820  0.12364  0.41813  1.0000
  S   S897      1.0  0.62823  0.15022  0.40376  1.0000
  S   S898      1.0  0.60410  0.11887  0.43722  1.0000
  Fe  Fe453     1.0  0.66538  0.11088  0.40055  1.0000
  S   S899      1.0  0.66785  0.13679  0.38477  1.0000
  S   S900      1.0  0.68810  0.08880  0.39950  1.0000
  Fe  Fe454     1.0  0.65424  0.14551  0.40898  1.0000
  S   S901      1.0  0.66093  0.16347  0.42046  1.0000
  Fe  Fe455     1.0  0.64145  0.13835  0.38140  1.0000
  S   S902      1.0  0.63086  0.14934  0.35781  1.0000
  S   S903      1.0  0.65358  0.11939  0.42491  1.0000
  S   S904      1.0  0.63977  0.11183  0.39557  1.0000
  H   H3492     1.0  0.53110  0.29621  0.38328  1.0000
  H   H3493     1.0  0.96417  0.12862  0.31238  1.0000
  Fe  Fe456     1.0  0.54208  0.19940  0.38649  1.0000
  H   H3494     1.0  0.55799  0.28343  0.45440  1.0000
  S   S905      1.0  0.55962  0.18586  0.36658  1.0000
  Fe  Fe457     1.0  0.53741  0.19967  0.42293  1.0000
  S   S906      1.0  0.54639  0.18488  0.44669  1.0000
  S   S907      1.0  0.55427  0.21156  0.39945  1.0000
  Fe  Fe458     1.0  0.56402  0.09885  0.30514  1.0000
  S   S908      1.0  0.53964  0.09740  0.32487  1.0000
  S   S909      1.0  0.56594  0.09736  0.27830  1.0000
  Fe  Fe459     1.0  0.58487  0.09622  0.33076  1.0000
  S   S910      1.0  0.56235  0.09432  0.35258  1.0000
  S   S911      1.0  0.61088  0.09185  0.33647  1.0000
  Fe  Fe460     1.0  0.55611  0.07679  0.34037  1.0000
  S   S912      1.0  0.55027  0.05174  0.35607  1.0000
  Fe  Fe461     1.0  0.54803  0.11505  0.33524  1.0000
  S   S913      1.0  0.52831  0.13543  0.34668  1.0000
  S   S914      1.0  0.57994  0.07681  0.31998  1.0000
  S   S915      1.0  0.57109  0.11848  0.31407  1.0000
  C   C2173     1.0  0.64508  0.14312  0.47706  1.0000
  Fe  Fe462     1.0  0.75789  0.45957  0.38238  1.0000
  H   H3495     1.0  0.98693  0.13731  0.26724  1.0000
  C   C2174     1.0  0.97392  0.38633  0.46851  1.0000
  Fe  Fe463     1.0  0.78419  0.42930  0.39584  1.0000
  S   S916      1.0  0.79755  0.44521  0.40307  1.0000
  S   S917      1.0  0.79232  0.40130  0.39644  1.0000
  Fe  Fe464     1.0  0.77119  0.45967  0.41253  1.0000
  C   C2175     1.0  0.50555  0.17133  0.46027  1.0000
  Fe  Fe465     1.0  0.79504  0.46238  0.37791  1.0000
  C   C2176     1.0  0.65691  0.15366  0.47112  1.0000
  S   S918      1.0  0.75781  0.44202  0.40781  1.0000
  S   S919      1.0  0.78343  0.44550  0.36996  1.0000
  H   H3496     1.0  0.88300  0.36841  0.44478  1.0000
  H   H3497     1.0  0.91971  0.33330  0.45518  1.0000
  Fe  Fe466     1.0  0.90864  0.43233  0.28443  1.0000
  S   S920      1.0  0.88773  0.42869  0.27450  1.0000
  S   S921      1.0  0.92090  0.41487  0.30556  1.0000
  Fe  Fe467     1.0  0.90199  0.44023  0.24888  1.0000
  Fe  Fe468     1.0  0.87539  0.45547  0.27689  1.0000
  H   H3498     1.0  0.56352  0.46871  0.31762  1.0000
  S   S922      1.0  0.92412  0.44152  0.25867  1.0000
  S   S923      1.0  0.89526  0.45843  0.28850  1.0000
  Fe  Fe469     1.0  0.88151  0.30805  0.39665  1.0000
  S   S924      1.0  0.88966  0.31630  0.41587  1.0000
  S   S925      1.0  0.87011  0.28479  0.40495  1.0000
  Fe  Fe470     1.0  0.89125  0.33794  0.36859  1.0000
  S   S926      1.0  0.90091  0.34811  0.38537  1.0000
  S   S927      1.0  0.88868  0.35034  0.34187  1.0000
  Fe  Fe471     1.0  0.91247  0.32085  0.39507  1.0000
  S   S928      1.0  0.93870  0.30878  0.40002  1.0000
  Fe  Fe472     1.0  0.87709  0.34261  0.40437  1.0000
  S   S929      1.0  0.86212  0.36255  0.41920  1.0000
  S   S930      1.0  0.90510  0.31109  0.37641  1.0000
  S   S931      1.0  0.86672  0.33400  0.38699  1.0000
  Fe  Fe473     1.0  0.51588  0.99139  0.32979  1.0000
  H   H3499     1.0  0.78444  0.01935  0.36909  1.0000
  S   S932      1.0  0.97362  0.35042  0.42707  1.0000
  H   H3500     1.0  0.96288  0.33931  0.35638  1.0000
  H   H3501     1.0  0.68917  0.13267  0.45234  1.0000
  C   C2177     1.0  0.73314  0.42234  0.36295  1.0000
  H   H3502     1.0  0.86516  0.34788  0.46150  1.0000
  C   C2178     1.0  0.53068  0.30009  0.40772  1.0000
  H   H3503     1.0  0.99146  0.15691  0.34230  1.0000
  H   H3504     1.0  0.75773  0.48113  0.46651  1.0000
  C   C2179     1.0  0.94690  0.31969  0.40984  1.0000
  C   C2180     1.0  0.93836  0.33592  0.41249  1.0000
  C   C2181     1.0  0.94624  0.34511  0.41863  1.0000
  C   C2182     1.0  0.96267  0.33809  0.42195  1.0000
  C   C2183     1.0  0.97078  0.32160  0.42004  1.0000
  C   C2184     1.0  0.96287  0.31239  0.41406  1.0000
  H   H3505     1.0  0.92600  0.34158  0.40926  1.0000
  H   H3506     1.0  0.93997  0.35790  0.42011  1.0000
  H   H3507     1.0  0.57322  0.00214  0.38344  1.0000
  H   H3508     1.0  0.96936  0.29972  0.41229  1.0000
  C   C2185     1.0  0.91194  0.39695  0.31568  1.0000
  C   C2186     1.0  0.91531  0.38744  0.33139  1.0000
  C   C2187     1.0  0.90819  0.37314  0.33960  1.0000
  C   C2188     1.0  0.89774  0.36824  0.33211  1.0000
  C   C2189     1.0  0.89441  0.37773  0.31642  1.0000
  C   C2190     1.0  0.90149  0.39200  0.30825  1.0000
  H   H3509     1.0  0.92346  0.39113  0.33718  1.0000
  H   H3510     1.0  0.91107  0.36578  0.35155  1.0000
  H   H3511     1.0  0.88649  0.37393  0.31045  1.0000
  H   H3512     1.0  0.89923  0.39886  0.29596  1.0000
  C   C2191     1.0  0.81148  0.39063  0.40327  1.0000
  C   C2192     1.0  0.81999  0.39868  0.40995  1.0000
  C   C2193     1.0  0.83543  0.38996  0.41500  1.0000
  C   C2194     1.0  0.84247  0.37316  0.41334  1.0000
  C   C2195     1.0  0.83381  0.36506  0.40690  1.0000
  C   C2196     1.0  0.81841  0.37377  0.40185  1.0000
  H   H3513     1.0  0.81462  0.41152  0.41147  1.0000
  H   H3514     1.0  0.84191  0.39625  0.42019  1.0000
  H   H3515     1.0  0.83865  0.35189  0.40633  1.0000
  H   H3516     1.0  0.81177  0.36734  0.39698  1.0000
  H   H3517     1.0  0.56700  0.02471  0.37766  1.0000
  C   C2197     1.0  0.60860  0.17833  0.47422  1.0000
  H   H3518     1.0  0.67047  0.47654  0.41197  1.0000
  H   H3519     1.0  0.83126  0.16891  0.45825  1.0000
  Fe  Fe474     1.0  0.60848  0.48213  0.39902  1.0000
  H   H3520     1.0  0.98193  0.33242  0.34139  1.0000
  Fe  Fe475     1.0  0.92096  0.10294  0.25152  1.0000
  H   H3521     1.0  0.99791  0.38574  0.43944  1.0000
  H   H3522     1.0  0.97497  0.41659  0.31304  1.0000
  C   C2198     1.0  0.58270  0.46497  0.33187  1.0000
  C   C2199     1.0  0.59753  0.03036  0.35928  1.0000
  C   C2200     1.0  0.77133  0.47729  0.46155  1.0000
  H   H3523     1.0  0.60791  0.03095  0.34763  1.0000
  H   H3524     1.0  0.61112  0.40604  0.47581  1.0000
  H   H3525     1.0  0.76701  0.44240  0.47457  1.0000
  H   H3526     1.0  0.99071  0.42975  0.27572  1.0000
  C   C2201     1.0  0.77705  0.47117  0.44662  1.0000
  H   H3527     1.0  0.57498  0.02250  0.34702  1.0000
  C   C2202     1.0  0.80436  0.00051  0.42085  1.0000
  H   H3528     1.0  0.51372  0.17587  0.44780  1.0000
  H   H3529     1.0  0.90133  0.03831  0.26027  1.0000
  C   C2203     1.0  0.97726  0.08547  0.29339  1.0000
  H   H3530     1.0  0.96038  0.14986  0.31501  1.0000
  C   C2204     1.0  0.55062  0.17224  0.36084  1.0000
  C   C2205     1.0  0.56088  0.16212  0.34949  1.0000
  C   C2206     1.0  0.55414  0.15067  0.34519  1.0000
  C   C2207     1.0  0.53699  0.14962  0.35193  1.0000
  C   C2208     1.0  0.52663  0.15993  0.36310  1.0000
  C   C2209     1.0  0.53348  0.17115  0.36766  1.0000
  H   H3531     1.0  0.57407  0.16310  0.34402  1.0000
  H   H3532     1.0  0.56216  0.14282  0.33650  1.0000
  H   H3533     1.0  0.97108  0.41142  0.29524  1.0000
  H   H3534     1.0  0.85743  0.06542  0.26236  1.0000
  C   C2210     1.0  0.62619  0.13376  0.35042  1.0000
  C   C2211     1.0  0.63524  0.11697  0.35375  1.0000
  C   C2212     1.0  0.63071  0.10437  0.34890  1.0000
  C   C2213     1.0  0.61694  0.10840  0.34091  1.0000
  C   C2214     1.0  0.60805  0.12528  0.33723  1.0000
  C   C2215     1.0  0.61283  0.13799  0.34180  1.0000
  H   H3535     1.0  0.64593  0.11368  0.35985  1.0000
  H   H3536     1.0  0.63775  0.09138  0.35160  1.0000
  H   H3537     1.0  0.59750  0.12851  0.33092  1.0000
  H   H3538     1.0  0.60592  0.15100  0.33899  1.0000
  C   C2216     1.0  0.58792  0.13724  0.43935  1.0000
  C   C2217     1.0  0.86929  0.05697  0.26611  1.0000
  H   H3539     1.0  0.73398  0.43594  0.35880  1.0000
  C   C2218     1.0  0.56201  0.16641  0.44351  1.0000
  C   C2219     1.0  0.57217  0.16503  0.42743  1.0000
  C   C2220     1.0  0.58520  0.15050  0.42538  1.0000
  H   H3540     1.0  0.57014  0.17523  0.41662  1.0000
  H   H3541     1.0  0.59292  0.14944  0.41295  1.0000
  C   C2221     1.0  0.51725  0.02762  0.33806  1.0000
  H   H3542     1.0  0.66762  0.10822  0.47709  1.0000
  C   C2222     1.0  0.53777  0.02528  0.35472  1.0000
  C   C2223     1.0  0.53759  0.04265  0.34888  1.0000
  C   C2224     1.0  0.52719  0.05249  0.33763  1.0000
  C   C2225     1.0  0.51682  0.04503  0.33245  1.0000
  H   H3543     1.0  0.96218  0.39165  0.46323  1.0000
  H   H3544     1.0  0.54557  0.01762  0.36361  1.0000
  H   H3545     1.0  0.52694  0.06587  0.33310  1.0000
  H   H3546     1.0  0.60236  0.03247  0.36947  1.0000
  H   H3547     1.0  0.84815  0.03700  0.43125  1.0000
  H   H3548     1.0  0.96264  0.36270  0.46083  1.0000
  H   H3549     1.0  0.59008  0.44174  0.48046  1.0000
  H   H3550     1.0  0.63417  0.14619  0.44010  1.0000
  H   H3551     1.0  0.80736  0.01334  0.36682  1.0000
  C   C2226     1.0  0.53047  0.29250  0.42475  1.0000
  C   C2227     1.0  0.53033  0.27518  0.43050  1.0000
  C   C2228     1.0  0.53045  0.26545  0.41928  1.0000
  S   S933      1.0  0.50409  0.01849  0.33160  1.0000
  H   H3552     1.0  0.53018  0.26926  0.44367  1.0000
  H   H3553     1.0  0.53046  0.25208  0.42380  1.0000
  N   N220      1.0  0.75548  0.12273  0.35763  1.0000
  C   C2229     1.0  0.52048  0.38499  0.36948  1.0000
  C   C2230     1.0  0.52859  0.39172  0.35296  1.0000
  C   C2231     1.0  0.52026  0.40655  0.34341  1.0000
  H   H3554     1.0  0.52704  0.37354  0.37664  1.0000
  H   H3555     1.0  0.54137  0.38542  0.34755  1.0000
  C   C2232     1.0  0.68473  0.45017  0.39331  1.0000
  C   C2233     1.0  0.68765  0.45945  0.37662  1.0000
  H   H3556     1.0  0.53854  0.26084  0.48436  1.0000
  C   C2234     1.0  0.71602  0.46087  0.37871  1.0000
  C   C2235     1.0  0.71291  0.45190  0.39548  1.0000
  C   C2236     1.0  0.69745  0.44637  0.40265  1.0000
  H   H3557     1.0  0.67796  0.46236  0.36928  1.0000
  C   C2237     1.0  0.59918  0.41189  0.47097  1.0000
  H   H3558     1.0  0.72240  0.44916  0.40297  1.0000
  H   H3559     1.0  0.69523  0.43926  0.41560  1.0000
  C   C2238     1.0  0.85399  0.39029  0.36410  1.0000
  C   C2239     1.0  0.97130  0.09418  0.32001  1.0000
  C   C2240     1.0  0.58641  0.46791  0.34598  1.0000
  H   H3560     1.0  0.99182  0.15909  0.28827  1.0000
  Fe  Fe476     1.0  0.90892  0.46735  0.26186  1.0000
  H   H3561     1.0  0.99275  0.30901  0.36418  1.0000
  H   H3562     1.0  0.54671  0.48969  0.36204  1.0000
  H   H3563     1.0  0.78545  0.99869  0.35232  1.0000
  H   H3564     1.0  0.80356  0.48631  0.40445  1.0000
  H   H3565     1.0  0.94829  0.45008  0.31202  1.0000
  H   H3566     1.0  0.82581  0.04283  0.43092  1.0000
  H   H3567     1.0  0.87290  0.08955  0.25187  1.0000
  C   C2241     1.0  0.58159  0.41384  0.42516  1.0000
  C   C2242     1.0  0.59198  0.40801  0.41085  1.0000
  C   C2243     1.0  0.58837  0.39504  0.40573  1.0000
  C   C2244     1.0  0.57417  0.38796  0.41471  1.0000
  C   C2245     1.0  0.56363  0.39383  0.42898  1.0000
  C   C2246     1.0  0.56742  0.40667  0.43425  1.0000
  H   H3568     1.0  0.60303  0.41323  0.40389  1.0000
  H   H3569     1.0  0.59667  0.39044  0.39480  1.0000
  H   H3570     1.0  0.55270  0.38837  0.43603  1.0000
  H   H3571     1.0  0.55930  0.41115  0.44530  1.0000
  C   C2247     1.0  0.96566  0.08955  0.30799  1.0000
  H   H3572     1.0  0.96234  0.09703  0.33143  1.0000
  H   H3573     1.0  0.95242  0.08877  0.31024  1.0000
  C   C2248     1.0  0.73568  0.09949  0.40835  1.0000
  C   C2249     1.0  0.72058  0.11204  0.40822  1.0000
  C   C2250     1.0  0.70608  0.10889  0.40520  1.0000
  C   C2251     1.0  0.70651  0.09307  0.40249  1.0000
  C   C2252     1.0  0.72166  0.08049  0.40251  1.0000
  C   C2253     1.0  0.73628  0.08371  0.40540  1.0000
  H   H3574     1.0  0.72012  0.12430  0.41040  1.0000
  H   H3575     1.0  0.69446  0.11864  0.40520  1.0000
  H   H3576     1.0  0.72202  0.06821  0.40046  1.0000
  H   H3577     1.0  0.74788  0.07392  0.40557  1.0000
  C   C2254     1.0  0.79969  0.01824  0.41678  1.0000
  C   C2255     1.0  0.78235  0.02631  0.41981  1.0000
  C   C2256     1.0  0.76972  0.01659  0.42669  1.0000
  C   C2257     1.0  0.90764  0.32931  0.45625  1.0000
  H   H3578     1.0  0.77867  0.04001  0.41672  1.0000
  H   H3579     1.0  0.75630  0.02284  0.42889  1.0000
  C   C2258     1.0  0.83744  0.09291  0.33399  1.0000
  C   C2259     1.0  0.84432  0.07559  0.33887  1.0000
  C   C2260     1.0  0.85981  0.06801  0.32923  1.0000
  C   C2261     1.0  0.86872  0.07780  0.31497  1.0000
  C   C2262     1.0  0.86206  0.09521  0.31038  1.0000
  C   C2263     1.0  0.84634  0.10269  0.31973  1.0000
  H   H3580     1.0  0.83751  0.06793  0.34982  1.0000
  H   H3581     1.0  0.86491  0.05455  0.33286  1.0000
  H   H3582     1.0  0.86878  0.10286  0.29940  1.0000
  H   H3583     1.0  0.84106  0.11609  0.31588  1.0000
  C   C2264     1.0  0.89518  0.24070  0.37809  1.0000
  C   C2265     1.0  0.90343  0.25407  0.37507  1.0000
  C   C2266     1.0  0.89613  0.26733  0.38370  1.0000
  C   C2267     1.0  0.88040  0.26743  0.39525  1.0000
  C   C2268     1.0  0.87242  0.25375  0.39875  1.0000
  C   C2269     1.0  0.87983  0.24035  0.39023  1.0000
  H   H3584     1.0  0.91540  0.25427  0.36580  1.0000
  H   H3585     1.0  0.90259  0.27756  0.38112  1.0000
  H   H3586     1.0  0.86029  0.25368  0.40778  1.0000
  H   H3587     1.0  0.87336  0.23009  0.39257  1.0000
  C   C2270     1.0  0.92445  0.14754  0.33373  1.0000
  C   C2271     1.0  0.91310  0.16141  0.32638  1.0000
  C   C2272     1.0  0.90659  0.16029  0.31310  1.0000
  C   C2273     1.0  0.91154  0.14534  0.30703  1.0000
  C   C2274     1.0  0.92300  0.13152  0.31433  1.0000
  C   C2275     1.0  0.92933  0.13258  0.32772  1.0000
  H   H3588     1.0  0.90967  0.17319  0.33057  1.0000
  H   H3589     1.0  0.89787  0.17110  0.30740  1.0000
  H   H3590     1.0  0.92729  0.12010  0.30952  1.0000
  H   H3591     1.0  0.93808  0.12180  0.33342  1.0000
  C   C2276     1.0  0.84648  0.14838  0.39499  1.0000
  C   C2277     1.0  0.83197  0.14467  0.39262  1.0000
  C   C2278     1.0  0.82809  0.12863  0.39981  1.0000
  C   C2279     1.0  0.83858  0.11618  0.40959  1.0000
  C   C2280     1.0  0.85302  0.11993  0.41215  1.0000
  C   C2281     1.0  0.85704  0.13595  0.40475  1.0000
  H   H3592     1.0  0.82363  0.15429  0.38527  1.0000
  H   H3593     1.0  0.81670  0.12612  0.39814  1.0000
  H   H3594     1.0  0.86118  0.11038  0.41974  1.0000
  H   H3595     1.0  0.86815  0.13869  0.40681  1.0000
  C   C2282     1.0  0.92582  0.19697  0.44743  1.0000
  C   C2283     1.0  0.91768  0.18480  0.45942  1.0000
  C   C2284     1.0  0.91247  0.17288  0.45414  1.0000
  C   C2285     1.0  0.91497  0.17346  0.43687  1.0000
  C   C2286     1.0  0.92271  0.18591  0.42491  1.0000
  C   C2287     1.0  0.92838  0.19749  0.43018  1.0000
  S   S934      1.0  0.53086  0.26116  0.38784  1.0000
  H   H3596     1.0  0.55343  0.09711  0.25015  1.0000
  H   H3597     1.0  0.92463  0.18648  0.41158  1.0000
  H   H3598     1.0  0.93463  0.20691  0.42086  1.0000
  H   H3599     1.0  0.96922  0.12028  0.38252  1.0000
  C   C2288     1.0  0.57732  0.13843  0.45528  1.0000
  C   C2289     1.0  0.55673  0.48278  0.35359  1.0000
  H   H3600     1.0  0.50311  0.32827  0.39204  1.0000
  C   C2290     1.0  0.56428  0.27579  0.46500  1.0000
  H   H3601     1.0  0.81125  0.05177  0.47423  1.0000
  C   C2291     1.0  0.53694  0.14228  0.25921  1.0000
  C   C2292     1.0  0.54609  0.12937  0.27009  1.0000
  C   C2293     1.0  0.55238  0.11317  0.26658  1.0000
  H   H3602     1.0  0.96981  0.44661  0.31470  1.0000
  H   H3603     1.0  0.81546  0.06722  0.45480  1.0000
  H   H3604     1.0  0.53249  0.15493  0.26168  1.0000
  H   H3605     1.0  0.54876  0.13209  0.28085  1.0000
  H   H3606     1.0  0.57917  0.12809  0.46605  1.0000
  H   H3607     1.0  0.83807  0.43243  0.36290  1.0000
  C   C2294     1.0  0.89434  0.35766  0.44365  1.0000
  H   H3608     1.0  0.52613  0.38382  0.46022  1.0000
  H   H3609     1.0  0.79359  0.01229  0.38744  1.0000
  N   N221      1.0  0.98647  0.33567  0.36415  1.0000
  S   S935      1.0  0.88773  0.46688  0.25033  1.0000
  C   C2295     1.0  0.60665  0.99994  0.36776  1.0000
  N   N222      1.0  0.98051  0.14011  0.36449  1.0000
  C   C2296     1.0  0.97374  0.12455  0.36864  1.0000
  H   H3610     1.0  0.57857  0.19709  0.46736  1.0000
  C   C2297     1.0  0.98577  0.14550  0.34593  1.0000
  H   H3611     1.0  0.50219  0.25770  0.37007  1.0000
  H   H3612     1.0  0.96259  0.15008  0.38519  1.0000
  C   C2298     1.0  0.98642  0.31782  0.37293  1.0000
  H   H3613     1.0  0.99670  0.12919  0.28528  1.0000
  C   C2299     1.0  0.88608  0.06309  0.23753  1.0000
  H   H3614     1.0  0.57697  0.27915  0.46245  1.0000
  H   H3615     1.0  0.77656  0.98996  0.39936  1.0000
  H   H3616     1.0  0.99619  0.36058  0.48338  1.0000
  H   H3617     1.0  0.97462  0.14858  0.33988  1.0000
  C   C2300     1.0  0.56888  0.42410  0.47749  1.0000
  H   H3618     1.0  0.89974  0.05148  0.27446  1.0000
  C   C2301     1.0  0.87682  0.33754  0.45984  1.0000
  S   S936      1.0  0.53755  0.48321  0.25538  1.0000
  C   C2302     1.0  0.95677  0.44305  0.28114  1.0000
  H   H3619     1.0  0.96961  0.38319  0.48252  1.0000
  C   C2303     1.0  0.53979  0.12263  0.24178  1.0000
  H   H3620     1.0  0.56769  0.17998  0.47260  1.0000
  N   N223      1.0  0.69177  0.10560  0.45903  1.0000
  H   H3621     1.0  0.58671  0.04126  0.35660  1.0000
  H   H3622     1.0  0.99467  0.20086  0.43739  1.0000
  Fe  Fe477     1.0  0.53138  0.23318  0.39744  1.0000
  C   C2304     1.0  0.80071  0.47402  0.46347  1.0000
  H   H3623     1.0  0.67078  0.16851  0.44899  1.0000
  N   N224      1.0  0.98444  0.37125  0.46194  1.0000
  H   H3624     1.0  0.98366  0.11391  0.36396  1.0000
  H   H3625     1.0  0.61507  0.17596  0.46135  1.0000
  H   H3626     1.0  0.87630  0.17408  0.44883  1.0000
  H   H3627     1.0  0.56664  0.26222  0.46450  1.0000
  C   C2305     1.0  0.64074  0.14814  0.44862  1.0000
  C   C2306     1.0  0.96951  0.14022  0.30817  1.0000
  H   H3628     1.0  0.97620  0.35397  0.34397  1.0000
  C   C2307     1.0  0.86978  0.14305  0.46310  1.0000
  C   C2308     1.0  0.53068  0.27301  0.40224  1.0000
  H   H3629     1.0  0.90595  0.36254  0.44226  1.0000
  H   H3630     1.0  0.68371  0.11583  0.48152  1.0000
  H   H3631     1.0  0.60717  0.19204  0.47368  1.0000
  C   C2309     1.0  0.80647  0.46850  0.44819  1.0000
  C   C2310     1.0  0.75396  0.43955  0.47858  1.0000
  H   H3632     1.0  0.95808  0.19843  0.47451  1.0000
  H   H3633     1.0  0.51184  0.20197  0.45735  1.0000
  C   C2311     1.0  0.53409  0.13901  0.24484  1.0000
  H   H3634     1.0  0.62801  0.13215  0.47023  1.0000
  C   C2312     1.0  0.68681  0.12230  0.44800  1.0000
  H   H3635     1.0  0.52544  0.17906  0.37629  1.0000
  C   C2313     1.0  0.98533  0.19560  0.44862  1.0000
  H   H3636     1.0  0.73212  0.13162  0.34853  1.0000
  C   C2314     1.0  0.84479  0.46506  0.33608  1.0000
  H   H3637     1.0  0.50869  0.05272  0.32386  1.0000
  H   H3638     1.0  0.86964  0.04392  0.26514  1.0000
  H   H3639     1.0  0.97310  0.31583  0.37841  1.0000
  H   H3640     1.0  0.54391  0.30535  0.47144  1.0000
  H   H3641     1.0  0.55657  0.15394  0.46980  1.0000
  N   N225      1.0  0.98336  0.20322  0.46313  1.0000
  C   C2315     1.0  0.57810  0.01400  0.37964  1.0000
  H   H3642     1.0  0.88349  0.14287  0.45678  1.0000
  H   H3643     1.0  0.68539  0.99823  0.44941  1.0000
  H   H3644     1.0  0.94321  0.44241  0.28752  1.0000
  H   H3645     1.0  0.91823  0.24841  0.45738  1.0000
  H   H3646     1.0  0.84369  0.42601  0.33453  1.0000
  H   H3647     1.0  0.88257  0.48745  0.30733  1.0000
  H   H3648     1.0  0.58604  0.18071  0.45540  1.0000
  H   H3649     1.0  0.98643  0.22757  0.44733  1.0000
  S   S937      1.0  0.50635  0.45894  0.33036  1.0000
  H   H3650     1.0  0.80225  0.46930  0.33877  1.0000
  H   H3651     1.0  0.85900  0.38708  0.37585  1.0000
  H   H3652     1.0  0.86837  0.14294  0.47666  1.0000
  N   N226      1.0  0.85828  0.15799  0.45499  1.0000
  S   S938      1.0  0.99468  0.10274  0.33167  1.0000
  H   H3653     1.0  0.85446  0.18518  0.44947  1.0000
  H   H3654     1.0  0.97045  0.17201  0.29080  1.0000
  S   S939      1.0  0.50827  0.45450  0.29202  1.0000
  C   C2316     1.0  0.92250  0.25640  0.44479  1.0000
  H   H3655     1.0  0.82697  0.41535  0.37192  1.0000
  N   N227      1.0  0.97213  0.14634  0.28964  1.0000
  H   H3656     1.0  0.95684  0.45622  0.27364  1.0000
  H   H3657     1.0  0.88299  0.27610  0.43693  1.0000
  C   C2317     1.0  0.66106  0.16099  0.45374  1.0000
  H   H3658     1.0  0.98925  0.10077  0.24908  1.0000
  H   H3659     1.0  0.95340  0.42002  0.31049  1.0000
  H   H3660     1.0  0.74846  0.14350  0.33750  1.0000
  H   H3661     1.0  0.82010  0.46504  0.44302  1.0000
  H   H3662     1.0  0.78142  0.11565  0.36104  1.0000
  S   S940      1.0  0.99701  0.42233  0.33210  1.0000
  H   H3663     1.0  0.61135  0.00080  0.37861  1.0000
  C   C2318     1.0  0.89343  0.27174  0.44410  1.0000
  H   H3664     1.0  0.61744  0.17106  0.48283  1.0000
  H   H3665     1.0  0.85197  0.16848  0.43048  1.0000
  H   H3666     1.0  0.89571  0.08471  0.25042  1.0000
  C   C2319     1.0  0.95551  0.15031  0.28459  1.0000
  H   H3667     1.0  0.84207  0.01545  0.45794  1.0000
  Fe  Fe478     1.0  0.52488  0.47602  0.31813  1.0000
  H   H3668     1.0  0.84194  0.04341  0.47478  1.0000
  C   C2320     1.0  0.83576  0.04534  0.43593  1.0000
  Fe  Fe479     1.0  0.50635  0.21008  0.40710  1.0000
  C   C2321     1.0  0.52907  0.48087  0.23929  1.0000
  H   H3669     1.0  0.97867  0.38118  0.43724  1.0000
  C   C2322     1.0  0.99550  0.13666  0.37210  1.0000
  H   H3670     1.0  0.81343  0.46603  0.30905  1.0000
  C   C2323     1.0  0.98577  0.43852  0.28464  1.0000
  S   S941      1.0  0.76179  0.46909  0.43682  1.0000
  C   C2324     1.0  0.66164  0.48731  0.40550  1.0000
  H   H3671     1.0  0.75653  0.12796  0.38091  1.0000
  H   H3672     1.0  0.89604  0.28314  0.44641  1.0000
  C   C2325     1.0  0.75215  0.10557  0.36550  1.0000
  H   H3673     1.0  0.75138  0.14643  0.36494  1.0000
  H   H3674     1.0  0.81976  0.02140  0.45721  1.0000
  H   H3675     1.0  0.86307  0.38235  0.35534  1.0000
  H   H3676     1.0  0.71333  0.11196  0.46348  1.0000
  H   H3677     1.0  0.96270  0.12660  0.36267  1.0000
  N   N228      1.0  0.58453  0.41721  0.48444  1.0000
  H   H3678     1.0  0.90905  0.32475  0.44460  1.0000
  C   C2326     1.0  0.65332  0.15778  0.44241  1.0000
  C   C2327     1.0  0.58570  0.01182  0.35035  1.0000
  N   N229      1.0  0.89251  0.34339  0.45844  1.0000
  C   C2328     1.0  0.96705  0.15374  0.37122  1.0000
  H   H3679     1.0  0.73558  0.13398  0.37636  1.0000
  H   H3680     1.0  0.98179  0.13688  0.31245  1.0000
  H   H3681     1.0  0.75521  0.42678  0.47629  1.0000
  H   H3682     1.0  0.97172  0.16568  0.36830  1.0000
  H   H3683     1.0  0.87504  0.32669  0.47079  1.0000
  C   C2329     1.0  0.79499  0.01015  0.37460  1.0000
  H   H3684     1.0  0.56578  0.41441  0.47269  1.0000
  C   C2330     1.0  0.98988  0.37608  0.44336  1.0000
  H   H3685     1.0  0.72030  0.42185  0.37153  1.0000
  H   H3686     1.0  0.94575  0.15970  0.29133  1.0000
  H   H3687     1.0  0.98709  0.45145  0.27714  1.0000
  H   H3688     1.0  0.96243  0.46328  0.29804  1.0000
  H   H3689     1.0  0.99006  0.18161  0.45171  1.0000
  C   C2331     1.0  0.88362  0.08034  0.25711  1.0000
  N   N230      1.0  0.74717  0.41207  0.37148  1.0000
  C   C2332     1.0  0.74606  0.39404  0.37620  1.0000
  C   C2333     1.0  0.76389  0.41395  0.35997  1.0000
  C   C2334     1.0  0.74564  0.41802  0.38689  1.0000
  H   H3690     1.0  0.75646  0.38604  0.38276  1.0000
  H   H3691     1.0  0.74724  0.38905  0.36487  1.0000
  H   H3692     1.0  0.73358  0.39225  0.38491  1.0000
  H   H3693     1.0  0.76494  0.42750  0.35596  1.0000
  H   H3694     1.0  0.77476  0.40681  0.36625  1.0000
  H   H3695     1.0  0.76573  0.40926  0.34831  1.0000
  H   H3696     1.0  0.75600  0.41059  0.39372  1.0000
  H   H3697     1.0  0.73312  0.41701  0.39587  1.0000
  H   H3698     1.0  0.74658  0.43153  0.38366  1.0000
  H   H3699     1.0  0.96737  0.08868  0.24371  1.0000
  S   S942      1.0  0.81554  0.47558  0.47406  1.0000
  H   H3700     1.0  0.67446  0.09468  0.45252  1.0000
  H   H3701     1.0  0.61759  0.99981  0.35661  1.0000
  H   H3702     1.0  0.97510  0.18204  0.48172  1.0000
  H   H3703     1.0  0.73355  0.41792  0.35150  1.0000
  C   C2335     1.0  0.53195  0.39110  0.48028  1.0000
  H   H3704     1.0  0.74605  0.44895  0.47000  1.0000
  H   H3705     1.0  0.50137  0.41933  0.30577  1.0000
  C   C2336     1.0  0.59441  0.15503  0.48076  1.0000
  C   C2337     1.0  0.71026  0.10216  0.45882  1.0000
  N   N231      1.0  0.88478  0.06298  0.25544  1.0000
  C   C2338     1.0  0.68828  0.09232  0.45277  1.0000
  H   H3706     1.0  0.69405  0.12282  0.43472  1.0000
  H   H3707     1.0  0.50294  0.13171  0.33169  1.0000
  H   H3708     1.0  0.80423  0.05127  0.45601  1.0000
  C   C2339     1.0  0.92253  0.48453  0.28713  1.0000
  N   N232      1.0  0.83133  0.04225  0.45462  1.0000
  C   C2340     1.0  0.52368  0.38267  0.47373  1.0000
  C   C2341     1.0  0.84489  0.04565  0.46070  1.0000
  H   H3709     1.0  0.70565  0.47157  0.35629  1.0000
  H   H3710     1.0  0.64905  0.48908  0.41456  1.0000
  S   S943      1.0  0.51562  0.22248  0.42231  1.0000
  S   S944      1.0  0.81933  0.47132  0.36364  1.0000
  H   H3711     1.0  0.52992  0.28205  0.47414  1.0000
  H   H3712     1.0  0.85659  0.14574  0.43632  1.0000
  H   H3713     1.0  0.87369  0.15693  0.43001  1.0000
  C   C2342     1.0  0.81590  0.46732  0.33348  1.0000
  H   H3714     1.0  0.52814  0.00429  0.35356  1.0000
  H   H3715     1.0  0.56299  0.30117  0.47936  1.0000
  C   C2343     1.0  0.98422  0.13301  0.28125  1.0000
  H   H3716     1.0  0.99329  0.31386  0.38350  1.0000
  C   C2344     1.0  0.86281  0.17365  0.45556  1.0000
  C   C2345     1.0  0.97927  0.16174  0.28462  1.0000
  N   N233      1.0  0.57915  0.12170  0.38988  1.0000
  C   C2346     1.0  0.56050  0.12587  0.39058  1.0000
  C   C2347     1.0  0.58231  0.11478  0.40715  1.0000
  C   C2348     1.0  0.58607  0.13721  0.38234  1.0000
  C   C2349     1.0  0.58774  0.10895  0.37939  1.0000
  H   H3717     1.0  0.55777  0.13088  0.37769  1.0000
  H   H3718     1.0  0.55360  0.13573  0.39808  1.0000
  H   H3719     1.0  0.55481  0.11449  0.39632  1.0000
  H   H3720     1.0  0.59627  0.11168  0.40706  1.0000
  H   H3721     1.0  0.57592  0.12400  0.41547  1.0000
  H   H3722     1.0  0.57746  0.10294  0.41322  1.0000
  H   H3723     1.0  0.60004  0.13463  0.38199  1.0000
  H   H3724     1.0  0.57944  0.14735  0.38955  1.0000
  H   H3725     1.0  0.58441  0.14244  0.36912  1.0000
  H   H3726     1.0  0.58319  0.09689  0.38488  1.0000
  H   H3727     1.0  0.60191  0.10589  0.37809  1.0000
  H   H3728     1.0  0.58519  0.11355  0.36641  1.0000
  N   N234      1.0  0.85202  0.40859  0.35625  1.0000
  C   C2350     1.0  0.84537  0.41227  0.34074  1.0000
  C   C2351     1.0  0.86888  0.41328  0.35178  1.0000
  C   C2352     1.0  0.83986  0.41854  0.36833  1.0000
  N   N235      1.0  0.96780  0.43811  0.29358  1.0000
  H   H3729     1.0  0.83268  0.40886  0.34359  1.0000
  H   H3730     1.0  0.85430  0.40505  0.33129  1.0000
  H   H3731     1.0  0.87436  0.41063  0.36314  1.0000
  H   H3732     1.0  0.87832  0.40601  0.34262  1.0000
  H   H3733     1.0  0.86788  0.42701  0.34580  1.0000
  H   H3734     1.0  0.84441  0.41603  0.38023  1.0000
  N   N236      1.0  0.56071  0.42071  0.36538  1.0000
  C   C2353     1.0  0.54604  0.41749  0.37957  1.0000
  C   C2354     1.0  0.57174  0.40433  0.36211  1.0000
  C   C2355     1.0  0.57074  0.43033  0.36981  1.0000
  C   C2356     1.0  0.55432  0.43064  0.35004  1.0000
  H   H3735     1.0  0.53813  0.41035  0.37658  1.0000
  H   H3736     1.0  0.53751  0.42956  0.38255  1.0000
  H   H3737     1.0  0.55047  0.40981  0.39128  1.0000
  H   H3738     1.0  0.58304  0.40620  0.35156  1.0000
  H   H3739     1.0  0.57664  0.39645  0.37350  1.0000
  H   H3740     1.0  0.56457  0.39677  0.35868  1.0000
  H   H3741     1.0  0.58220  0.43259  0.35957  1.0000
  H   H3742     1.0  0.57542  0.42343  0.38155  1.0000
  H   H3743     1.0  0.56295  0.44296  0.37194  1.0000
  H   H3744     1.0  0.56508  0.43331  0.33909  1.0000
  H   H3745     1.0  0.54592  0.44310  0.35204  1.0000
  H   H3746     1.0  0.54676  0.42375  0.34624  1.0000
  C   C2357     1.0  0.97865  0.34677  0.37644  1.0000
  H   H3747     1.0  0.96976  0.35419  0.48037  1.0000
  H   H3748     1.0  0.66311  0.15588  0.47980  1.0000
  C   C2358     1.0  0.53072  0.29036  0.39650  1.0000
  C   C2359     1.0  0.55303  0.47978  0.33952  1.0000
  C   C2360     1.0  0.89121  0.34910  0.47398  1.0000
  H   H3749     1.0  0.95561  0.15672  0.36563  1.0000
  H   H3750     1.0  0.77925  0.11346  0.34124  1.0000
  N   N237      1.0  0.59200  0.01404  0.36425  1.0000
  C   C2361     1.0  0.84033  0.15796  0.46417  1.0000
  C   C2362     1.0  0.79613  0.99016  0.35814  1.0000
  C   C2363     1.0  0.54889  0.10975  0.25264  1.0000
  C   C2364     1.0  0.77410  0.12148  0.35085  1.0000
  C   C2365     1.0  0.51428  0.47442  0.24308  1.0000
  H   H3751     1.0  0.54073  0.39872  0.47179  1.0000
  H   H3752     1.0  0.79919  0.46201  0.42845  1.0000
  C   C2366     1.0  0.82224  0.46549  0.31666  1.0000
  N   N238      1.0  0.59185  0.17330  0.48014  1.0000
  H   H3753     1.0  0.88838  0.26412  0.45669  1.0000
  H   H3754     1.0  0.96106  0.43444  0.27210  1.0000
  C   C2367     1.0  0.74945  0.13327  0.37048  1.0000
  C   C2368     1.0  0.56455  0.15305  0.45740  1.0000
  C   C2369     1.0  0.90017  0.05160  0.26107  1.0000
  C   C2370     1.0  0.50379  0.39278  0.37640  1.0000
  H   H3755     1.0  0.58088  0.99990  0.35388  1.0000
  N   N239      1.0  0.90904  0.26182  0.43486  1.0000
  C   C2371     1.0  0.91526  0.27245  0.41829  1.0000
  C   C2372     1.0  0.90499  0.24675  0.43222  1.0000
  H   H3756     1.0  0.90528  0.27713  0.41062  1.0000
  H   H3757     1.0  0.92681  0.26527  0.41080  1.0000
  H   H3758     1.0  0.91881  0.28372  0.41981  1.0000
  H   H3759     1.0  0.93441  0.24874  0.43825  1.0000
  H   H3760     1.0  0.90045  0.23831  0.44446  1.0000
  H   H3761     1.0  0.91646  0.23898  0.42524  1.0000
  H   H3762     1.0  0.89478  0.25042  0.42485  1.0000
  H   H3763     1.0  0.89538  0.35379  0.43169  1.0000
  H   H3764     1.0  0.71824  0.10209  0.44579  1.0000
  H   H3765     1.0  0.58255  0.01504  0.39056  1.0000
  H   H3766     1.0  0.91568  0.18432  0.47276  1.0000
  C   C2373     1.0  0.97421  0.35810  0.46643  1.0000
  H   H3767     1.0  0.99203  0.13249  0.38611  1.0000
  C   C2374     1.0  0.56608  0.47083  0.32868  1.0000
  S   S945      1.0  0.52660  0.18613  0.41014  1.0000
  H   H3768     1.0  0.86812  0.05669  0.27972  1.0000
  H   H3769     1.0  0.75881  0.09944  0.37613  1.0000
  H   H3770     1.0  0.84632  0.05904  0.45559  1.0000
  H   H3771     1.0  0.59276  0.45821  0.32331  1.0000
  C   C2375     1.0  0.74622  0.13053  0.34376  1.0000
  C   C2376     1.0  0.82713  0.46747  0.34310  1.0000
  H   H3772     1.0  0.75674  0.09715  0.35627  1.0000
  C   C2377     1.0  0.97719  0.22178  0.45830  1.0000
  H   H3773     1.0  0.53117  0.31334  0.40314  1.0000
  H   H3774     1.0  0.51441  0.16362  0.46871  1.0000
  S   S946      1.0  0.52087  0.22206  0.38208  1.0000
  H   H3775     1.0  0.88131  0.08102  0.27057  1.0000
  C   C2378     1.0  0.86019  0.15726  0.43718  1.0000
  H   H3776     1.0  0.95016  0.13876  0.28760  1.0000
  H   H3777     1.0  0.71450  0.08962  0.46698  1.0000
  H   H3778     1.0  0.98144  0.16674  0.27069  1.0000
  H   H3779     1.0  0.67298  0.12519  0.44780  1.0000
  H   H3780     1.0  0.90667  0.31829  0.46717  1.0000
  H   H3781     1.0  0.77722  0.13414  0.34480  1.0000
  N   N240      1.0  0.86987  0.12536  0.34883  1.0000
  C   C2379     1.0  0.87569  0.14055  0.34876  1.0000
  C   C2380     1.0  0.85163  0.13018  0.34774  1.0000
  C   C2381     1.0  0.87178  0.11270  0.36469  1.0000
  C   C2382     1.0  0.88035  0.11801  0.33418  1.0000
  H   H3782     1.0  0.86800  0.14651  0.35959  1.0000
  H   H3783     1.0  0.87454  0.15035  0.33692  1.0000
  H   H3784     1.0  0.88938  0.13736  0.34969  1.0000
  H   H3785     1.0  0.84675  0.11896  0.34799  1.0000
  H   H3786     1.0  0.84340  0.13589  0.35853  1.0000
  H   H3787     1.0  0.84971  0.13958  0.33584  1.0000
  H   H3788     1.0  0.86743  0.10109  0.36523  1.0000
  H   H3789     1.0  0.86401  0.11787  0.37597  1.0000
  H   H3790     1.0  0.88537  0.10878  0.36601  1.0000
  H   H3791     1.0  0.87630  0.10654  0.33381  1.0000
  H   H3792     1.0  0.89419  0.11423  0.33460  1.0000
  H   H3793     1.0  0.87926  0.12727  0.32198  1.0000
  N   N241      1.0  0.60493  0.19689  0.36340  1.0000
  C   C2383     1.0  0.60782  0.20534  0.37533  1.0000
  C   C2384     1.0  0.59914  0.18110  0.37291  1.0000
  C   C2385     1.0  0.62108  0.19277  0.35097  1.0000
  C   C2386     1.0  0.59166  0.20827  0.35442  1.0000
  H   H3794     1.0  0.61225  0.21729  0.36861  1.0000
  H   H3795     1.0  0.61771  0.19699  0.38237  1.0000
  H   H3796     1.0  0.59583  0.20861  0.38487  1.0000
  H   H3797     1.0  0.59678  0.17440  0.36429  1.0000
  H   H3798     1.0  0.60893  0.17214  0.37961  1.0000
  H   H3799     1.0  0.58704  0.18366  0.38249  1.0000
  H   H3800     1.0  0.61940  0.18599  0.34204  1.0000
  H   H3801     1.0  0.63142  0.18424  0.35733  1.0000
  H   H3802     1.0  0.62576  0.20436  0.34337  1.0000
  H   H3803     1.0  0.59559  0.22028  0.34698  1.0000
  H   H3804     1.0  0.57927  0.21164  0.36341  1.0000
  H   H3805     1.0  0.58900  0.20209  0.34554  1.0000
  N   N242      1.0  0.87372  0.29909  0.34417  1.0000
  C   C2387     1.0  0.85962  0.29872  0.33681  1.0000
  C   C2388     1.0  0.88702  0.28332  0.34325  1.0000
  C   C2389     1.0  0.86691  0.30046  0.36203  1.0000
  C   C2390     1.0  0.88135  0.31386  0.33462  1.0000
  H   H3806     1.0  0.84934  0.31041  0.33737  1.0000
  H   H3807     1.0  0.85368  0.28766  0.34376  1.0000
  H   H3808     1.0  0.86429  0.29774  0.32331  1.0000
  H   H3809     1.0  0.89807  0.28340  0.34827  1.0000
  H   H3810     1.0  0.88188  0.27190  0.35078  1.0000
  H   H3811     1.0  0.89215  0.28160  0.33000  1.0000
  H   H3812     1.0  0.87720  0.30076  0.36797  1.0000
  H   H3813     1.0  0.86114  0.28948  0.36973  1.0000
  H   H3814     1.0  0.85689  0.31224  0.36327  1.0000
  H   H3815     1.0  0.89201  0.31453  0.33989  1.0000
  H   H3816     1.0  0.87174  0.32603  0.33513  1.0000
  H   H3817     1.0  0.88665  0.31334  0.32106  1.0000
  C   C2391     1.0  0.70333  0.46463  0.36930  1.0000
  C   C2392     1.0  0.97644  0.34057  0.35087  1.0000
  H   H3818     1.0  0.73820  0.10597  0.37073  1.0000
  H   H3819     1.0  0.98124  0.39650  0.46533  1.0000
  H   H3820     1.0  0.86151  0.17458  0.46882  1.0000
  H   H3821     1.0  0.98320  0.31592  0.42312  1.0000
  C   C2393     1.0  0.85118  0.46272  0.31941  1.0000
  H   H3822     1.0  0.82628  0.02169  0.47579  1.0000
  H   H3823     1.0  0.92585  0.26746  0.44701  1.0000
  H   H3824     1.0  0.90646  0.16329  0.46344  1.0000
  H   H3825     1.0  0.75045  0.12285  0.33387  1.0000
  H   H3826     1.0  0.87995  0.35976  0.47605  1.0000
  H   H3827     1.0  0.86476  0.46094  0.31409  1.0000
  H   H3828     1.0  0.84150  0.38631  0.36772  1.0000
  C   C2394     1.0  0.96679  0.42077  0.30352  1.0000
  H   H3829     1.0  0.98874  0.39686  0.36203  1.0000
  H   H3830     1.0  0.99442  0.43465  0.29372  1.0000
  H   H3831     1.0  0.60016  0.15210  0.46799  1.0000
  C   C2395     1.0  0.57333  0.47685  0.35681  1.0000
  H   H3832     1.0  0.57596  0.47941  0.36757  1.0000
  C   C2396     1.0  0.98840  0.09534  0.31718  1.0000
  H   H3833     1.0  0.83843  0.15873  0.47760  1.0000
  H   H3834     1.0  0.92282  0.47140  0.28807  1.0000
  S   S947      1.0  0.62992  0.47565  0.37730  1.0000
  H   H3835     1.0  0.97894  0.12140  0.28445  1.0000
  S   S948      1.0  0.73568  0.46729  0.36903  1.0000
  Fe  Fe480     1.0  0.91867  0.21526  0.47967  1.0000
  H   H3836     1.0  0.51285  0.18938  0.47813  1.0000
  C   C2397     1.0  0.96181  0.45006  0.30509  1.0000
  H   H3837     1.0  0.97289  0.19815  0.44476  1.0000
  H   H3838     1.0  0.50779  0.47075  0.25609  1.0000
  C   C2398     1.0  0.68165  0.10574  0.47650  1.0000
  N   N243      1.0  0.55359  0.27902  0.48151  1.0000
  H   H3839     1.0  0.98582  0.34345  0.38671  1.0000
  S   S949      1.0  0.89227  0.23181  0.48317  1.0000
  H   H3840     1.0  0.97850  0.36034  0.37027  1.0000
  H   H3841     1.0  0.85754  0.03728  0.45678  1.0000
  H   H3842     1.0  0.99765  0.36490  0.43811  1.0000
  C   C2399     1.0  0.81483  0.05364  0.46017  1.0000
  H   H3843     1.0  0.99559  0.13529  0.34044  1.0000
  H   H3844     1.0  0.59656  0.40255  0.46531  1.0000
  H   H3845     1.0  0.92015  0.48152  0.31390  1.0000
  H   H3846     1.0  0.86696  0.13100  0.46261  1.0000
  C   C2400     1.0  0.77440  0.99882  0.43035  1.0000
  H   H3847     1.0  0.69574  0.09184  0.43964  1.0000
  C   C2401     1.0  0.78312  0.47841  0.47015  1.0000
  C   C2402     1.0  0.52787  0.01771  0.34907  1.0000
  H   H3848     1.0  0.81778  0.99425  0.41862  1.0000
  H   H3849     1.0  0.57040  0.43514  0.46670  1.0000
  C   C2403     1.0  0.82979  0.02441  0.46169  1.0000
  N   N244      1.0  0.79452  0.99247  0.37535  1.0000
  H   H3850     1.0  0.83691  0.05872  0.43013  1.0000
  C   C2404     1.0  0.50367  0.41453  0.35041  1.0000
  C   C2405     1.0  0.53689  0.27447  0.48429  1.0000
  H   H3851     1.0  0.95681  0.15557  0.27076  1.0000
  C   C2406     1.0  0.97081  0.19602  0.47769  1.0000
  C   C2407     1.0  0.55069  0.29719  0.48156  1.0000
  H   H3852     1.0  0.68511  0.09341  0.48531  1.0000
  H   H3853     1.0  0.69172  0.07953  0.46086  1.0000
  C   C2408     1.0  0.99449  0.08621  0.29075  1.0000
  H   H3854     1.0  0.87724  0.33339  0.44821  1.0000
  H   H3855     1.0  0.65968  0.48333  0.39470  1.0000
  H   H3856     1.0  0.77860  0.48295  0.48180  1.0000
  H   H3857     1.0  0.80843  0.99278  0.34962  1.0000
  H   H3858     1.0  0.71720  0.99096  0.44564  1.0000
  C   C2409     1.0  0.51216  0.37299  0.48465  1.0000
  S   S950      1.0  0.50133  0.36291  0.47652  1.0000
  C   C2410     1.0  0.79175  0.99081  0.42757  1.0000
  S   S951      1.0  0.50221  0.34892  0.43723  1.0000
  H   H3859     1.0  0.76692  0.99738  0.38129  1.0000
  S   S952      1.0  0.53209  0.48756  0.33577  1.0000
  H   H3860     1.0  0.50060  0.34634  0.40064  1.0000
  H   H3861     1.0  0.99559  0.07068  0.24793  1.0000
  H   H3862     1.0  0.69462  0.48937  0.39353  1.0000
  H   H3863     1.0  0.58207  0.15073  0.48542  1.0000
  H   H3864     1.0  0.88713  0.05018  0.23570  1.0000
  Fe  Fe481     1.0  0.79621  0.11784  0.55532  1.0000
  S   S953      1.0  0.81576  0.10681  0.53448  1.0000
  S   S954      1.0  0.76737  0.11980  0.56254  1.0000
  Fe  Fe482     1.0  0.82392  0.12026  0.57188  1.0000
  S   S955      1.0  0.84550  0.10904  0.55280  1.0000
  S   S956      1.0  0.82825  0.13041  0.59216  1.0000
  Fe  Fe483     1.0  0.83037  0.12621  0.53390  1.0000
  S   S957      1.0  0.84587  0.14053  0.51046  1.0000
  Fe  Fe484     1.0  0.82921  0.09078  0.55513  1.0000
  S   S958      1.0  0.83840  0.06232  0.56009  1.0000
  S   S959      1.0  0.80955  0.13863  0.55296  1.0000
  S   S960      1.0  0.80890  0.10053  0.57604  1.0000
  Fe  Fe485     1.0  0.91127  0.12570  0.65660  1.0000
  S   S961      1.0  0.92401  0.10170  0.64750  1.0000
  S   S962      1.0  0.90306  0.12771  0.68395  1.0000
  Fe  Fe486     1.0  0.91015  0.14640  0.62089  1.0000
  S   S963      1.0  0.92305  0.12400  0.60892  1.0000
  S   S964      1.0  0.89798  0.17142  0.60640  1.0000
  Fe  Fe487     1.0  0.90547  0.11034  0.63029  1.0000
  S   S965      1.0  0.89120  0.09266  0.62672  1.0000
  Fe  Fe488     1.0  0.94034  0.11770  0.62724  1.0000
  S   S966      1.0  0.96834  0.10498  0.62260  1.0000
  S   S967      1.0  0.89140  0.13311  0.64109  1.0000
  S   S968      1.0  0.92882  0.14138  0.63750  1.0000
  Fe  Fe489     1.0  0.88744  0.21394  0.50840  1.0000
  S   S969      1.0  0.91295  0.19598  0.50373  1.0000
  S   S970      1.0  0.86262  0.20560  0.52161  1.0000
  H   H3865     1.0  0.97858  0.32840  0.59260  1.0000
  H   H3866     1.0  0.57158  0.47234  0.64595  1.0000
  H   H3867     1.0  0.60435  0.10217  0.67102  1.0000
  H   H3868     1.0  0.89070  0.30681  0.49779  1.0000
  Fe  Fe490     1.0  0.92160  0.21233  0.51535  1.0000
  S   S971      1.0  0.93900  0.19980  0.53355  1.0000
  H   H3869     1.0  0.61067  0.16740  0.56197  1.0000
  S   S972      1.0  0.89575  0.22928  0.52160  1.0000
  S   S973      1.0  0.88897  0.37816  0.49820  1.0000
  H   H3870     1.0  0.96360  0.34202  0.58017  1.0000
  S   S974      1.0  0.82604  0.02598  0.50921  1.0000
  C   C2411     1.0  0.97590  0.37146  0.52228  1.0000
  C   C2412     1.0  0.97040  0.39079  0.54090  1.0000
  N   N245      1.0  0.96477  0.10563  0.67825  1.0000
  C   C2413     1.0  0.87458  0.17078  0.55387  1.0000
  H   H3871     1.0  0.86697  0.36428  0.52933  1.0000
  Fe  Fe491     1.0  0.66740  0.45552  0.54963  1.0000
  S   S975      1.0  0.65478  0.47066  0.52815  1.0000
  S   S976      1.0  0.69472  0.44055  0.54514  1.0000
  Fe  Fe492     1.0  0.63585  0.46571  0.57634  1.0000
  S   S977      1.0  0.62493  0.46128  0.60438  1.0000
  Fe  Fe493     1.0  0.63154  0.46052  0.54358  1.0000
  S   S978      1.0  0.61301  0.45538  0.53131  1.0000
  S   S979      1.0  0.64494  0.44343  0.56383  1.0000
  S   S980      1.0  0.65944  0.47629  0.56399  1.0000
  H   H3872     1.0  0.51795  0.03837  0.60945  1.0000
  S   S981      1.0  0.54107  0.46008  0.66207  1.0000
  Fe  Fe494     1.0  0.52578  0.45183  0.64876  1.0000
  S   S982      1.0  0.53690  0.42741  0.63979  1.0000
  Fe  Fe495     1.0  0.51607  0.46685  0.68020  1.0000
  H   H3873     1.0  0.95778  0.43276  0.59400  1.0000
  S   S983      1.0  0.51935  0.47706  0.63149  1.0000
  Fe  Fe496     1.0  0.54044  0.38975  0.53299  1.0000
  S   S984      1.0  0.56167  0.36766  0.53955  1.0000
  S   S985      1.0  0.53950  0.40024  0.50566  1.0000
  Fe  Fe497     1.0  0.52706  0.39456  0.56901  1.0000
  S   S986      1.0  0.54688  0.37262  0.57854  1.0000
  C   C2414     1.0  0.58805  0.43042  0.49077  1.0000
  Fe  Fe498     1.0  0.56523  0.38328  0.55561  1.0000
  S   S987      1.0  0.59117  0.38437  0.55837  1.0000
  Fe  Fe499     1.0  0.54128  0.35911  0.56164  1.0000
  S   S988      1.0  0.54002  0.33153  0.57221  1.0000
  S   S989      1.0  0.54575  0.40611  0.54715  1.0000
  S   S990      1.0  0.51965  0.38026  0.55405  1.0000
  S   S991      1.0  0.62068  0.48187  0.55723  1.0000
  Fe  Fe500     1.0  0.55688  0.22636  0.53125  1.0000
  S   S992      1.0  0.55667  0.24333  0.54775  1.0000
  S   S993      1.0  0.58034  0.21638  0.51282  1.0000
  Fe  Fe501     1.0  0.51915  0.22510  0.54570  1.0000
  H   H3874     1.0  0.89277  0.03629  0.57172  1.0000
  H   H3875     1.0  0.99038  0.33369  0.53891  1.0000
  Fe  Fe502     1.0  0.53142  0.25749  0.54113  1.0000
  S   S994      1.0  0.52559  0.28592  0.53075  1.0000
  Fe  Fe503     1.0  0.54126  0.22632  0.56814  1.0000
  S   S995      1.0  0.54744  0.21434  0.59372  1.0000
  S   S996      1.0  0.53265  0.24155  0.52304  1.0000
  S   S997      1.0  0.54359  0.20828  0.55205  1.0000
  Fe  Fe504     1.0  0.54037  0.12673  0.64243  1.0000
  S   S998      1.0  0.55196  0.13240  0.66086  1.0000
  S   S999      1.0  0.52134  0.14609  0.62849  1.0000
  Fe  Fe505     1.0  0.56146  0.09045  0.64521  1.0000
  S   S1000     1.0  0.57493  0.09325  0.66373  1.0000
  S   S1001     1.0  0.57051  0.06624  0.63538  1.0000
  Fe  Fe506     1.0  0.54901  0.10649  0.67603  1.0000
  Fe  Fe507     1.0  0.57673  0.11874  0.64691  1.0000
  S   S1002     1.0  0.60075  0.12893  0.63873  1.0000
  S   S1003     1.0  0.53517  0.10176  0.65877  1.0000
  S   S1004     1.0  0.56540  0.11506  0.62731  1.0000
  Fe  Fe508     1.0  0.65705  0.11910  0.55327  1.0000
  S   S1005     1.0  0.67379  0.13609  0.55326  1.0000
  S   S1006     1.0  0.64701  0.09956  0.57535  1.0000
  Fe  Fe509     1.0  0.65385  0.13491  0.51691  1.0000
  S   S1007     1.0  0.67021  0.15330  0.51354  1.0000
  S   S1008     1.0  0.63975  0.13307  0.49839  1.0000
  Fe  Fe510     1.0  0.68724  0.13126  0.52735  1.0000
  S   S1009     1.0  0.71577  0.12791  0.51610  1.0000
  Fe  Fe511     1.0  0.65556  0.15656  0.53951  1.0000
  S   S1010     1.0  0.64454  0.18191  0.54640  1.0000
  S   S1011     1.0  0.67201  0.11241  0.52845  1.0000
  S   S1012     1.0  0.63768  0.14006  0.54181  1.0000
  H   H3876     1.0  0.59711  0.13887  0.67383  1.0000
  S   S1013     1.0  0.75857  0.99383  0.53560  1.0000
  H   H3877     1.0  0.87467  0.13974  0.55095  1.0000
  S   S1014     1.0  0.96891  0.35907  0.51289  1.0000
  H   H3878     1.0  0.50758  0.14193  0.60097  1.0000
  S   S1015     1.0  0.52322  0.01248  0.66370  1.0000
  H   H3879     1.0  0.84064  0.42028  0.54240  1.0000
  Fe  Fe512     1.0  0.89146  0.43863  0.65144  1.0000
  S   S1016     1.0  0.91576  0.44474  0.63347  1.0000
  S   S1017     1.0  0.88721  0.42584  0.67925  1.0000
  Fe  Fe513     1.0  0.87191  0.44746  0.62303  1.0000
  S   S1018     1.0  0.89435  0.45445  0.60295  1.0000
  S   S1019     1.0  0.84620  0.44729  0.61887  1.0000
  Fe  Fe514     1.0  0.91000  0.43128  0.61655  1.0000
  S   S1020     1.0  0.92975  0.41366  0.60121  1.0000
  Fe  Fe515     1.0  0.89790  0.46739  0.62142  1.0000
  H   H3880     1.0  0.86069  0.40518  0.57992  1.0000
  S   S1021     1.0  0.88732  0.42329  0.63547  1.0000
  S   S1022     1.0  0.87404  0.46230  0.64055  1.0000
  Fe  Fe516     1.0  0.77853  0.46725  0.53371  1.0000
  H   H3881     1.0  0.73720  0.46736  0.49035  1.0000
  H   H3882     1.0  0.57113  0.40611  0.50896  1.0000
  Fe  Fe517     1.0  0.80669  0.43588  0.53051  1.0000
  S   S1023     1.0  0.82686  0.45073  0.51669  1.0000
  S   S1024     1.0  0.81407  0.40743  0.53678  1.0000
  Fe  Fe518     1.0  0.81475  0.46684  0.53585  1.0000
  S   S1025     1.0  0.83362  0.47598  0.54422  1.0000
  Fe  Fe519     1.0  0.80712  0.46704  0.50225  1.0000
  S   S1026     1.0  0.79584  0.45075  0.55107  1.0000
  S   S1027     1.0  0.78771  0.45088  0.51450  1.0000
  Fe  Fe520     1.0  0.92164  0.32853  0.53511  1.0000
  S   S1028     1.0  0.93009  0.34436  0.50950  1.0000
  S   S1029     1.0  0.92586  0.30022  0.53851  1.0000
  Fe  Fe521     1.0  0.91038  0.35893  0.55188  1.0000
  S   S1030     1.0  0.91819  0.37707  0.52762  1.0000
  S   S1031     1.0  0.89622  0.36897  0.57523  1.0000
  Fe  Fe522     1.0  0.90581  0.36326  0.51654  1.0000
  H   H3883     1.0  0.97603  0.45916  0.71400  1.0000
  Fe  Fe523     1.0  0.94154  0.35637  0.52327  1.0000
  S   S1032     1.0  0.89638  0.34639  0.54114  1.0000
  S   S1033     1.0  0.93481  0.33924  0.54855  1.0000
  C   C2415     1.0  0.96433  0.38142  0.53316  1.0000
  H   H3884     1.0  0.95072  0.38198  0.53559  1.0000
  H   H3885     1.0  0.96145  0.39860  0.54921  1.0000
  N   N246      1.0  0.50458  0.01800  0.62050  1.0000
  H   H3886     1.0  0.87542  0.00653  0.61047  1.0000
  C   C2416     1.0  0.83440  0.39900  0.52536  1.0000
  C   C2417     1.0  0.84185  0.40815  0.50974  1.0000
  C   C2418     1.0  0.85847  0.40154  0.50127  1.0000
  C   C2419     1.0  0.86779  0.38587  0.50847  1.0000
  C   C2420     1.0  0.86018  0.37660  0.52392  1.0000
  C   C2421     1.0  0.84353  0.38311  0.53230  1.0000
  H   H3887     1.0  0.83472  0.42019  0.50404  1.0000
  H   H3888     1.0  0.49944  0.44129  0.59946  1.0000
  H   H3889     1.0  0.83778  0.37590  0.54429  1.0000
  H   H3890     1.0  0.90331  0.15716  0.56598  1.0000
  H   H3891     1.0  0.61602  0.34372  0.56035  1.0000
  C   C2422     1.0  0.50634  0.99578  0.71052  1.0000
  Fe  Fe524     1.0  0.53303  0.48584  0.64604  1.0000
  H   H3892     1.0  0.99133  0.10001  0.67960  1.0000
  C   C2423     1.0  0.84299  0.45484  0.59798  1.0000
  C   C2424     1.0  0.82847  0.45267  0.59404  1.0000
  C   C2425     1.0  0.82552  0.45892  0.57754  1.0000
  C   C2426     1.0  0.83697  0.46759  0.56496  1.0000
  C   C2427     1.0  0.85149  0.46972  0.56890  1.0000
  C   C2428     1.0  0.85455  0.46327  0.58530  1.0000
  H   H3893     1.0  0.81943  0.44620  0.60378  1.0000
  H   H3894     1.0  0.81422  0.45732  0.57467  1.0000
  H   H3895     1.0  0.51833  0.99223  0.62030  1.0000
  H   H3896     1.0  0.86571  0.46506  0.58816  1.0000
  C   C2429     1.0  0.92057  0.40141  0.59356  1.0000
  C   C2430     1.0  0.93075  0.39152  0.58189  1.0000
  C   C2431     1.0  0.92342  0.38167  0.57587  1.0000
  C   C2432     1.0  0.90601  0.38130  0.58196  1.0000
  C   C2433     1.0  0.89598  0.39097  0.59376  1.0000
  C   C2434     1.0  0.90313  0.40127  0.59922  1.0000
  H   H3897     1.0  0.94426  0.39155  0.57747  1.0000
  H   H3898     1.0  0.93124  0.37421  0.56675  1.0000
  H   H3899     1.0  0.88256  0.39060  0.59864  1.0000
  H   H3900     1.0  0.89510  0.40894  0.60796  1.0000
  C   C2435     1.0  0.89681  0.44795  0.71916  1.0000
  C   C2436     1.0  0.89724  0.45753  0.70254  1.0000
  C   C2437     1.0  0.89464  0.45079  0.69008  1.0000
  C   C2438     1.0  0.89138  0.43449  0.69424  1.0000
  C   C2439     1.0  0.89098  0.42492  0.71084  1.0000
  C   C2440     1.0  0.89380  0.43157  0.72324  1.0000
  H   H3901     1.0  0.89956  0.47020  0.69928  1.0000
  H   H3902     1.0  0.89495  0.45827  0.67733  1.0000
  H   H3903     1.0  0.88851  0.41229  0.71412  1.0000
  H   H3904     1.0  0.51277  0.17296  0.60031  1.0000
  H   H3905     1.0  0.60031  0.13686  0.58944  1.0000
  H   H3906     1.0  0.58147  0.19035  0.49717  1.0000
  H   H3907     1.0  0.59587  0.35092  0.55410  1.0000
  H   H3908     1.0  0.86578  0.43274  0.52862  1.0000
  H   H3909     1.0  0.87602  0.16805  0.58561  1.0000
  H   H3910     1.0  0.56479  0.25481  0.49558  1.0000
  H   H3911     1.0  0.85614  0.09368  0.66027  1.0000
  S   S1034     1.0  0.99565  0.40047  0.54886  1.0000
  C   C2441     1.0  0.60727  0.31640  0.58432  1.0000
  H   H3912     1.0  0.51071  0.44770  0.62101  1.0000
  H   H3913     1.0  0.84770  0.02683  0.60892  1.0000
  H   H3914     1.0  0.51356  0.12380  0.68748  1.0000
  C   C2442     1.0  0.55729  0.05137  0.64377  1.0000
  C   C2443     1.0  0.56416  0.03444  0.64242  1.0000
  C   C2444     1.0  0.55380  0.02241  0.64868  1.0000
  C   C2445     1.0  0.53648  0.02729  0.65622  1.0000
  C   C2446     1.0  0.52959  0.04421  0.65754  1.0000
  C   C2447     1.0  0.53999  0.05621  0.65140  1.0000
  H   H3915     1.0  0.57757  0.03054  0.63679  1.0000
  H   H3916     1.0  0.52552  0.02343  0.62699  1.0000
  H   H3917     1.0  0.51618  0.04806  0.66331  1.0000
  H   H3918     1.0  0.53455  0.06925  0.65236  1.0000
  C   C2448     1.0  0.61419  0.12050  0.62149  1.0000
  C   C2449     1.0  0.62650  0.12905  0.61008  1.0000
  C   C2450     1.0  0.63647  0.12286  0.59570  1.0000
  C   C2451     1.0  0.63455  0.10779  0.59304  1.0000
  C   C2452     1.0  0.62254  0.09906  0.60468  1.0000
  C   C2453     1.0  0.61223  0.10551  0.61874  1.0000
  H   H3919     1.0  0.62814  0.14060  0.61221  1.0000
  H   H3920     1.0  0.64583  0.12958  0.58682  1.0000
  H   H3921     1.0  0.62107  0.08739  0.60272  1.0000
  H   H3922     1.0  0.60288  0.09873  0.62756  1.0000
  N   N247      1.0  0.87806  0.15476  0.56638  1.0000
  C   C2454     1.0  0.84330  0.41926  0.55491  1.0000
  H   H3923     1.0  0.86417  0.40870  0.48922  1.0000
  H   H3924     1.0  0.55927  0.00935  0.64775  1.0000
  C   C2455     1.0  0.75741  0.42779  0.50732  1.0000
  C   C2456     1.0  0.59825  0.20712  0.52213  1.0000
  C   C2457     1.0  0.61157  0.19506  0.51501  1.0000
  C   C2458     1.0  0.62576  0.18729  0.52246  1.0000
  C   C2459     1.0  0.62704  0.19202  0.53670  1.0000
  C   C2460     1.0  0.61390  0.20432  0.54364  1.0000
  C   C2461     1.0  0.59939  0.21161  0.53656  1.0000
  H   H3925     1.0  0.61088  0.19160  0.50381  1.0000
  H   H3926     1.0  0.63582  0.17780  0.51701  1.0000
  H   H3927     1.0  0.61480  0.20804  0.55465  1.0000
  H   H3928     1.0  0.58927  0.22094  0.54212  1.0000
  C   C2462     1.0  0.53926  0.19595  0.60374  1.0000
  C   C2463     1.0  0.54511  0.18527  0.61792  1.0000
  C   C2464     1.0  0.53969  0.16996  0.62546  1.0000
  C   C2465     1.0  0.52806  0.16540  0.61916  1.0000
  H   H3929     1.0  0.58114  0.12724  0.67647  1.0000
  C   C2466     1.0  0.52751  0.19150  0.59747  1.0000
  H   H3930     1.0  0.55402  0.18875  0.62295  1.0000
  H   H3931     1.0  0.54440  0.16184  0.63629  1.0000
  H   H3932     1.0  0.99555  0.40596  0.72902  1.0000
  C   C2467     1.0  0.96569  0.42584  0.60355  1.0000
  C   C2468     1.0  0.53641  0.31913  0.56014  1.0000
  C   C2469     1.0  0.53288  0.32612  0.54402  1.0000
  C   C2470     1.0  0.52979  0.31580  0.53497  1.0000
  C   C2471     1.0  0.53028  0.29847  0.54196  1.0000
  C   C2472     1.0  0.53401  0.29149  0.55796  1.0000
  C   C2473     1.0  0.53700  0.30180  0.56702  1.0000
  H   H3933     1.0  0.53244  0.33946  0.53858  1.0000
  H   H3934     1.0  0.52706  0.32130  0.52254  1.0000
  H   H3935     1.0  0.53436  0.27818  0.56349  1.0000
  H   H3936     1.0  0.53969  0.29632  0.57949  1.0000
  C   C2474     1.0  0.52904  0.38952  0.49777  1.0000
  C   C2475     1.0  0.51770  0.37962  0.50871  1.0000
  N   N248      1.0  0.98758  0.33050  0.56575  1.0000
  Fe  Fe525     1.0  0.81859  0.00097  0.52256  1.0000
  H   H3937     1.0  0.91894  0.48689  0.70874  1.0000
  H   H3938     1.0  0.84274  0.44648  0.65435  1.0000
  H   H3939     1.0  0.51534  0.37839  0.52219  1.0000
  H   H3940     1.0  0.58053  0.13755  0.69280  1.0000
  H   H3941     1.0  0.59984  0.99959  0.59113  1.0000
  H   H3942     1.0  0.87985  0.01223  0.57273  1.0000
  C   C2476     1.0  0.52879  0.42374  0.62425  1.0000
  C   C2477     1.0  0.51585  0.43572  0.61712  1.0000
  C   C2478     1.0  0.50947  0.43208  0.60496  1.0000
  C   C2479     1.0  0.51624  0.41664  0.59972  1.0000
  C   C2480     1.0  0.52927  0.40483  0.60676  1.0000
  C   C2481     1.0  0.53543  0.40832  0.61906  1.0000
  H   H3943     1.0  0.92406  0.25813  0.50921  1.0000
  N   N249      1.0  0.74633  0.44031  0.49651  1.0000
  H   H3944     1.0  0.53433  0.39280  0.60306  1.0000
  H   H3945     1.0  0.54536  0.39898  0.62463  1.0000
  C   C2482     1.0  0.71003  0.45163  0.54486  1.0000
  C   C2483     1.0  0.72657  0.44269  0.54681  1.0000
  C   C2484     1.0  0.73921  0.45141  0.54573  1.0000
  C   C2485     1.0  0.73530  0.46913  0.54277  1.0000
  C   C2486     1.0  0.71875  0.47805  0.54091  1.0000
  C   C2487     1.0  0.70616  0.46935  0.54190  1.0000
  H   H3946     1.0  0.72957  0.42898  0.54923  1.0000
  H   H3947     1.0  0.75194  0.44445  0.54730  1.0000
  H   H3948     1.0  0.95098  0.13162  0.67338  1.0000
  H   H3949     1.0  0.69356  0.47636  0.54003  1.0000
  C   C2488     1.0  0.60707  0.43561  0.53899  1.0000
  C   C2489     1.0  0.61552  0.42259  0.55018  1.0000
  C   C2490     1.0  0.61053  0.40693  0.55608  1.0000
  C   C2491     1.0  0.59698  0.40423  0.55092  1.0000
  C   C2492     1.0  0.58852  0.41726  0.53974  1.0000
  C   C2493     1.0  0.59356  0.43290  0.53379  1.0000
  H   H3950     1.0  0.62611  0.42445  0.55406  1.0000
  H   H3951     1.0  0.61725  0.39685  0.56460  1.0000
  H   H3952     1.0  0.57827  0.41525  0.53547  1.0000
  H   H3953     1.0  0.58696  0.44295  0.52516  1.0000
  H   H3954     1.0  0.58037  0.10050  0.69706  1.0000
  C   C2494     1.0  0.98175  0.11014  0.67346  1.0000
  H   H3955     1.0  0.51311  0.99801  0.64044  1.0000
  H   H3956     1.0  0.96514  0.39429  0.60279  1.0000
  H   H3957     1.0  0.59681  0.09122  0.70902  1.0000
  H   H3958     1.0  0.72308  0.43665  0.51487  1.0000
  H   H3959     1.0  0.58079  0.10938  0.71402  1.0000
  H   H3960     1.0  0.61086  0.30684  0.57633  1.0000
  C   C2495     1.0  0.91528  0.08114  0.72565  1.0000
  C   C2496     1.0  0.58197  0.40245  0.49851  1.0000
  C   C2497     1.0  0.90657  0.28171  0.50234  1.0000
  C   C2498     1.0  0.90058  0.29858  0.50417  1.0000
  C   C2499     1.0  0.90686  0.30462  0.51482  1.0000
  C   C2500     1.0  0.91912  0.29375  0.52366  1.0000
  C   C2501     1.0  0.92545  0.27706  0.52140  1.0000
  C   C2502     1.0  0.91915  0.27104  0.51083  1.0000
  H   H3961     1.0  0.50664  0.31114  0.50844  1.0000
  H   H3962     1.0  0.90185  0.31749  0.51659  1.0000
  H   H3963     1.0  0.93519  0.26876  0.52794  1.0000
  S   S1035     1.0  0.89804  0.27395  0.48974  1.0000
  C   C2503     1.0  0.98317  0.11566  0.62408  1.0000
  C   C2504     1.0  0.97861  0.13296  0.62414  1.0000
  H   H3964     1.0  0.96593  0.14013  0.62274  1.0000
  C   C2505     1.0  0.90975  0.17839  0.58611  1.0000
  C   C2506     1.0  0.90097  0.18978  0.57416  1.0000
  C   C2507     1.0  0.90989  0.19554  0.55777  1.0000
  C   C2508     1.0  0.92776  0.19077  0.55349  1.0000
  C   C2509     1.0  0.93663  0.17943  0.56547  1.0000
  C   C2510     1.0  0.92758  0.17296  0.58171  1.0000
  H   H3965     1.0  0.88719  0.19404  0.57754  1.0000
  H   H3966     1.0  0.90293  0.20398  0.54861  1.0000
  H   H3967     1.0  0.95046  0.17563  0.56220  1.0000
  H   H3968     1.0  0.93441  0.16414  0.59093  1.0000
  C   C2511     1.0  0.75332  0.12270  0.54915  1.0000
  C   C2512     1.0  0.73615  0.12181  0.55659  1.0000
  C   C2513     1.0  0.72458  0.12326  0.54658  1.0000
  C   C2514     1.0  0.73007  0.12578  0.52900  1.0000
  C   C2515     1.0  0.74723  0.12677  0.52152  1.0000
  C   C2516     1.0  0.75884  0.12528  0.53156  1.0000
  H   H3969     1.0  0.73185  0.11968  0.57021  1.0000
  H   H3970     1.0  0.71150  0.12218  0.55249  1.0000
  H   H3971     1.0  0.75153  0.12874  0.50790  1.0000
  H   H3972     1.0  0.77202  0.12608  0.52570  1.0000
  C   C2517     1.0  0.83534  0.05230  0.54567  1.0000
  C   C2518     1.0  0.83436  0.06102  0.52912  1.0000
  C   C2519     1.0  0.83175  0.05280  0.51786  1.0000
  C   C2520     1.0  0.83004  0.03588  0.52316  1.0000
  C   C2521     1.0  0.83102  0.02718  0.53971  1.0000
  C   C2522     1.0  0.83364  0.03538  0.55095  1.0000
  H   H3973     1.0  0.83590  0.07399  0.52490  1.0000
  H   H3974     1.0  0.83104  0.05957  0.50504  1.0000
  H   H3975     1.0  0.82976  0.01410  0.54388  1.0000
  H   H3976     1.0  0.83408  0.02862  0.56380  1.0000
  C   C2523     1.0  0.84550  0.11934  0.60187  1.0000
  C   C2524     1.0  0.85463  0.10317  0.59950  1.0000
  C   C2525     1.0  0.86858  0.09491  0.60729  1.0000
  C   C2526     1.0  0.87373  0.10302  0.61700  1.0000
  C   C2527     1.0  0.86464  0.11923  0.61917  1.0000
  C   C2528     1.0  0.85040  0.12721  0.61191  1.0000
  H   H3977     1.0  0.85085  0.09701  0.59178  1.0000
  H   H3978     1.0  0.87554  0.08235  0.60559  1.0000
  H   H3979     1.0  0.86844  0.12564  0.62655  1.0000
  H   H3980     1.0  0.84331  0.13968  0.61382  1.0000
  C   C2529     1.0  0.85088  0.15843  0.51363  1.0000
  C   C2530     1.0  0.83985  0.16744  0.52558  1.0000
  C   C2531     1.0  0.84351  0.18202  0.52763  1.0000
  C   C2532     1.0  0.85834  0.18764  0.51791  1.0000
  C   C2533     1.0  0.86958  0.17857  0.50606  1.0000
  C   C2534     1.0  0.86580  0.16403  0.50387  1.0000
  H   H3981     1.0  0.82824  0.16346  0.53298  1.0000
  H   H3982     1.0  0.83476  0.18897  0.53681  1.0000
  H   H3983     1.0  0.88114  0.18275  0.49859  1.0000
  C   C2535     1.0  0.96648  0.43001  0.73153  1.0000
  C   C2536     1.0  0.52104  0.46688  0.71938  1.0000
  H   H3984     1.0  0.94561  0.09993  0.70086  1.0000
  H   H3985     1.0  0.88514  0.02336  0.61022  1.0000
  H   H3986     1.0  0.73845  0.45882  0.51198  1.0000
  H   H3987     1.0  0.95698  0.41977  0.61482  1.0000
  H   H3988     1.0  0.53065  0.01772  0.60685  1.0000
  H   H3989     1.0  0.85674  0.16183  0.58629  1.0000
  H   H3990     1.0  0.87226  0.12998  0.57313  1.0000
  H   H3991     1.0  0.97014  0.34437  0.54953  1.0000
  C   C2537     1.0  0.90316  0.11108  0.71675  1.0000
  C   C2538     1.0  0.90769  0.10960  0.69982  1.0000
  C   C2539     1.0  0.91583  0.09381  0.69584  1.0000
  H   H3992     1.0  0.89681  0.12326  0.71993  1.0000
  H   H3993     1.0  0.91932  0.09250  0.68289  1.0000
  N   N250      1.0  0.86183  0.41713  0.55369  1.0000
  H   H3994     1.0  0.87456  0.14640  0.59336  1.0000
  C   C2540     1.0  0.86481  0.41630  0.57045  1.0000
  C   C2541     1.0  0.86795  0.43171  0.54138  1.0000
  C   C2542     1.0  0.87127  0.40129  0.54796  1.0000
  C   C2543     1.0  0.57998  0.32778  0.57621  1.0000
  H   H3995     1.0  0.83824  0.40829  0.56371  1.0000
  H   H3996     1.0  0.87865  0.41500  0.56987  1.0000
  H   H3997     1.0  0.93575  0.48928  0.65173  1.0000
  H   H3998     1.0  0.86674  0.39002  0.55674  1.0000
  H   H3999     1.0  0.96085  0.42778  0.72197  1.0000
  H   H4000     1.0  0.86109  0.44387  0.54532  1.0000
  N   N251      1.0  0.98032  0.41309  0.59678  1.0000
  H   H4001     1.0  0.88192  0.43050  0.54010  1.0000
  H   H4002     1.0  0.86965  0.40164  0.53517  1.0000
  H   H4003     1.0  0.55481  0.27078  0.50780  1.0000
  S   S1036     1.0  0.50971  0.45982  0.70875  1.0000
  H   H4004     1.0  0.97005  0.43537  0.60738  1.0000
  C   C2544     1.0  0.69445  0.16594  0.55880  1.0000
  H   H4005     1.0  0.52269  0.19981  0.58670  1.0000
  C   C2545     1.0  0.96629  0.08979  0.67295  1.0000
  H   H4006     1.0  0.50393  0.23370  0.51443  1.0000
  H   H4007     1.0  0.50221  0.12500  0.59555  1.0000
  H   H4008     1.0  0.96881  0.20163  0.48883  1.0000
  Fe  Fe526     1.0  0.90317  0.24538  0.49590  1.0000
  H   H4009     1.0  0.57126  0.17281  0.50224  1.0000
  H   H4010     1.0  0.60649  0.43499  0.58284  1.0000
  H   H4011     1.0  0.56005  0.44772  0.58211  1.0000
  C   C2546     1.0  0.50836  0.99985  0.62880  1.0000
  H   H4012     1.0  0.61854  0.10794  0.70698  1.0000
  C   C2547     1.0  0.61025  0.11937  0.70066  1.0000
  N   N252      1.0  0.60005  0.11474  0.69139  1.0000
  C   C2548     1.0  0.56247  0.26863  0.49516  1.0000
  C   C2549     1.0  0.98040  0.33266  0.55087  1.0000
  H   H4013     1.0  0.69794  0.19823  0.55153  1.0000
  H   H4014     1.0  0.55605  0.45164  0.61122  1.0000
  H   H4015     1.0  0.85567  0.14686  0.56577  1.0000
  H   H4016     1.0  0.83495  0.40569  0.69704  1.0000
  C   C2550     1.0  0.89679  0.14808  0.56406  1.0000
  S   S1037     1.0  0.79664  0.48466  0.52011  1.0000
  C   C2551     1.0  0.54094  0.48332  0.71943  1.0000
  H   H4017     1.0  0.75242  0.42844  0.52087  1.0000
  H   H4018     1.0  0.84649  0.04541  0.59219  1.0000
  N   N253      1.0  0.77903  0.06937  0.55235  1.0000
  C   C2552     1.0  0.76022  0.07455  0.55794  1.0000
  C   C2553     1.0  0.78351  0.05225  0.54868  1.0000
  C   C2554     1.0  0.78732  0.06921  0.56587  1.0000
  C   C2555     1.0  0.78508  0.08156  0.53691  1.0000
  H   H4019     1.0  0.75352  0.07539  0.54786  1.0000
  H   H4020     1.0  0.75651  0.08723  0.56124  1.0000
  H   H4021     1.0  0.75515  0.06543  0.56936  1.0000
  H   H4022     1.0  0.79761  0.04800  0.54443  1.0000
  H   H4023     1.0  0.77923  0.04265  0.56005  1.0000
  H   H4024     1.0  0.77753  0.05192  0.53847  1.0000
  H   H4025     1.0  0.80154  0.06565  0.56199  1.0000
  H   H4026     1.0  0.78326  0.06002  0.57769  1.0000
  H   H4027     1.0  0.78406  0.08195  0.56902  1.0000
  H   H4028     1.0  0.79917  0.07781  0.53211  1.0000
  H   H4029     1.0  0.78240  0.09447  0.53942  1.0000
  H   H4030     1.0  0.77870  0.08250  0.52656  1.0000
  H   H4031     1.0  0.82135  0.43001  0.65686  1.0000
  H   H4032     1.0  0.53425  0.48170  0.69695  1.0000
  H   H4033     1.0  0.83073  0.48942  0.49819  1.0000
  H   H4034     1.0  0.62024  0.09417  0.68369  1.0000
  H   H4035     1.0  0.56423  0.17372  0.58201  1.0000
  H   H4036     1.0  0.88063  0.18053  0.55515  1.0000
  H   H4037     1.0  0.60002  0.45596  0.58689  1.0000
  C   C2556     1.0  0.72908  0.43642  0.50132  1.0000
  H   H4038     1.0  0.87964  0.16885  0.54068  1.0000
  H   H4039     1.0  0.57469  0.16060  0.60925  1.0000
  H   H4040     1.0  0.60356  0.43805  0.60387  1.0000
  H   H4041     1.0  0.96718  0.31942  0.58312  1.0000
  H   H4042     1.0  0.96632  0.40723  0.58185  1.0000
  C   C2557     1.0  0.57379  0.44820  0.57988  1.0000
  H   H4043     1.0  0.58308  0.41864  0.61468  1.0000
  H   H4044     1.0  0.98619  0.35720  0.56215  1.0000
  H   H4045     1.0  0.86041  0.02774  0.57044  1.0000
  S   S1038     1.0  0.92991  0.22989  0.49082  1.0000
  N   N254      1.0  0.98419  0.43263  0.72435  1.0000
  H   H4046     1.0  0.50459  0.12307  0.61665  1.0000
  H   H4047     1.0  0.69968  0.15210  0.55961  1.0000
  H   H4048     1.0  0.54276  0.30001  0.49391  1.0000
  C   C2558     1.0  0.98417  0.44741  0.70995  1.0000
  H   H4049     1.0  0.95700  0.12149  0.65572  1.0000
  H   H4050     1.0  0.89432  0.01018  0.59491  1.0000
  H   H4051     1.0  0.85709  0.04390  0.60863  1.0000
  C   C2559     1.0  0.57854  0.42389  0.60262  1.0000
  H   H4052     1.0  0.57882  0.39241  0.49427  1.0000
  S   S1039     1.0  0.50150  0.45609  0.66833  1.0000
  C   C2560     1.0  0.99348  0.37084  0.51918  1.0000
  N   N255      1.0  0.61400  0.03994  0.59986  1.0000
  C   C2561     1.0  0.61552  0.03823  0.61738  1.0000
  C   C2562     1.0  0.59691  0.03757  0.60014  1.0000
  C   C2563     1.0  0.62745  0.02694  0.59208  1.0000
  C   C2564     1.0  0.61604  0.05705  0.58991  1.0000
  H   H4053     1.0  0.60553  0.04789  0.62360  1.0000
  H   H4054     1.0  0.62825  0.03996  0.61767  1.0000
  H   H4055     1.0  0.61391  0.02552  0.62530  1.0000
  H   H4056     1.0  0.58645  0.04718  0.60598  1.0000
  H   H4057     1.0  0.59531  0.03876  0.58713  1.0000
  H   H4058     1.0  0.59494  0.02480  0.60758  1.0000
  H   H4059     1.0  0.62645  0.02754  0.57898  1.0000
  H   H4060     1.0  0.62647  0.01388  0.59943  1.0000
  H   H4061     1.0  0.64054  0.02851  0.59133  1.0000
  H   H4062     1.0  0.62875  0.05938  0.58952  1.0000
  H   H4063     1.0  0.60601  0.06713  0.59543  1.0000
  H   H4064     1.0  0.61507  0.05879  0.57658  1.0000
  H   H4065     1.0  0.57789  0.14319  0.58927  1.0000
  C   C2565     1.0  0.53915  0.10550  0.73494  1.0000
  H   H4066     1.0  0.57681  0.18945  0.57655  1.0000
  C   C2566     1.0  0.60753  0.16776  0.57562  1.0000
  H   H4067     1.0  0.83573  0.43097  0.55942  1.0000
  C   C2567     1.0  0.85493  0.03651  0.60054  1.0000
  H   H4068     1.0  0.58120  0.44057  0.57024  1.0000
  H   H4069     1.0  0.50055  0.14474  0.68761  1.0000
  C   C2568     1.0  0.88202  0.01671  0.60206  1.0000
  H   H4070     1.0  0.60275  0.34825  0.58888  1.0000
  H   H4071     1.0  0.99524  0.41301  0.61408  1.0000
  H   H4072     1.0  0.57117  0.33928  0.57072  1.0000
  H   H4073     1.0  0.90258  0.14570  0.55110  1.0000
  H   H4074     1.0  0.98107  0.12212  0.67712  1.0000
  H   H4075     1.0  0.88526  0.39903  0.54736  1.0000
  H   H4076     1.0  0.68002  0.19719  0.54402  1.0000
  C   C2569     1.0  0.60450  0.33953  0.56006  1.0000
  N   N256      1.0  0.90302  0.24644  0.56468  1.0000
  C   C2570     1.0  0.90681  0.23953  0.58172  1.0000
  C   C2571     1.0  0.91768  0.23956  0.55205  1.0000
  C   C2572     1.0  0.90018  0.26515  0.56078  1.0000
  C   C2573     1.0  0.88744  0.24147  0.56416  1.0000
  H   H4077     1.0  0.91854  0.24301  0.58251  1.0000
  H   H4078     1.0  0.90898  0.22540  0.58502  1.0000
  H   H4079     1.0  0.89604  0.24442  0.59163  1.0000
  H   H4080     1.0  0.92068  0.22547  0.55500  1.0000
  H   H4081     1.0  0.91499  0.24379  0.53914  1.0000
  H   H4082     1.0  0.92951  0.24364  0.55155  1.0000
  H   H4083     1.0  0.89695  0.27077  0.54813  1.0000
  H   H4084     1.0  0.91182  0.26945  0.56059  1.0000
  H   H4085     1.0  0.88945  0.27081  0.57024  1.0000
  H   H4086     1.0  0.87615  0.24630  0.57366  1.0000
  H   H4087     1.0  0.88919  0.22743  0.56685  1.0000
  H   H4088     1.0  0.88414  0.24659  0.55150  1.0000
  S   S1040     1.0  0.50790  0.41203  0.58484  1.0000
  H   H4089     1.0  0.58486  0.33891  0.60138  1.0000
  C   C2574     1.0  0.58677  0.16480  0.60213  1.0000
  C   C2575     1.0  0.90692  0.09687  0.72966  1.0000
  N   N257      1.0  0.58013  0.44172  0.59573  1.0000
  C   C2576     1.0  0.52182  0.17631  0.60525  1.0000
  H   H4090     1.0  0.87259  0.05100  0.57076  1.0000
  H   H4091     1.0  0.97094  0.09124  0.65897  1.0000
  C   C2577     1.0  0.58922  0.13029  0.68332  1.0000
  H   H4092     1.0  0.86022  0.00944  0.58763  1.0000
  H   H4093     1.0  0.85043  0.41790  0.69495  1.0000
  C   C2578     1.0  0.50908  0.37153  0.50214  1.0000
  C   C2579     1.0  0.95844  0.10324  0.69680  1.0000
  C   C2580     1.0  0.56987  0.45207  0.60823  1.0000
  C   C2581     1.0  0.99140  0.42167  0.58178  1.0000
  H   H4094     1.0  0.98432  0.42824  0.57148  1.0000
  H   H4095     1.0  0.57500  0.46157  0.57422  1.0000
  H   H4096     1.0  0.97925  0.44548  0.69974  1.0000
  H   H4097     1.0  0.58613  0.41569  0.59353  1.0000
  H   H4098     1.0  0.56496  0.42275  0.60542  1.0000
  H   H4099     1.0  0.55750  0.42824  0.48727  1.0000
  H   H4100     1.0  0.61990  0.11417  0.66871  1.0000
  H   H4101     1.0  0.57425  0.44741  0.62040  1.0000
  H   H4102     1.0  0.51160  0.00580  0.71245  1.0000
  H   H4103     1.0  0.68197  0.17413  0.53053  1.0000
  H   H4104     1.0  0.87459  0.15703  0.49479  1.0000
  C   C2582     1.0  0.53224  0.47770  0.71058  1.0000
  H   H4105     1.0  0.50016  0.36408  0.51063  1.0000
  H   H4106     1.0  0.93968  0.11641  0.67298  1.0000
  H   H4107     1.0  0.96725  0.09284  0.70368  1.0000
  H   H4108     1.0  0.59974  0.42563  0.49619  1.0000
  C   C2583     1.0  0.97363  0.33005  0.58110  1.0000
  H   H4109     1.0  0.88334  0.04927  0.58718  1.0000
  C   C2584     1.0  0.99060  0.14107  0.62578  1.0000
  H   H4110     1.0  0.85478  0.44143  0.67050  1.0000
  H   H4111     1.0  0.50351  0.09891  0.70753  1.0000
  H   H4112     1.0  0.60859  0.33043  0.55153  1.0000
  H   H4113     1.0  0.59218  0.16960  0.50638  1.0000
  C   C2585     1.0  0.86777  0.01910  0.57985  1.0000
  C   C2586     1.0  0.54765  0.12691  0.71043  1.0000
  C   C2587     1.0  0.57867  0.47683  0.63341  1.0000
  H   H4114     1.0  0.92111  0.47776  0.63673  1.0000
  C   C2588     1.0  0.69432  0.19418  0.54169  1.0000
  H   H4115     1.0  0.60058  0.45614  0.63558  1.0000
  N   N258      1.0  0.83816  0.42458  0.67393  1.0000
  H   H4116     1.0  0.98703  0.15447  0.62579  1.0000
  H   H4117     1.0  0.72591  0.17969  0.52648  1.0000
  C   C2589     1.0  0.98804  0.38983  0.53811  1.0000
  H   H4118     1.0  0.86434  0.41156  0.66699  1.0000
  H   H4119     1.0  0.68019  0.16810  0.56137  1.0000
  H   H4120     1.0  0.92611  0.06746  0.70558  1.0000
  H   H4121     1.0  0.86056  0.17627  0.55532  1.0000
  H   H4122     1.0  0.61932  0.31916  0.58524  1.0000
  C   C2590     1.0  0.87099  0.15792  0.58365  1.0000
  H   H4123     1.0  0.89987  0.13594  0.57329  1.0000
  H   H4124     1.0  0.59711  0.15650  0.60854  1.0000
  C   C2591     1.0  0.52039  0.02467  0.61570  1.0000
  S   S1041     1.0  0.75082  0.48053  0.54099  1.0000
  H   H4125     1.0  0.57971  0.17605  0.56222  1.0000
  H   H4126     1.0  0.54964  0.13193  0.69695  1.0000
  C   C2592     1.0  0.91967  0.07963  0.70871  1.0000
  C   C2593     1.0  0.86986  0.14227  0.56394  1.0000
  H   H4127     1.0  0.75832  0.41460  0.50634  1.0000
  S   S1042     1.0  0.51581  0.24219  0.56329  1.0000
  C   C2594     1.0  0.54222  0.11161  0.71735  1.0000
  C   C2595     1.0  0.59774  0.48872  0.60131  1.0000
  H   H4128     1.0  0.99057  0.41463  0.70846  1.0000
  H   H4129     1.0  0.57272  0.32234  0.58889  1.0000
  H   H4130     1.0  0.50779  0.01300  0.59592  1.0000
  H   H4131     1.0  0.98443  0.39100  0.58672  1.0000
  H   H4132     1.0  0.61868  0.12788  0.69201  1.0000
  H   H4133     1.0  0.86043  0.47635  0.55921  1.0000
  C   C2596     1.0  0.99521  0.41734  0.71845  1.0000
  H   H4134     1.0  0.72323  0.99744  0.53609  1.0000
  H   H4135     1.0  0.84291  0.10958  0.67182  1.0000
  H   H4136     1.0  0.99635  0.43123  0.58492  1.0000
  H   H4137     1.0  0.58271  0.31849  0.56806  1.0000
  N   N259      1.0  0.70133  0.17592  0.54207  1.0000
  H   H4138     1.0  0.72467  0.17543  0.54889  1.0000
  C   C2597     1.0  0.55074  0.13563  0.72099  1.0000
  C   C2598     1.0  0.88044  0.04186  0.57958  1.0000
  H   H4139     1.0  0.50353  0.33375  0.50398  1.0000
  C   C2599     1.0  0.97381  0.40082  0.59187  1.0000
  C   C2600     1.0  0.59124  0.34426  0.58826  1.0000
  H   H4140     1.0  0.98947  0.48843  0.64294  1.0000
  H   H4141     1.0  0.58224  0.35598  0.58347  1.0000
  C   C2601     1.0  0.59518  0.46776  0.62759  1.0000
  H   H4142     1.0  0.84879  0.39974  0.66844  1.0000
  S   S1043     1.0  0.63375  0.99151  0.57057  1.0000
  N   N260      1.0  0.87130  0.02855  0.59052  1.0000
  H   H4143     1.0  0.60100  0.31039  0.59725  1.0000
  H   H4144     1.0  0.50029  0.10872  0.72492  1.0000
  H   H4145     1.0  0.85764  0.42792  0.57532  1.0000
  N   N261      1.0  0.59053  0.16383  0.58416  1.0000
  C   C2602     1.0  0.61168  0.10588  0.67819  1.0000
  H   H4146     1.0  0.61794  0.15849  0.58133  1.0000
  H   H4147     1.0  0.60807  0.18061  0.57643  1.0000
  H   H4148     1.0  0.98246  0.39720  0.62127  1.0000
  H   H4149     1.0  0.58536  0.17797  0.60350  1.0000
  H   H4150     1.0  0.59358  0.39675  0.50395  1.0000
  H   H4151     1.0  0.77070  0.43000  0.50367  1.0000
  H   H4152     1.0  0.57089  0.46559  0.60356  1.0000
  S   S1044     1.0  0.79986  0.99772  0.54757  1.0000
  N   N262      1.0  0.86637  0.09643  0.68005  1.0000
  C   C2603     1.0  0.85638  0.10358  0.66667  1.0000
  C   C2604     1.0  0.86709  0.11018  0.68753  1.0000
  C   C2605     1.0  0.88395  0.08825  0.67257  1.0000
  C   C2606     1.0  0.85817  0.08371  0.69336  1.0000
  H   H4153     1.0  0.86212  0.11345  0.65665  1.0000
  C   C2607     1.0  0.74488  0.45752  0.49882  1.0000
  H   H4154     1.0  0.57718  0.43474  0.50091  1.0000
  H   H4155     1.0  0.85407  0.11668  0.69333  1.0000
  H   H4156     1.0  0.87471  0.10529  0.69755  1.0000
  H   H4157     1.0  0.87325  0.12001  0.67785  1.0000
  H   H4158     1.0  0.88398  0.07782  0.66673  1.0000
  H   H4159     1.0  0.89204  0.08291  0.68216  1.0000
  H   H4160     1.0  0.89030  0.09749  0.66234  1.0000
  H   H4161     1.0  0.86551  0.07808  0.70358  1.0000
  H   H4162     1.0  0.85745  0.07316  0.68812  1.0000
  H   H4163     1.0  0.84488  0.08947  0.69934  1.0000
  H   H4164     1.0  0.75771  0.46059  0.49617  1.0000
  C   C2608     1.0  0.82130  0.42547  0.67064  1.0000
  C   C2609     1.0  0.83779  0.41859  0.69223  1.0000
  C   C2610     1.0  0.58905  0.10346  0.70336  1.0000
  C   C2611     1.0  0.59058  0.14653  0.58306  1.0000
  C   C2612     1.0  0.85148  0.41270  0.66459  1.0000
  H   H4165     1.0  0.69785  0.16932  0.56918  1.0000
  H   H4166     1.0  0.69911  0.20209  0.52918  1.0000
  H   H4167     1.0  0.83236  0.45097  0.67486  1.0000
  H   H4168     1.0  0.81787  0.41282  0.67474  1.0000
  H   H4169     1.0  0.97544  0.07907  0.67905  1.0000
  H   H4170     1.0  0.55515  0.14736  0.71560  1.0000
  C   C2613     1.0  0.50403  0.13197  0.69572  1.0000
  C   C2614     1.0  0.57725  0.17626  0.57585  1.0000
  C   C2615     1.0  0.69618  0.17122  0.52879  1.0000
  H   H4171     1.0  0.72592  0.15865  0.53894  1.0000
  S   S1045     1.0  0.53954  0.09965  0.70438  1.0000
  H   H4172     1.0  0.95708  0.11499  0.70121  1.0000
  C   C2616     1.0  0.95259  0.11941  0.66972  1.0000
  H   H4173     1.0  0.85233  0.41700  0.65068  1.0000
  C   C2617     1.0  0.59833  0.44269  0.59217  1.0000
  H   H4174     1.0  0.81092  0.43437  0.67743  1.0000
  C   C2618     1.0  0.60465  0.47353  0.61145  1.0000
  N   N263      1.0  0.59577  0.33198  0.57722  1.0000
  H   H4175     1.0  0.60179  0.12614  0.71068  1.0000
  H   H4176     1.0  0.95369  0.08606  0.67635  1.0000
  H   H4177     1.0  0.70150  0.17812  0.51591  1.0000
  C   C2619     1.0  0.84216  0.44162  0.66816  1.0000
  H   H4178     1.0  0.82792  0.42727  0.69970  1.0000
  H   H4179     1.0  0.70084  0.15745  0.52900  1.0000
  C   C2620     1.0  0.72027  0.17231  0.53897  1.0000
  H   H4180     1.0  0.59367  0.14526  0.56967  1.0000
  C   C2621     1.0  0.58383  0.17664  0.49724  1.0000
  C   C2622     1.0  0.99564  0.34487  0.56351  1.0000
  H   H4181     1.0  0.72958  0.42362  0.49957  1.0000
  H   H4182     1.0  0.57513  0.27171  0.49346  1.0000
  H   H4183     1.0  0.51063  0.13327  0.70503  1.0000
  H   H4184     1.0  0.72027  0.44583  0.49367  1.0000
  H   H4185     1.0  0.99509  0.30334  0.56888  1.0000
  C   C2623     1.0  0.99036  0.40408  0.60989  1.0000
  S   S1046     1.0  0.80447  0.99098  0.50962  1.0000
  C   C2624     1.0  0.49972  0.13208  0.60570  1.0000
  H   H4186     1.0  0.99737  0.44973  0.70431  1.0000
  H   H4187     1.0  0.52849  0.27681  0.49663  1.0000
  H   H4188     1.0  0.98686  0.11205  0.65955  1.0000
  H   H4189     1.0  0.51373  0.99265  0.69813  1.0000
  H   H4190     1.0  0.97457  0.32186  0.55186  1.0000
  S   S1047     1.0  0.89971  0.45701  0.73452  1.0000
  H   H4191     1.0  0.60312  0.14719  0.48933  1.0000
  H   H4192     1.0  0.88980  0.33871  0.48545  1.0000
  Fe  Fe527     1.0  0.90577  0.04105  0.80289  1.0000
  S   S1048     1.0  0.88859  0.05508  0.78479  1.0000
  S   S1049     1.0  0.90725  0.01381  0.81704  1.0000
  Fe  Fe528     1.0  0.92078  0.07155  0.79906  1.0000
  S   S1050     1.0  0.90549  0.08807  0.78004  1.0000
  S   S1051     1.0  0.93820  0.07891  0.81098  1.0000
  Fe  Fe529     1.0  0.88374  0.07673  0.79762  1.0000
  S   S1052     1.0  0.85868  0.09486  0.80441  1.0000
  Fe  Fe530     1.0  0.91173  0.06516  0.76877  1.0000
  H   H4193     1.0  0.57456  0.15939  0.96107  1.0000
  S   S1053     1.0  0.89864  0.06172  0.81732  1.0000
  S   S1054     1.0  0.92925  0.04959  0.78615  1.0000
  Fe  Fe531     1.0  0.79665  0.09569  0.89013  1.0000
  S   S1055     1.0  0.78669  0.12175  0.87602  1.0000
  S   S1056     1.0  0.81178  0.07452  0.87673  1.0000
  Fe  Fe532     1.0  0.78022  0.10525  0.92428  1.0000
  S   S1057     1.0  0.76891  0.13197  0.91249  1.0000
  Fe  Fe533     1.0  0.76202  0.11995  0.89512  1.0000
  S   S1058     1.0  0.73713  0.12867  0.88591  1.0000
  Fe  Fe534     1.0  0.79483  0.13069  0.89476  1.0000
  S   S1059     1.0  0.80856  0.15242  0.88532  1.0000
  S   S1060     1.0  0.77148  0.09326  0.90827  1.0000
  S   S1061     1.0  0.80655  0.10463  0.90764  1.0000
  Fe  Fe535     1.0  0.93623  0.16112  0.86853  1.0000
  S   S1062     1.0  0.93095  0.17876  0.84435  1.0000
  S   S1063     1.0  0.96418  0.15252  0.86964  1.0000
  Fe  Fe536     1.0  0.89888  0.15874  0.88193  1.0000
  S   S1064     1.0  0.89079  0.17652  0.85893  1.0000
  S   S1065     1.0  0.88050  0.14464  0.90217  1.0000
  Fe  Fe537     1.0  0.91432  0.16166  0.84463  1.0000
  S   S1066     1.0  0.91224  0.15452  0.82144  1.0000
  Fe  Fe538     1.0  0.90807  0.19191  0.86109  1.0000
  S   S1067     1.0  0.90243  0.22060  0.85431  1.0000
  S   S1068     1.0  0.92141  0.14285  0.86744  1.0000
  S   S1069     1.0  0.91443  0.17529  0.88545  1.0000
  C   C2625     1.0  0.96711  0.20094  0.85104  1.0000
  S   S1070     1.0  0.58503  0.48100  0.88126  1.0000
  Fe  Fe539     1.0  0.76849  0.46442  0.88916  1.0000
  H   H4194     1.0  0.85386  0.38108  0.96437  1.0000
  H   H4195     1.0  0.84784  0.38431  0.84539  1.0000
  C   C2626     1.0  0.98651  0.18000  0.89569  1.0000
  Fe  Fe540     1.0  0.51680  0.12283  0.80885  1.0000
  S   S1071     1.0  0.52027  0.14799  0.79217  1.0000
  H   H4196     1.0  0.98285  0.44712  0.74232  1.0000
  Fe  Fe541     1.0  0.55334  0.11243  0.81326  1.0000
  S   S1072     1.0  0.56001  0.13666  0.79672  1.0000
  S   S1073     1.0  0.57053  0.09231  0.82850  1.0000
  Fe  Fe542     1.0  0.53458  0.14908  0.81078  1.0000
  S   S1074     1.0  0.53128  0.17319  0.81947  1.0000
  Fe  Fe543     1.0  0.54514  0.13312  0.77964  1.0000
  S   S1075     1.0  0.55390  0.13968  0.75108  1.0000
  S   S1076     1.0  0.52901  0.12510  0.82851  1.0000
  S   S1077     1.0  0.54060  0.10765  0.79516  1.0000
  Fe  Fe544     1.0  0.66622  0.08425  0.88738  1.0000
  S   S1078     1.0  0.64869  0.07658  0.91239  1.0000
  S   S1079     1.0  0.69459  0.07586  0.88713  1.0000
  Fe  Fe545     1.0  0.63632  0.10078  0.86996  1.0000
  S   S1080     1.0  0.61674  0.09427  0.89358  1.0000
  S   S1081     1.0  0.62805  0.11628  0.84596  1.0000
  Fe  Fe546     1.0  0.63253  0.10271  0.90601  1.0000
  S   S1082     1.0  0.61953  0.11946  0.92477  1.0000
  Fe  Fe547     1.0  0.63476  0.06878  0.89741  1.0000
  S   S1083     1.0  0.62397  0.04504  0.90770  1.0000
  S   S1084     1.0  0.65113  0.11100  0.88217  1.0000
  S   S1085     1.0  0.65330  0.07463  0.87267  1.0000
  Fe  Fe548     1.0  0.52474  0.19813  0.93714  1.0000
  S   S1086     1.0  0.54085  0.21734  0.92338  1.0000
  H   H4197     1.0  0.96494  0.48405  0.83516  1.0000
  Fe  Fe549     1.0  0.51755  0.19432  0.90498  1.0000
  S   S1087     1.0  0.53267  0.21352  0.88853  1.0000
  H   H4198     1.0  0.50721  0.15167  0.87961  1.0000
  Fe  Fe550     1.0  0.55191  0.20030  0.90478  1.0000
  S   S1088     1.0  0.57983  0.19210  0.89295  1.0000
  Fe  Fe551     1.0  0.52003  0.22880  0.90869  1.0000
  S   S1089     1.0  0.50648  0.25650  0.90329  1.0000
  S   S1090     1.0  0.53759  0.18017  0.91986  1.0000
  H   H4199     1.0  0.98617  0.14937  0.83698  1.0000
  Fe  Fe552     1.0  0.55629  0.46810  0.80891  1.0000
  H   H4200     1.0  0.59380  0.03736  0.87656  1.0000
  S   S1091     1.0  0.57884  0.45390  0.82060  1.0000
  C   C2627     1.0  0.78613  0.35992  0.91622  1.0000
  Fe  Fe553     1.0  0.52075  0.46554  0.81009  1.0000
  H   H4201     1.0  0.54785  0.40410  0.89371  1.0000
  S   S1092     1.0  0.54637  0.45473  0.79510  1.0000
  Fe  Fe554     1.0  0.60263  0.45268  0.93616  1.0000
  S   S1093     1.0  0.62595  0.43196  0.93206  1.0000
  S   S1094     1.0  0.59098  0.45539  0.96303  1.0000
  Fe  Fe555     1.0  0.60141  0.46301  0.89869  1.0000
  S   S1095     1.0  0.62499  0.44346  0.89154  1.0000
  H   H4202     1.0  0.98727  0.14813  0.81572  1.0000
  Fe  Fe556     1.0  0.61270  0.42636  0.91479  1.0000
  S   S1096     1.0  0.61022  0.40025  0.91448  1.0000
  Fe  Fe557     1.0  0.63574  0.45115  0.90947  1.0000
  S   S1097     1.0  0.65975  0.46099  0.90521  1.0000
  S   S1098     1.0  0.58863  0.44568  0.92075  1.0000
  H   H4203     1.0  0.64730  0.46572  0.94042  1.0000
  Fe  Fe558     1.0  0.52371  0.33777  0.91745  1.0000
  H   H4204     1.0  0.68087  0.43720  0.93763  1.0000
  S   S1099     1.0  0.52895  0.30975  0.92942  1.0000
  Fe  Fe559     1.0  0.52730  0.36766  0.88747  1.0000
  H   H4205     1.0  0.67707  0.43297  0.97555  1.0000
  S   S1100     1.0  0.53732  0.37660  0.85966  1.0000
  Fe  Fe560     1.0  0.52740  0.37127  0.92215  1.0000
  S   S1101     1.0  0.53492  0.38654  0.93604  1.0000
  S   S1102     1.0  0.54412  0.35324  0.90591  1.0000
  S   S1103     1.0  0.51220  0.38681  0.90287  1.0000
  Fe  Fe561     1.0  0.54275  0.47948  0.77632  1.0000
  H   H4206     1.0  0.98049  0.99990  0.82785  1.0000
  C   C2628     1.0  0.75564  0.37098  0.91841  1.0000
  H   H4207     1.0  0.75424  0.36005  0.91421  1.0000
  H   H4208     1.0  0.67131  0.42135  0.95367  1.0000
  H   H4209     1.0  0.76142  0.14264  0.97565  1.0000
  H   H4210     1.0  0.91817  0.10895  0.79329  1.0000
  H   H4211     1.0  0.88107  0.39600  0.89538  1.0000
  Fe  Fe562     1.0  0.79190  0.42968  0.89600  1.0000
  S   S1104     1.0  0.78313  0.42055  0.87788  1.0000
  S   S1105     1.0  0.81232  0.41249  0.90960  1.0000
  H   H4212     1.0  0.97503  0.19641  0.86078  1.0000
  S   S1106     1.0  0.75828  0.45798  0.87008  1.0000
  H   H4213     1.0  0.82323  0.18475  0.94813  1.0000
  Fe  Fe563     1.0  0.75669  0.43347  0.88915  1.0000
  S   S1107     1.0  0.73624  0.41815  0.89627  1.0000
  Fe  Fe564     1.0  0.78579  0.44566  0.86086  1.0000
  S   S1108     1.0  0.80000  0.44673  0.83374  1.0000
  S   S1109     1.0  0.76517  0.44066  0.90890  1.0000
  S   S1110     1.0  0.79606  0.45422  0.87832  1.0000
  Fe  Fe565     1.0  0.93105  0.43054  0.78017  1.0000
  S   S1111     1.0  0.92367  0.41749  0.76409  1.0000
  S   S1112     1.0  0.95897  0.43138  0.77436  1.0000
  Fe  Fe566     1.0  0.89399  0.44212  0.79800  1.0000
  S   S1113     1.0  0.88372  0.43069  0.78275  1.0000
  S   S1114     1.0  0.87703  0.45264  0.82038  1.0000
  Fe  Fe567     1.0  0.90530  0.40837  0.78802  1.0000
  S   S1115     1.0  0.89866  0.38255  0.79808  1.0000
  H   H4214     1.0  0.86329  0.37495  0.82912  1.0000
  S   S1116     1.0  0.91458  0.41936  0.80437  1.0000
  H   H4215     1.0  0.99172  0.10313  0.85464  1.0000
  Fe  Fe568     1.0  0.88740  0.29298  0.90145  1.0000
  S   S1117     1.0  0.90545  0.30460  0.90803  1.0000
  S   S1118     1.0  0.89252  0.26429  0.90838  1.0000
  Fe  Fe569     1.0  0.86277  0.32734  0.89417  1.0000
  S   S1119     1.0  0.87851  0.34096  0.90127  1.0000
  S   S1120     1.0  0.84005  0.34410  0.88395  1.0000
  Fe  Fe570     1.0  0.90051  0.32576  0.88560  1.0000
  S   S1121     1.0  0.91957  0.34062  0.86723  1.0000
  Fe  Fe571     1.0  0.88164  0.31863  0.92277  1.0000
  S   S1122     1.0  0.87839  0.31723  0.95052  1.0000
  S   S1123     1.0  0.88463  0.31285  0.87758  1.0000
  S   S1124     1.0  0.86369  0.30628  0.91718  1.0000
  C   C2629     1.0  0.88769  0.35991  0.96847  1.0000
  C   C2630     1.0  0.88216  0.33380  0.95702  1.0000
  C   C2631     1.0  0.88670  0.34816  0.94538  1.0000
  S   S1125     1.0  0.50863  0.35054  0.89732  1.0000
  H   H4216     1.0  0.81539  0.48205  0.90831  1.0000
  C   C2632     1.0  0.84609  0.15824  0.96092  1.0000
  H   H4217     1.0  0.94466  0.01726  0.80560  1.0000
  H   H4218     1.0  0.88814  0.34916  0.93200  1.0000
  H   H4219     1.0  0.79075  0.47239  0.90565  1.0000
  C   C2633     1.0  0.57130  0.48262  0.85470  1.0000
  S   S1126     1.0  0.54955  0.48547  0.74782  1.0000
  C   C2634     1.0  0.91468  0.35124  0.84735  1.0000
  C   C2635     1.0  0.90209  0.34748  0.84168  1.0000
  C   C2636     1.0  0.89773  0.35676  0.82626  1.0000
  C   C2637     1.0  0.90554  0.37021  0.81662  1.0000
  C   C2638     1.0  0.91835  0.37380  0.82212  1.0000
  C   C2639     1.0  0.92301  0.36424  0.83735  1.0000
  H   H4220     1.0  0.89579  0.33733  0.84908  1.0000
  H   H4221     1.0  0.88825  0.35348  0.82184  1.0000
  H   H4222     1.0  0.92496  0.38367  0.81447  1.0000
  H   H4223     1.0  0.93296  0.36705  0.84150  1.0000
  C   C2640     1.0  0.92806  0.99147  0.77681  1.0000
  C   C2641     1.0  0.57218  0.41109  0.85372  1.0000
  S   S1127     1.0  0.61290  0.47224  0.91469  1.0000
  H   H4224     1.0  0.84650  0.17030  0.96377  1.0000
  C   C2642     1.0  0.82183  0.39394  0.90177  1.0000
  C   C2643     1.0  0.82942  0.37930  0.91214  1.0000
  C   C2644     1.0  0.83544  0.36397  0.90659  1.0000
  C   C2645     1.0  0.83357  0.36323  0.89080  1.0000
  C   C2646     1.0  0.82630  0.37793  0.88034  1.0000
  C   C2647     1.0  0.82097  0.39335  0.88560  1.0000
  H   H4225     1.0  0.83022  0.37968  0.92465  1.0000
  H   H4226     1.0  0.84091  0.35259  0.91481  1.0000
  H   H4227     1.0  0.82477  0.37737  0.86817  1.0000
  H   H4228     1.0  0.81620  0.40477  0.87712  1.0000
  C   C2648     1.0  0.82156  0.44788  0.83008  1.0000
  C   C2649     1.0  0.83054  0.45306  0.81352  1.0000
  C   C2650     1.0  0.84770  0.45435  0.81042  1.0000
  C   C2651     1.0  0.85584  0.45057  0.82390  1.0000
  C   C2652     1.0  0.84692  0.44528  0.84045  1.0000
  C   C2653     1.0  0.82992  0.44360  0.84349  1.0000
  H   H4229     1.0  0.76575  0.39023  0.88792  1.0000
  H   H4230     1.0  0.85451  0.45858  0.79762  1.0000
  H   H4231     1.0  0.55745  0.20581  0.95423  1.0000
  C   C2654     1.0  0.99093  0.43575  0.73748  1.0000
  C   C2655     1.0  0.88842  0.27326  0.95499  1.0000
  C   C2656     1.0  0.96305  0.44236  0.81692  1.0000
  C   C2657     1.0  0.95636  0.43819  0.80531  1.0000
  C   C2658     1.0  0.96579  0.43839  0.78870  1.0000
  H   H4232     1.0  0.50399  0.45727  0.78670  1.0000
  C   C2659     1.0  0.99448  0.11602  0.84944  1.0000
  H   H4233     1.0  0.95598  0.44176  0.82989  1.0000
  H   H4234     1.0  0.94417  0.43438  0.80931  1.0000
  C   C2660     1.0  0.78454  0.10816  0.96120  1.0000
  H   H4235     1.0  0.78448  0.35632  0.93023  1.0000
  H   H4236     1.0  0.56258  0.41083  0.84683  1.0000
  H   H4237     1.0  0.74538  0.38204  0.91457  1.0000
  C   C2661     1.0  0.68084  0.44874  0.90220  1.0000
  C   C2662     1.0  0.68432  0.43128  0.90311  1.0000
  C   C2663     1.0  0.70137  0.42193  0.90130  1.0000
  C   C2664     1.0  0.71496  0.43002  0.89848  1.0000
  C   C2665     1.0  0.71142  0.44745  0.89765  1.0000
  C   C2666     1.0  0.69442  0.45675  0.89956  1.0000
  H   H4238     1.0  0.67391  0.42501  0.90516  1.0000
  H   H4239     1.0  0.70405  0.40844  0.90191  1.0000
  H   H4240     1.0  0.72181  0.45378  0.89553  1.0000
  H   H4241     1.0  0.68608  0.44901  0.95918  1.0000
  C   C2667     1.0  0.60117  0.46720  0.96993  1.0000
  C   C2668     1.0  0.51669  0.20432  0.97582  1.0000
  H   H4242     1.0  0.84082  0.38379  0.80372  1.0000
  C   C2669     1.0  0.65757  0.46419  0.94725  1.0000
  H   H4243     1.0  0.82943  0.48121  0.87677  1.0000
  H   H4244     1.0  0.97346  0.23222  0.84073  1.0000
  H   H4245     1.0  0.86009  0.00395  0.81894  1.0000
  Fe  Fe572     1.0  0.90306  0.44102  0.76041  1.0000
  C   C2670     1.0  0.51108  0.23431  0.97540  1.0000
  H   H4246     1.0  0.67438  0.99568  0.90114  1.0000
  C   C2671     1.0  0.58927  0.39645  0.92024  1.0000
  C   C2672     1.0  0.58586  0.38325  0.91528  1.0000
  C   C2673     1.0  0.56916  0.38021  0.91976  1.0000
  C   C2674     1.0  0.55590  0.39013  0.92956  1.0000
  C   C2675     1.0  0.55936  0.40314  0.93466  1.0000
  C   C2676     1.0  0.57593  0.40632  0.92994  1.0000
  H   H4247     1.0  0.59615  0.37540  0.90793  1.0000
  H   H4248     1.0  0.56666  0.36996  0.91598  1.0000
  H   H4249     1.0  0.54917  0.41080  0.94229  1.0000
  H   H4250     1.0  0.57844  0.41609  0.93428  1.0000
  C   C2677     1.0  0.79759  0.12748  0.97516  1.0000
  S   S1128     1.0  0.92077  0.06319  0.74133  1.0000
  H   H4251     1.0  0.78578  0.34869  0.91180  1.0000
  H   H4252     1.0  0.99747  0.22603  0.89116  1.0000
  C   C2678     1.0  0.52684  0.39676  0.85018  1.0000
  C   C2679     1.0  0.53485  0.40483  0.83426  1.0000
  C   C2680     1.0  0.52701  0.42104  0.82651  1.0000
  H   H4253     1.0  0.65968  0.43546  0.93830  1.0000
  H   H4254     1.0  0.54722  0.39858  0.82792  1.0000
  H   H4255     1.0  0.53326  0.42695  0.81415  1.0000
  C   C2681     1.0  0.58083  0.46190  0.83699  1.0000
  C   C2682     1.0  0.60947  0.47945  0.95835  1.0000
  H   H4256     1.0  0.84161  0.37231  0.83426  1.0000
  N   N264      1.0  0.57965  0.40740  0.97891  1.0000
  C   C2683     1.0  0.59433  0.45843  0.86031  1.0000
  C   C2684     1.0  0.59312  0.45279  0.84654  1.0000
  H   H4257     1.0  0.64494  0.12637  0.93972  1.0000
  H   H4258     1.0  0.97781  0.03723  0.80965  1.0000
  H   H4259     1.0  0.60380  0.45128  0.86762  1.0000
  H   H4260     1.0  0.60167  0.44128  0.84333  1.0000
  C   C2685     1.0  0.51266  0.27120  0.91076  1.0000
  C   C2686     1.0  0.50681  0.28866  0.90490  1.0000
  C   C2687     1.0  0.51170  0.30063  0.91049  1.0000
  C   C2688     1.0  0.52235  0.29521  0.92212  1.0000
  C   C2689     1.0  0.52779  0.27777  0.92832  1.0000
  C   C2690     1.0  0.52303  0.26581  0.92262  1.0000
  H   H4261     1.0  0.81944  0.17488  0.93340  1.0000
  H   H4262     1.0  0.83280  0.13753  0.95231  1.0000
  H   H4263     1.0  0.53592  0.27347  0.93741  1.0000
  H   H4264     1.0  0.52739  0.25244  0.92744  1.0000
  H   H4265     1.0  0.50855  0.24737  0.96857  1.0000
  H   H4266     1.0  0.86101  0.40673  0.96675  1.0000
  H   H4267     1.0  0.84553  0.40433  0.79344  1.0000
  H   H4268     1.0  0.99491  0.27265  0.88110  1.0000
  C   C2691     1.0  0.63363  0.02656  0.89966  1.0000
  C   C2692     1.0  0.64737  0.02639  0.88563  1.0000
  C   C2693     1.0  0.65323  0.01230  0.87804  1.0000
  H   H4269     1.0  0.65309  0.03735  0.88028  1.0000
  H   H4270     1.0  0.66347  0.01249  0.86683  1.0000
  C   C2694     1.0  0.60805  0.13928  0.91565  1.0000
  C   C2695     1.0  0.61392  0.14719  0.89887  1.0000
  C   C2696     1.0  0.60522  0.16344  0.89207  1.0000
  C   C2697     1.0  0.59031  0.17166  0.90181  1.0000
  C   C2698     1.0  0.58421  0.16359  0.91847  1.0000
  C   C2699     1.0  0.59320  0.14752  0.92544  1.0000
  H   H4271     1.0  0.62538  0.14099  0.89122  1.0000
  H   H4272     1.0  0.61008  0.16968  0.87923  1.0000
  H   H4273     1.0  0.57275  0.16984  0.92606  1.0000
  H   H4274     1.0  0.58854  0.14134  0.93835  1.0000
  H   H4275     1.0  0.82332  0.41715  0.81578  1.0000
  C   C2700     1.0  0.54215  0.11428  0.74552  1.0000
  H   H4276     1.0  0.97606  0.20240  0.83844  1.0000
  H   H4277     1.0  0.77474  0.36829  0.88742  1.0000
  H   H4278     1.0  0.99372  0.10107  0.82528  1.0000
  H   H4279     1.0  0.52552  0.46320  0.75949  1.0000
  H   H4280     1.0  0.54010  0.10929  0.75902  1.0000
  H   H4281     1.0  0.53476  0.09377  0.74041  1.0000
  H   H4282     1.0  0.98179  0.01987  0.79960  1.0000
  C   C2701     1.0  0.58502  0.10079  0.83371  1.0000
  C   C2702     1.0  0.58812  0.09543  0.85004  1.0000
  C   C2703     1.0  0.60112  0.10041  0.85393  1.0000
  C   C2704     1.0  0.61100  0.11085  0.84155  1.0000
  C   C2705     1.0  0.60731  0.11693  0.82542  1.0000
  C   C2706     1.0  0.59436  0.11185  0.82147  1.0000
  H   H4283     1.0  0.58058  0.08728  0.85967  1.0000
  H   H4284     1.0  0.60362  0.09590  0.86645  1.0000
  H   H4285     1.0  0.61484  0.12513  0.81580  1.0000
  H   H4286     1.0  0.59208  0.11597  0.80877  1.0000
  C   C2707     1.0  0.52439  0.17387  0.84108  1.0000
  C   C2708     1.0  0.51804  0.16064  0.85321  1.0000
  C   C2709     1.0  0.51222  0.16187  0.87028  1.0000
  C   C2710     1.0  0.51303  0.17619  0.87534  1.0000
  C   C2711     1.0  0.51954  0.18931  0.86322  1.0000
  C   C2712     1.0  0.52508  0.18820  0.84615  1.0000
  H   H4287     1.0  0.51747  0.14954  0.84947  1.0000
  H   H4288     1.0  0.96412  0.03760  0.79632  1.0000
  H   H4289     1.0  0.51993  0.20053  0.86690  1.0000
  H   H4290     1.0  0.52987  0.19854  0.83681  1.0000
  H   H4291     1.0  0.93850  0.21340  0.83917  1.0000
  H   H4292     1.0  0.61594  0.01216  0.91758  1.0000
  C   C2713     1.0  0.97863  0.25140  0.90663  1.0000
  H   H4293     1.0  0.97538  0.25878  0.91666  1.0000
  H   H4294     1.0  0.58125  0.39852  0.85469  1.0000
  C   C2714     1.0  0.66863  0.43464  0.94636  1.0000
  H   H4295     1.0  0.73914  0.14635  0.97543  1.0000
  H   H4296     1.0  0.50920  0.11237  0.78292  1.0000
  C   C2715     1.0  0.57698  0.41514  0.87926  1.0000
  H   H4297     1.0  0.54390  0.40146  0.87472  1.0000
  H   H4298     1.0  0.82405  0.40869  0.83758  1.0000
  C   C2716     1.0  0.54826  0.12922  0.73853  1.0000
  H   H4299     1.0  0.50609  0.36328  0.86134  1.0000
  H   H4300     1.0  0.89562  0.26287  0.94823  1.0000
  C   C2717     1.0  0.89877  0.23262  0.86966  1.0000
  C   C2718     1.0  0.89859  0.22486  0.88666  1.0000
  C   C2719     1.0  0.89662  0.23474  0.89840  1.0000
  C   C2720     1.0  0.89466  0.25243  0.89327  1.0000
  C   C2721     1.0  0.89474  0.26019  0.87630  1.0000
  C   C2722     1.0  0.89683  0.25029  0.86453  1.0000
  H   H4301     1.0  0.90004  0.21127  0.89075  1.0000
  H   H4302     1.0  0.89656  0.22867  0.91153  1.0000
  H   H4303     1.0  0.89322  0.27381  0.87223  1.0000
  H   H4304     1.0  0.89694  0.25637  0.85139  1.0000
  C   C2723     1.0  0.86747  0.99167  0.82503  1.0000
  H   H4305     1.0  0.84799  0.47472  0.86111  1.0000
  S   S1129     1.0  0.80501  0.14046  0.98348  1.0000
  H   H4306     1.0  0.60246  0.02259  0.86276  1.0000
  H   H4307     1.0  0.96252  0.13358  0.84717  1.0000
  C   C2724     1.0  0.96172  0.17278  0.89143  1.0000
  C   C2725     1.0  0.53844  0.47821  0.73710  1.0000
  H   H4308     1.0  0.69005  0.13247  0.92264  1.0000
  H   H4309     1.0  0.96038  0.18888  0.90804  1.0000
  H   H4310     1.0  0.94801  0.17382  0.89422  1.0000
  C   C2726     1.0  0.72566  0.11378  0.88601  1.0000
  C   C2727     1.0  0.71146  0.11925  0.87839  1.0000
  C   C2728     1.0  0.70173  0.10777  0.87875  1.0000
  C   C2729     1.0  0.70623  0.09071  0.88665  1.0000
  C   C2730     1.0  0.72050  0.08522  0.89413  1.0000
  C   C2731     1.0  0.73013  0.09672  0.89390  1.0000
  H   H4311     1.0  0.70796  0.13244  0.87221  1.0000
  H   H4312     1.0  0.69093  0.11204  0.87268  1.0000
  H   H4313     1.0  0.72401  0.07204  0.90031  1.0000
  H   H4314     1.0  0.74087  0.09238  0.90000  1.0000
  C   C2732     1.0  0.79103  0.12215  0.95092  1.0000
  H   H4315     1.0  0.80212  0.14283  0.94987  1.0000
  H   H4316     1.0  0.79102  0.12561  0.93757  1.0000
  C   C2733     1.0  0.82873  0.14978  0.88987  1.0000
  C   C2734     1.0  0.83652  0.13456  0.89930  1.0000
  C   C2735     1.0  0.85262  0.13290  0.90269  1.0000
  C   C2736     1.0  0.86101  0.14647  0.89667  1.0000
  C   C2737     1.0  0.85328  0.16165  0.88715  1.0000
  C   C2738     1.0  0.83722  0.16327  0.88374  1.0000
  H   H4317     1.0  0.83011  0.12411  0.90418  1.0000
  H   H4318     1.0  0.85848  0.12115  0.91016  1.0000
  H   H4319     1.0  0.85940  0.17235  0.88284  1.0000
  H   H4320     1.0  0.83126  0.17511  0.87647  1.0000
  H   H4321     1.0  0.77222  0.38666  0.93091  1.0000
  C   C2739     1.0  0.97907  0.44683  0.81187  1.0000
  S   S1130     1.0  0.77579  0.09650  0.95260  1.0000
  H   H4322     1.0  0.99591  0.37176  0.84075  1.0000
  H   H4323     1.0  0.65963  0.13886  0.93920  1.0000
  C   C2740     1.0  0.91620  0.99875  0.80431  1.0000
  H   H4324     1.0  0.99119  0.42483  0.74853  1.0000
  H   H4325     1.0  0.49935  0.10967  0.75870  1.0000
  C   C2741     1.0  0.51100  0.42926  0.83449  1.0000
  H   H4326     1.0  0.93213  0.99541  0.76323  1.0000
  C   C2742     1.0  0.92145  0.00375  0.78676  1.0000
  H   H4327     1.0  0.98695  0.48555  0.82949  1.0000
  H   H4328     1.0  0.92033  0.01707  0.78081  1.0000
  C   C2743     1.0  0.84632  0.08904  0.82479  1.0000
  C   C2744     1.0  0.84864  0.07219  0.83380  1.0000
  C   C2745     1.0  0.83807  0.06784  0.84983  1.0000
  C   C2746     1.0  0.82551  0.08038  0.85708  1.0000
  C   C2747     1.0  0.82352  0.09725  0.84817  1.0000
  C   C2748     1.0  0.83371  0.10152  0.83198  1.0000
  H   H4329     1.0  0.85833  0.06248  0.82828  1.0000
  H   H4330     1.0  0.83968  0.05476  0.85666  1.0000
  H   H4331     1.0  0.81399  0.10702  0.85357  1.0000
  H   H4332     1.0  0.83186  0.11456  0.82500  1.0000
  C   C2749     1.0  0.93094  0.09985  0.81411  1.0000
  C   C2750     1.0  0.93506  0.10435  0.82717  1.0000
  C   C2751     1.0  0.92923  0.12105  0.82973  1.0000
  C   C2752     1.0  0.91966  0.13339  0.81896  1.0000
  C   C2753     1.0  0.91573  0.12889  0.80585  1.0000
  C   C2754     1.0  0.92118  0.11217  0.80355  1.0000
  H   H4333     1.0  0.94255  0.09485  0.83543  1.0000
  H   H4334     1.0  0.93224  0.12438  0.83992  1.0000
  H   H4335     1.0  0.90844  0.13839  0.79738  1.0000
  N   N265      1.0  0.77078  0.08366  0.85204  1.0000
  C   C2755     1.0  0.75425  0.07830  0.85936  1.0000
  C   C2756     1.0  0.78509  0.06861  0.85278  1.0000
  C   C2757     1.0  0.77253  0.09500  0.86182  1.0000
  C   C2758     1.0  0.77133  0.09281  0.83426  1.0000
  H   H4336     1.0  0.74321  0.08941  0.85916  1.0000
  H   H4337     1.0  0.75348  0.07140  0.87280  1.0000
  H   H4338     1.0  0.75239  0.06975  0.85230  1.0000
  H   H4339     1.0  0.78538  0.06175  0.86610  1.0000
  H   H4340     1.0  0.78413  0.05953  0.84580  1.0000
  H   H4341     1.0  0.79774  0.07226  0.84724  1.0000
  H   H4342     1.0  0.76195  0.10653  0.86176  1.0000
  H   H4343     1.0  0.78490  0.09921  0.85662  1.0000
  H   H4344     1.0  0.77239  0.08845  0.87525  1.0000
  H   H4345     1.0  0.78366  0.09705  0.82845  1.0000
  H   H4346     1.0  0.76077  0.10433  0.83334  1.0000
  H   H4347     1.0  0.77004  0.08466  0.82645  1.0000
  C   C2759     1.0  0.77403  0.38941  0.91691  1.0000
  N   N266      1.0  0.84095  0.16126  0.94469  1.0000
  H   H4348     1.0  0.60174  0.41825  0.97354  1.0000
  H   H4349     1.0  0.80368  0.48898  0.85401  1.0000
  H   H4350     1.0  0.56055  0.48406  0.83363  1.0000
  H   H4351     1.0  0.59008  0.15904  0.97248  1.0000
  S   S1131     1.0  0.50576  0.17748  0.89679  1.0000
  C   C2760     1.0  0.64543  0.44270  0.96920  1.0000
  C   C2761     1.0  0.82809  0.40863  0.96586  1.0000
  H   H4352     1.0  0.97077  0.25854  0.89710  1.0000
  H   H4353     1.0  0.98782  0.48401  0.80029  1.0000
  C   C2762     1.0  0.94647  0.03347  0.82846  1.0000
  H   H4354     1.0  0.85320  0.44235  0.85089  1.0000
  S   S1132     1.0  0.53080  0.47784  0.82479  1.0000
  C   C2763     1.0  0.67390  0.44588  0.96756  1.0000
  C   C2764     1.0  0.86851  0.28114  0.97998  1.0000
  H   H4355     1.0  0.57831  0.42849  0.95770  1.0000
  H   H4356     1.0  0.94340  0.00333  0.82598  1.0000
  H   H4357     1.0  0.50274  0.99497  0.74352  1.0000
  N   N267      1.0  0.98805  0.12434  0.83379  1.0000
  H   H4358     1.0  0.50133  0.15497  0.94341  1.0000
  N   N268      1.0  0.95472  0.21699  0.85331  1.0000
  C   C2765     1.0  0.94252  0.21413  0.86979  1.0000
  C   C2766     1.0  0.79067  0.48579  0.90259  1.0000
  H   H4359     1.0  0.82835  0.46839  0.86335  1.0000
  H   H4360     1.0  0.89296  0.37236  0.94214  1.0000
  H   H4361     1.0  0.87758  0.28770  0.98193  1.0000
  C   C2767     1.0  0.51857  0.46172  0.73704  1.0000
  H   H4362     1.0  0.93846  0.04162  0.81940  1.0000
  N   N269      1.0  0.96012  0.02061  0.82068  1.0000
  C   C2768     1.0  0.62653  0.01212  0.90667  1.0000
  C   C2769     1.0  0.84463  0.38123  0.97679  1.0000
  C   C2770     1.0  0.64571  0.99813  0.88469  1.0000
  C   C2771     1.0  0.98152  0.44340  0.78358  1.0000
  H   H4363     1.0  0.90849  0.37883  0.86822  1.0000
  S   S1133     1.0  0.99494  0.19137  0.90501  1.0000
  H   H4364     1.0  0.57929  0.39043  0.96398  1.0000
  H   H4365     1.0  0.81845  0.39671  0.82596  1.0000
  H   H4366     1.0  0.99648  0.36958  0.81994  1.0000
  C   C2772     1.0  0.79745  0.13184  0.95790  1.0000
  H   H4367     1.0  0.66178  0.11733  0.95119  1.0000
  H   H4368     1.0  0.96577  0.11332  0.84225  1.0000
  C   C2773     1.0  0.85331  0.16959  0.93086  1.0000
  H   H4369     1.0  0.82337  0.43885  0.85619  1.0000
  H   H4370     1.0  0.96046  0.19068  0.85215  1.0000
  H   H4371     1.0  0.86236  0.38679  0.79920  1.0000
  C   C2774     1.0  0.96927  0.12593  0.83742  1.0000
  H   H4372     1.0  0.69177  0.47024  0.89891  1.0000
  C   C2775     1.0  0.97143  0.02919  0.80589  1.0000
  H   H4373     1.0  0.95499  0.24215  0.85448  1.0000
  H   H4374     1.0  0.50425  0.39855  0.87025  1.0000
  H   H4375     1.0  0.82938  0.48119  0.83233  1.0000
  C   C2776     1.0  0.97033  0.01000  0.83320  1.0000
  H   H4376     1.0  0.96605  0.41891  0.74241  1.0000
  H   H4377     1.0  0.55987  0.41905  0.96478  1.0000
  N   N270      1.0  0.66139  0.44684  0.95759  1.0000
  H   H4378     1.0  0.88057  0.99355  0.82381  1.0000
  C   C2777     1.0  0.84967  0.38149  0.83279  1.0000
  N   N271      1.0  0.56381  0.41492  0.87058  1.0000
  C   C2778     1.0  0.55193  0.43169  0.86854  1.0000
  H   H4379     1.0  0.58448  0.42496  0.87203  1.0000
  H   H4380     1.0  0.57112  0.41790  0.89208  1.0000
  H   H4381     1.0  0.55885  0.44188  0.86087  1.0000
  H   H4382     1.0  0.54538  0.43506  0.88099  1.0000
  H   H4383     1.0  0.54190  0.43198  0.86192  1.0000
  N   N272      1.0  0.84530  0.39711  0.82006  1.0000
  H   H4384     1.0  0.93326  0.22609  0.87207  1.0000
  H   H4385     1.0  0.59737  0.40036  0.95663  1.0000
  H   H4386     1.0  0.90346  0.09813  0.74269  1.0000
  H   H4387     1.0  0.95191  0.04210  0.83249  1.0000
  H   H4388     1.0  0.93510  0.23471  0.84135  1.0000
  H   H4389     1.0  0.86658  0.16169  0.92998  1.0000
  N   N273      1.0  0.87775  0.26688  0.97156  1.0000
  H   H4390     1.0  0.88041  0.28267  0.94652  1.0000
  H   H4391     1.0  0.81396  0.16638  0.95570  1.0000
  S   S1134     1.0  0.98816  0.45060  0.82664  1.0000
  H   H4392     1.0  0.76411  0.40086  0.91329  1.0000
  C   C2779     1.0  0.65862  0.12589  0.93927  1.0000
  C   C2780     1.0  0.58586  0.19287  0.96729  1.0000
  H   H4393     1.0  0.85006  0.17166  0.91836  1.0000
  N   N274      1.0  0.86763  0.12835  0.84532  1.0000
  C   C2781     1.0  0.87633  0.11161  0.84121  1.0000
  C   C2782     1.0  0.86745  0.14143  0.82948  1.0000
  C   C2783     1.0  0.87693  0.13251  0.85581  1.0000
  C   C2784     1.0  0.84980  0.12791  0.85475  1.0000
  H   H4394     1.0  0.87659  0.10139  0.85285  1.0000
  H   H4395     1.0  0.88984  0.11150  0.83415  1.0000
  H   H4396     1.0  0.86973  0.10816  0.83314  1.0000
  H   H4397     1.0  0.86078  0.13856  0.82111  1.0000
  H   H4398     1.0  0.86086  0.15421  0.83207  1.0000
  H   H4399     1.0  0.88070  0.14230  0.82221  1.0000
  H   H4400     1.0  0.89049  0.13275  0.84919  1.0000
  H   H4401     1.0  0.87706  0.12314  0.86806  1.0000
  H   H4402     1.0  0.87090  0.14523  0.85881  1.0000
  H   H4403     1.0  0.84277  0.14043  0.85782  1.0000
  H   H4404     1.0  0.84940  0.11838  0.86693  1.0000
  H   H4405     1.0  0.84245  0.12463  0.84731  1.0000
  H   H4406     1.0  0.95787  0.44119  0.73641  1.0000
  H   H4407     1.0  0.85394  0.13682  0.93903  1.0000
  C   C2785     1.0  0.86523  0.25878  0.96895  1.0000
  H   H4408     1.0  0.95383  0.22599  0.82695  1.0000
  H   H4409     1.0  0.89621  0.24345  0.97637  1.0000
  H   H4410     1.0  0.85900  0.14972  0.96075  1.0000
  H   H4411     1.0  0.97453  0.23912  0.91256  1.0000
  C   C2786     1.0  0.96401  0.22985  0.85292  1.0000
  H   H4412     1.0  0.63997  0.45134  0.97818  1.0000
  H   H4413     1.0  0.63542  0.44391  0.96216  1.0000
  H   H4414     1.0  0.85347  0.42061  0.80905  1.0000
  S   S1135     1.0  0.50318  0.21057  0.92381  1.0000
  H   H4415     1.0  0.85993  0.29085  0.97229  1.0000
  H   H4416     1.0  0.85671  0.26795  0.96082  1.0000
  H   H4417     1.0  0.96559  0.48316  0.80595  1.0000
  C   C2787     1.0  0.95230  0.00974  0.81519  1.0000
  C   C2788     1.0  0.88042  0.33251  0.97434  1.0000
  N   N275      1.0  0.77284  0.37482  0.91098  1.0000
  H   H4418     1.0  0.57954  0.42082  0.84564  1.0000
  H   H4419     1.0  0.97697  0.01767  0.83715  1.0000
  H   H4420     1.0  0.83691  0.15213  0.97167  1.0000
  H   H4421     1.0  0.58626  0.40273  0.88088  1.0000
  H   H4422     1.0  0.64768  0.42954  0.97690  1.0000
  H   H4423     1.0  0.94923  0.20919  0.88047  1.0000
  H   H4424     1.0  0.50727  0.31402  0.90577  1.0000
  H   H4425     1.0  0.98845  0.12348  0.85947  1.0000
  H   H4426     1.0  0.93490  0.20484  0.87039  1.0000
  C   C2789     1.0  0.99643  0.11403  0.82086  1.0000
  C   C2790     1.0  0.55411  0.40179  0.88078  1.0000
  C   C2791     1.0  0.56978  0.42242  0.96909  1.0000
  H   H4427     1.0  0.51661  0.30129  0.96663  1.0000
  H   H4428     1.0  0.65317  0.47385  0.95520  1.0000
  S   S1136     1.0  0.50831  0.35479  0.93526  1.0000
  C   C2792     1.0  0.99208  0.14137  0.82741  1.0000
  H   H4429     1.0  0.69202  0.11138  0.93567  1.0000
  H   H4430     1.0  0.81750  0.40288  0.96582  1.0000
  H   H4431     1.0  0.56322  0.43227  0.97670  1.0000
  H   H4432     1.0  0.96395  0.13226  0.82591  1.0000
  H   H4433     1.0  0.83686  0.40927  0.95313  1.0000
  H   H4434     1.0  0.93768  0.02751  0.83969  1.0000
  C   C2793     1.0  0.82364  0.17234  0.94551  1.0000
  H   H4435     1.0  0.78842  0.38201  0.88628  1.0000
  H   H4436     1.0  0.96217  0.00367  0.84474  1.0000
  H   H4437     1.0  0.59249  0.18594  0.97785  1.0000
  C   C2794     1.0  0.84078  0.14488  0.94141  1.0000
  H   H4438     1.0  0.51586  0.31849  0.97582  1.0000
  H   H4439     1.0  0.97117  0.22566  0.86329  1.0000
  H   H4440     1.0  0.98523  0.41072  0.83351  1.0000
  H   H4441     1.0  0.51021  0.45305  0.74378  1.0000
  H   H4442     1.0  0.85695  0.25381  0.98120  1.0000
  C   C2795     1.0  0.84860  0.39282  0.80338  1.0000
  H   H4443     1.0  0.85352  0.41295  0.83112  1.0000
  C   C2796     1.0  0.61959  0.48420  0.98077  1.0000
  H   H4444     1.0  0.89782  0.27976  0.95639  1.0000
  C   C2797     1.0  0.96874  0.18129  0.89923  1.0000
  C   C2798     1.0  0.88945  0.36123  0.95112  1.0000
  C   C2799     1.0  0.63265  0.99785  0.89929  1.0000
  H   H4445     1.0  0.59589  0.19479  0.95545  1.0000
  C   C2800     1.0  0.85603  0.40896  0.81896  1.0000
  C   C2801     1.0  0.68804  0.11955  0.92395  1.0000
  H   H4446     1.0  0.88558  0.36473  0.86964  1.0000
  C   C2802     1.0  0.77557  0.37902  0.89233  1.0000
  H   H4447     1.0  0.75306  0.36786  0.93248  1.0000
  C   C2803     1.0  0.97251  0.16277  0.88022  1.0000
  H   H4448     1.0  0.66903  0.46729  0.93745  1.0000
  H   H4449     1.0  0.50328  0.17577  0.94302  1.0000
  C   C2804     1.0  0.78470  0.10374  0.97848  1.0000
  C   C2805     1.0  0.56523  0.19327  0.95175  1.0000
  N   N276      1.0  0.67006  0.11988  0.92423  1.0000
  H   H4450     1.0  0.89345  0.42409  0.73599  1.0000
  C   C2806     1.0  0.66514  0.13143  0.90877  1.0000
  C   C2807     1.0  0.66839  0.10261  0.92494  1.0000
  H   H4451     1.0  0.86995  0.40317  0.81563  1.0000
  C   C2808     1.0  0.58334  0.16676  0.96222  1.0000
  C   C2809     1.0  0.82700  0.40522  0.82507  1.0000
  H   H4452     1.0  0.59636  0.38353  0.97519  1.0000
  H   H4453     1.0  0.67343  0.12725  0.89717  1.0000
  H   H4454     1.0  0.65164  0.13193  0.90860  1.0000
  H   H4455     1.0  0.66627  0.14460  0.90775  1.0000
  H   H4456     1.0  0.67630  0.09787  0.91346  1.0000
  H   H4457     1.0  0.65485  0.10232  0.92581  1.0000
  H   H4458     1.0  0.67253  0.09338  0.93612  1.0000
  H   H4459     1.0  0.69701  0.11439  0.91317  1.0000
  H   H4460     1.0  0.85359  0.18212  0.93270  1.0000
  H   H4461     1.0  0.57463  0.19559  0.93948  1.0000
  S   S1137     1.0  0.91144  0.45457  0.77538  1.0000
  N   N277      1.0  0.88161  0.39050  0.87168  1.0000
  C   C2810     1.0  0.89982  0.39129  0.86443  1.0000
  C   C2811     1.0  0.87747  0.37742  0.86569  1.0000
  C   C2812     1.0  0.87055  0.40714  0.86622  1.0000
  C   C2813     1.0  0.87865  0.38611  0.89035  1.0000
  H   H4462     1.0  0.90350  0.40094  0.86874  1.0000
  H   H4463     1.0  0.90255  0.39457  0.85034  1.0000
  H   H4464     1.0  0.86390  0.37627  0.87099  1.0000
  H   H4465     1.0  0.87983  0.38015  0.85164  1.0000
  H   H4466     1.0  0.85670  0.40693  0.87144  1.0000
  H   H4467     1.0  0.87265  0.41092  0.85217  1.0000
  H   H4468     1.0  0.87329  0.41731  0.87058  1.0000
  H   H4469     1.0  0.88733  0.37394  0.89483  1.0000
  H   H4470     1.0  0.86522  0.38465  0.89627  1.0000
  N   N278      1.0  0.61214  0.04550  0.85415  1.0000
  C   C2814     1.0  0.62806  0.03792  0.84325  1.0000
  C   C2815     1.0  0.60558  0.03203  0.86785  1.0000
  C   C2816     1.0  0.59912  0.05427  0.84389  1.0000
  C   C2817     1.0  0.61584  0.05781  0.86158  1.0000
  H   H4471     1.0  0.62582  0.02842  0.83756  1.0000
  H   H4472     1.0  0.63818  0.03130  0.85058  1.0000
  H   H4473     1.0  0.63330  0.04778  0.83275  1.0000
  H   H4474     1.0  0.97935  0.38452  0.82984  1.0000
  H   H4475     1.0  0.59314  0.16803  0.95012  1.0000
  H   H4476     1.0  0.61521  0.02501  0.87563  1.0000
  H   H4477     1.0  0.58680  0.05988  0.85174  1.0000
  C   C2818     1.0  0.83377  0.47901  0.86365  1.0000
  H   H4478     1.0  0.60343  0.06485  0.83368  1.0000
  H   H4479     1.0  0.62567  0.05174  0.86928  1.0000
  H   H4480     1.0  0.60421  0.06357  0.87016  1.0000
  H   H4481     1.0  0.62074  0.06823  0.85161  1.0000
  N   N279      1.0  0.57480  0.15378  0.86051  1.0000
  C   C2819     1.0  0.57969  0.14000  0.87471  1.0000
  C   C2820     1.0  0.56650  0.14753  0.85063  1.0000
  C   C2821     1.0  0.59033  0.15941  0.84945  1.0000
  C   C2822     1.0  0.56270  0.16818  0.86724  1.0000
  H   H4482     1.0  0.56836  0.13515  0.88315  1.0000
  H   H4483     1.0  0.58567  0.14441  0.88260  1.0000
  H   H4484     1.0  0.58920  0.12912  0.87007  1.0000
  H   H4485     1.0  0.55466  0.14328  0.85853  1.0000
  H   H4486     1.0  0.56270  0.15761  0.83975  1.0000
  H   H4487     1.0  0.57524  0.13662  0.84541  1.0000
  H   H4488     1.0  0.59686  0.16426  0.85650  1.0000
  H   H4489     1.0  0.58717  0.16974  0.83853  1.0000
  H   H4490     1.0  0.59981  0.14879  0.84427  1.0000
  H   H4491     1.0  0.55872  0.17881  0.85686  1.0000
  H   H4492     1.0  0.56855  0.17328  0.87469  1.0000
  H   H4493     1.0  0.55083  0.16439  0.87569  1.0000
  C   C2823     1.0  0.56994  0.47687  0.84105  1.0000
  H   H4494     1.0  0.98589  0.40750  0.80504  1.0000
  C   C2824     1.0  0.98800  0.44785  0.79506  1.0000
  C   C2825     1.0  0.58856  0.39488  0.96822  1.0000
  C   C2826     1.0  0.52721  0.46741  0.74592  1.0000
  S   S1138     1.0  0.52037  0.18791  0.96523  1.0000
  H   H4495     1.0  0.79923  0.36251  0.91085  1.0000
  H   H4496     1.0  0.56262  0.38891  0.88227  1.0000
  H   H4497     1.0  0.98881  0.44379  0.77073  1.0000
  C   C2827     1.0  0.51068  0.40480  0.85812  1.0000
  C   C2828     1.0  0.94519  0.22307  0.83956  1.0000
  H   H4498     1.0  0.55634  0.18639  0.95001  1.0000
  C   C2829     1.0  0.74881  0.13996  0.98332  1.0000
  H   H4499     1.0  0.50225  0.35868  0.84331  1.0000
  H   H4500     1.0  0.78674  0.39284  0.91139  1.0000
  H   H4501     1.0  0.51292  0.22425  0.95388  1.0000
  H   H4502     1.0  0.59625  0.04550  0.83777  1.0000
  S   S1139     1.0  0.89019  0.37674  0.97554  1.0000
  N   N280      1.0  0.57383  0.18353  0.96575  1.0000
  H   H4503     1.0  0.82417  0.45629  0.80309  1.0000
  H   H4504     1.0  0.87180  0.24799  0.96258  1.0000
  H   H4505     1.0  0.99367  0.24536  0.87556  1.0000
  C   C2830     1.0  0.58346  0.47338  0.86438  1.0000
  H   H4506     1.0  0.49924  0.38528  0.94881  1.0000
  H   H4507     1.0  0.96223  0.99978  0.80943  1.0000
  H   H4508     1.0  0.66876  0.45496  0.97619  1.0000
  H   H4509     1.0  0.99191  0.11997  0.80887  1.0000
  C   C2831     1.0  0.99030  0.16129  0.87686  1.0000
  H   H4510     1.0  0.83539  0.14679  0.93014  1.0000
  H   H4511     1.0  0.57905  0.20564  0.96984  1.0000
  C   C2832     1.0  0.51358  0.22121  0.96706  1.0000
  N   N281      1.0  0.99717  0.24858  0.89880  1.0000
  C   C2833     1.0  0.99337  0.37892  0.82810  1.0000
  H   H4512     1.0  0.82235  0.42189  0.96748  1.0000
  C   C2834     1.0  0.99729  0.16999  0.88448  1.0000
  H   H4513     1.0  0.83453  0.37464  0.97725  1.0000
  C   C2835     1.0  0.88881  0.25432  0.98236  1.0000
  N   N282      1.0  0.83729  0.39872  0.97938  1.0000
  C   C2836     1.0  0.50270  0.42097  0.85021  1.0000
  C   C2837     1.0  0.56082  0.18124  0.98173  1.0000
  H   H4514     1.0  0.60887  0.48238  0.94521  1.0000
  H   H4515     1.0  0.69576  0.99680  0.90079  1.0000
  H   H4516     1.0  0.55128  0.17455  0.98088  1.0000
  C   C2838     1.0  0.88323  0.34550  0.98005  1.0000
  C   C2839     1.0  0.50794  0.31044  0.97435  1.0000
  C   C2840     1.0  0.59244  0.41264  0.98450  1.0000
  S   S1140     1.0  0.51608  0.48920  0.78996  1.0000
  C   C2841     1.0  0.85126  0.40676  0.97886  1.0000
  H   H4517     1.0  0.50012  0.16098  0.96279  1.0000
  S   S1141     1.0  0.50123  0.44975  0.82485  1.0000
  H   H4518     1.0  0.86889  0.99351  0.79220  1.0000
  H   H4519     1.0  0.84630  0.42011  0.98035  1.0000
  H   H4520     1.0  0.50083  0.38021  0.84412  1.0000
  H   H4521     1.0  0.87692  0.32141  0.98337  1.0000
  H   H4522     1.0  0.99872  0.15354  0.86822  1.0000
  H   H4523     1.0  0.84912  0.48677  0.83111  1.0000
  C   C2842     1.0  0.61843  0.48814  0.96381  1.0000
  H   H4524     1.0  0.55353  0.19367  0.98484  1.0000
  C   C2843     1.0  0.99901  0.40420  0.83190  1.0000
  H   H4525     1.0  0.89811  0.26014  0.98495  1.0000
  Fe  Fe573     1.0  0.80475  0.90568  0.07724  1.0000
  S   S1142     1.0  0.80433  0.93344  0.06978  1.0000
  S   S1143     1.0  0.81119  0.88984  0.10191  1.0000
  Fe  Fe574     1.0  0.79421  0.90602  0.04473  1.0000
  S   S1144     1.0  0.78941  0.89153  0.02808  1.0000
  Fe  Fe575     1.0  0.81782  0.92788  0.04413  1.0000
  Fe  Fe576     1.0  0.77977  0.93563  0.06205  1.0000
  S   S1145     1.0  0.75578  0.95565  0.06808  1.0000
  S   S1146     1.0  0.81954  0.89992  0.05210  1.0000
  S   S1147     1.0  0.77946  0.90797  0.07107  1.0000
  Fe  Fe577     1.0  0.85322  0.93007  0.14877  1.0000
  S   S1148     1.0  0.86125  0.94827  0.12462  1.0000
  S   S1149     1.0  0.83214  0.91559  0.15613  1.0000
  Fe  Fe578     1.0  0.88154  0.93200  0.16437  1.0000
  S   S1150     1.0  0.89239  0.95012  0.14132  1.0000
  S   S1151     1.0  0.89441  0.92017  0.18658  1.0000
  Fe  Fe579     1.0  0.86487  0.96323  0.14143  1.0000
  H   H4526     1.0  0.91613  0.53468  0.14365  1.0000
  Fe  Fe580     1.0  0.88805  0.93364  0.12641  1.0000
  S   S1152     1.0  0.90735  0.92651  0.10321  1.0000
  S   S1153     1.0  0.85435  0.94623  0.16560  1.0000
  S   S1154     1.0  0.87969  0.91443  0.14945  1.0000
  Fe  Fe581     1.0  0.91946  0.82929  0.03724  1.0000
  S   S1155     1.0  0.93623  0.84260  0.01469  1.0000
  S   S1156     1.0  0.90806  0.80797  0.03674  1.0000
  Fe  Fe582     1.0  0.91944  0.85229  0.05981  1.0000
  S   S1157     1.0  0.93603  0.86757  0.03914  1.0000
  S   S1158     1.0  0.90988  0.85654  0.08648  1.0000
  Fe  Fe583     1.0  0.91952  0.86639  0.02257  1.0000
  H   H4527     1.0  0.93318  0.59972  0.04755  1.0000
  Fe  Fe584     1.0  0.95117  0.84250  0.03328  1.0000
  S   S1159     1.0  0.98001  0.83430  0.02843  1.0000
  S   S1160     1.0  0.90149  0.85318  0.04375  1.0000
  S   S1161     1.0  0.93579  0.82708  0.05528  1.0000
  Fe  Fe585     1.0  0.56711  0.84563  0.07436  1.0000
  S   S1162     1.0  0.53991  0.85966  0.07452  1.0000
  S   S1163     1.0  0.57609  0.81722  0.08055  1.0000
  Fe  Fe586     1.0  0.58059  0.87830  0.06397  1.0000
  S   S1164     1.0  0.55445  0.89486  0.06303  1.0000
  S   S1165     1.0  0.60457  0.88840  0.05797  1.0000
  Fe  Fe587     1.0  0.54582  0.87696  0.08731  1.0000
  S   S1166     1.0  0.52608  0.88582  0.10940  1.0000
  Fe  Fe588     1.0  0.55135  0.87588  0.05039  1.0000
  S   S1167     1.0  0.54110  0.88327  0.02677  1.0000
  S   S1168     1.0  0.57229  0.86159  0.08904  1.0000
  S   S1169     1.0  0.57823  0.86069  0.04929  1.0000
  Fe  Fe589     1.0  0.53995  0.91604  0.18038  1.0000
  S   S1170     1.0  0.52581  0.94054  0.16712  1.0000
  S   S1171     1.0  0.55674  0.89639  0.16594  1.0000
  Fe  Fe590     1.0  0.52816  0.92635  0.21437  1.0000
  S   S1172     1.0  0.55188  0.92801  0.19375  1.0000
  S   S1173     1.0  0.63789  0.94435  0.10622  1.0000
  S   S1174     1.0  0.59697  0.95154  0.08908  1.0000
  Fe  Fe591     1.0  0.65922  0.95451  0.08660  1.0000
  S   S1175     1.0  0.68419  0.93596  0.08002  1.0000
  H   H4528     1.0  0.74537  0.94132  0.02287  1.0000
  Fe  Fe592     1.0  0.53508  0.74888  0.08071  1.0000
  S   S1176     1.0  0.54179  0.75769  0.05267  1.0000
  S   S1177     1.0  0.52347  0.77050  0.09395  1.0000
  Fe  Fe593     1.0  0.54420  0.71194  0.07869  1.0000
  S   S1178     1.0  0.55150  0.71794  0.05027  1.0000
  S   S1179     1.0  0.54683  0.68398  0.08960  1.0000
  Fe  Fe594     1.0  0.56474  0.73622  0.05374  1.0000
  S   S1180     1.0  0.58957  0.74212  0.03724  1.0000
  Fe  Fe595     1.0  0.52789  0.73869  0.05209  1.0000
  C   C2844     1.0  0.78043  0.92076  0.00490  1.0000
  S   S1181     1.0  0.55937  0.72883  0.08207  1.0000
  H   H4529     1.0  0.84433  0.94302  0.99084  1.0000
  Fe  Fe596     1.0  0.65607  0.63075  0.04229  1.0000
  S   S1182     1.0  0.67629  0.64612  0.03164  1.0000
  S   S1183     1.0  0.64374  0.62176  0.02654  1.0000
  Fe  Fe597     1.0  0.65613  0.62966  0.07855  1.0000
  S   S1184     1.0  0.67647  0.64496  0.07076  1.0000
  S   S1185     1.0  0.64613  0.62258  0.10671  1.0000
  Fe  Fe598     1.0  0.66146  0.66104  0.05139  1.0000
  S   S1186     1.0  0.65956  0.68923  0.04448  1.0000
  Fe  Fe599     1.0  0.68961  0.62870  0.05179  1.0000
  S   S1187     1.0  0.71805  0.61812  0.04314  1.0000
  S   S1188     1.0  0.64002  0.64712  0.06063  1.0000
  S   S1189     1.0  0.67045  0.61193  0.06110  1.0000
  Fe  Fe600     1.0  0.53773  0.62647  0.17551  1.0000
  S   S1190     1.0  0.56560  0.61535  0.17573  1.0000
  S   S1191     1.0  0.52821  0.65482  0.16855  1.0000
  Fe  Fe601     1.0  0.52860  0.59190  0.18410  1.0000
  S   S1192     1.0  0.55579  0.57831  0.18392  1.0000
  H   H4530     1.0  0.98215  0.83456  0.99301  1.0000
  Fe  Fe602     1.0  0.55563  0.59671  0.19901  1.0000
  Fe  Fe603     1.0  0.56278  0.59811  0.16087  1.0000
  S   S1193     1.0  0.57953  0.59189  0.13628  1.0000
  S   S1194     1.0  0.52797  0.60946  0.20016  1.0000
  S   S1195     1.0  0.53536  0.61004  0.15963  1.0000
  H   H4531     1.0  0.72132  0.97594  0.07096  1.0000
  H   H4532     1.0  0.82245  0.92126  0.09931  1.0000
  S   S1196     1.0  0.52149  0.53941  0.13086  1.0000
  C   C2845     1.0  0.98845  0.87567  0.03796  1.0000
  H   H4533     1.0  0.63180  0.52853  0.02490  1.0000
  H   H4534     1.0  0.97654  0.86086  0.09963  1.0000
  C   C2846     1.0  0.50764  0.67668  0.08128  1.0000
  C   C2847     1.0  0.96959  0.77837  0.06376  1.0000
  Fe  Fe604     1.0  0.80266  0.63091  0.05736  1.0000
  S   S1197     1.0  0.81822  0.62744  0.03159  1.0000
  S   S1198     1.0  0.77407  0.64130  0.06448  1.0000
  Fe  Fe605     1.0  0.83414  0.61998  0.07299  1.0000
  S   S1199     1.0  0.85224  0.61528  0.04879  1.0000
  S   S1200     1.0  0.84231  0.61882  0.09677  1.0000
  Fe  Fe606     1.0  0.83684  0.63959  0.03658  1.0000
  S   S1201     1.0  0.85219  0.65658  0.01606  1.0000
  Fe  Fe607     1.0  0.83231  0.60349  0.04590  1.0000
  S   S1202     1.0  0.84162  0.57928  0.03652  1.0000
  S   S1203     1.0  0.82009  0.64536  0.06102  1.0000
  S   S1204     1.0  0.81541  0.60584  0.07143  1.0000
  Fe  Fe608     1.0  0.94770  0.68360  0.03445  1.0000
  S   S1205     1.0  0.93059  0.70725  0.04207  1.0000
  S   S1206     1.0  0.96216  0.66319  0.05219  1.0000
  S   S1207     1.0  0.92119  0.71773  0.00453  1.0000
  Fe  Fe609     1.0  0.94153  0.72055  0.01589  1.0000
  S   S1208     1.0  0.95350  0.74337  0.00887  1.0000
  Fe  Fe610     1.0  0.91216  0.70178  0.03003  1.0000
  S   S1209     1.0  0.88470  0.70123  0.04309  1.0000
  S   S1210     1.0  0.96019  0.69722  0.00908  1.0000
  S   S1211     1.0  0.92866  0.67722  0.02420  1.0000
  Fe  Fe611     1.0  0.91580  0.58823  0.16860  1.0000
  S   S1212     1.0  0.93207  0.56766  0.15501  1.0000
  S   S1213     1.0  0.90222  0.58016  0.19578  1.0000
  Fe  Fe612     1.0  0.92066  0.61612  0.13665  1.0000
  S   S1214     1.0  0.93741  0.59774  0.12101  1.0000
  S   S1215     1.0  0.91349  0.64344  0.12358  1.0000
  Fe  Fe613     1.0  0.91818  0.58157  0.13403  1.0000
  S   S1216     1.0  0.90976  0.57015  0.11699  1.0000
  Fe  Fe614     1.0  0.94942  0.58606  0.14344  1.0000
  S   S1217     1.0  0.97808  0.57941  0.13938  1.0000
  S   S1218     1.0  0.90053  0.60076  0.14847  1.0000
  S   S1219     1.0  0.93412  0.60585  0.15827  1.0000
  H   H4535     1.0  0.91814  0.49318  0.13414  1.0000
  C   C2848     1.0  0.99572  0.58955  0.18170  1.0000
  C   C2849     1.0  0.65016  0.62687  0.00434  1.0000
  Fe  Fe615     1.0  0.78636  0.52695  0.02636  1.0000
  S   S1220     1.0  0.78484  0.55501  0.01791  1.0000
  C   C2850     1.0  0.64404  0.61952  0.99474  1.0000
  H   H4536     1.0  0.83173  0.93069  0.12033  1.0000
  C   C2851     1.0  0.90945  0.58222  0.21281  1.0000
  C   C2852     1.0  0.94471  0.54726  0.20230  1.0000
  C   C2853     1.0  0.92471  0.58752  0.21028  1.0000
  H   H4537     1.0  0.52338  0.97800  0.11367  1.0000
  H   H4538     1.0  0.93203  0.59112  0.19758  1.0000
  C   C2854     1.0  0.98502  0.58242  0.15601  1.0000
  C   C2855     1.0  0.97368  0.58365  0.17157  1.0000
  C   C2856     1.0  0.97903  0.58718  0.18442  1.0000
  H   H4539     1.0  0.96081  0.58178  0.17377  1.0000
  H   H4540     1.0  0.97017  0.58825  0.19640  1.0000
  C   C2857     1.0  0.92747  0.64909  0.10411  1.0000
  C   C2858     1.0  0.94412  0.63945  0.10016  1.0000
  C   C2859     1.0  0.95492  0.64405  0.08435  1.0000
  C   C2860     1.0  0.94893  0.65806  0.07229  1.0000
  C   C2861     1.0  0.93224  0.66756  0.07626  1.0000
  C   C2862     1.0  0.92169  0.66333  0.09224  1.0000
  H   H4541     1.0  0.94879  0.62862  0.10935  1.0000
  H   H4542     1.0  0.96781  0.63661  0.08135  1.0000
  H   H4543     1.0  0.92739  0.67825  0.06707  1.0000
  H   H4544     1.0  0.90900  0.67107  0.09536  1.0000
  C   C2863     1.0  0.80065  0.56171  0.02306  1.0000
  C   C2864     1.0  0.81694  0.55127  0.02323  1.0000
  C   C2865     1.0  0.82962  0.55699  0.02688  1.0000
  C   C2866     1.0  0.82586  0.57291  0.03093  1.0000
  C   C2867     1.0  0.80948  0.58325  0.03104  1.0000
  C   C2868     1.0  0.79696  0.57776  0.02684  1.0000
  H   H4545     1.0  0.81992  0.53896  0.02014  1.0000
  H   H4546     1.0  0.84233  0.54903  0.02664  1.0000
  H   H4547     1.0  0.80644  0.59549  0.03429  1.0000
  H   H4548     1.0  0.78436  0.58587  0.02673  1.0000
  C   C2869     1.0  0.86136  0.66857  0.02391  1.0000
  C   C2870     1.0  0.85282  0.67455  0.03866  1.0000
  C   C2871     1.0  0.85994  0.68477  0.04434  1.0000
  C   C2872     1.0  0.87584  0.68868  0.03556  1.0000
  C   C2873     1.0  0.88449  0.68248  0.02095  1.0000
  C   C2874     1.0  0.87720  0.67257  0.01506  1.0000
  H   H4549     1.0  0.84045  0.67179  0.04536  1.0000
  H   H4550     1.0  0.85301  0.68979  0.05545  1.0000
  H   H4551     1.0  0.89667  0.68553  0.01402  1.0000
  H   H4552     1.0  0.88392  0.66783  0.00374  1.0000
  C   C2875     1.0  0.86012  0.60352  0.10253  1.0000
  C   C2876     1.0  0.86307  0.60165  0.11859  1.0000
  C   C2877     1.0  0.87798  0.59093  0.12320  1.0000
  C   C2878     1.0  0.89017  0.58207  0.11178  1.0000
  C   C2879     1.0  0.88692  0.58327  0.09593  1.0000
  C   C2880     1.0  0.87191  0.59407  0.09126  1.0000
  H   H4553     1.0  0.85379  0.60859  0.12751  1.0000
  H   H4554     1.0  0.87982  0.58932  0.13577  1.0000
  H   H4555     1.0  0.89615  0.57616  0.08715  1.0000
  H   H4556     1.0  0.86960  0.59531  0.07890  1.0000
  S   S1221     1.0  0.91148  0.88956  0.00317  1.0000
  Fe  Fe616     1.0  0.93913  0.69343  0.99954  1.0000
  S   S1222     1.0  0.65623  0.97677  0.09786  1.0000
  N   N283      1.0  0.57360  0.54516  0.13432  1.0000
  H   H4557     1.0  0.52516  0.71192  0.03738  1.0000
  S   S1223     1.0  0.79328  0.93382  0.03539  1.0000
  H   H4558     1.0  0.60495  0.52486  0.99788  1.0000
  H   H4559     1.0  0.72366  0.95140  0.02108  1.0000
  C   C2881     1.0  0.97905  0.62373  0.12577  1.0000
  H   H4560     1.0  0.60456  0.94749  0.17320  1.0000
  C   C2882     1.0  0.51243  0.56517  0.17455  1.0000
  S   S1224     1.0  0.61471  0.98318  0.09957  1.0000
  C   C2883     1.0  0.51301  0.54051  0.16446  1.0000
  C   C2884     1.0  0.51714  0.54943  0.14774  1.0000
  C   C2885     1.0  0.51856  0.56629  0.14444  1.0000
  C   C2886     1.0  0.51651  0.57406  0.15783  1.0000
  H   H4561     1.0  0.97328  0.89807  0.06311  1.0000
  H   H4562     1.0  0.89576  0.80054  0.00897  1.0000
  H   H4563     1.0  0.52155  0.57329  0.13152  1.0000
  C   C2887     1.0  0.59347  0.98202  0.14288  1.0000
  C   C2888     1.0  0.73376  0.62292  0.05047  1.0000
  C   C2889     1.0  0.75108  0.61887  0.04226  1.0000
  C   C2890     1.0  0.76374  0.62384  0.04686  1.0000
  C   C2891     1.0  0.75908  0.63302  0.05962  1.0000
  C   C2892     1.0  0.74184  0.63663  0.06812  1.0000
  C   C2893     1.0  0.72926  0.63139  0.06374  1.0000
  H   H4564     1.0  0.75469  0.61220  0.03205  1.0000
  H   H4565     1.0  0.77700  0.62099  0.04025  1.0000
  H   H4566     1.0  0.73822  0.64354  0.07815  1.0000
  H   H4567     1.0  0.71606  0.63407  0.07052  1.0000
  C   C2894     1.0  0.62751  0.61425  0.11455  1.0000
  C   C2895     1.0  0.62002  0.61219  0.13189  1.0000
  C   C2896     1.0  0.60504  0.60575  0.13857  1.0000
  C   C2897     1.0  0.59768  0.60099  0.12800  1.0000
  C   C2898     1.0  0.60518  0.60303  0.11064  1.0000
  C   C2899     1.0  0.61997  0.60983  0.10388  1.0000
  H   H4568     1.0  0.62584  0.61557  0.14020  1.0000
  H   H4569     1.0  0.59948  0.60405  0.15198  1.0000
  H   H4570     1.0  0.59955  0.59933  0.10241  1.0000
  H   H4571     1.0  0.62570  0.61135  0.09050  1.0000
  Fe  Fe617     1.0  0.52610  0.51123  0.14017  1.0000
  S   S1225     1.0  0.84062  0.93814  0.02736  1.0000
  C   C2900     1.0  0.89160  0.90264  0.00997  1.0000
  H   H4572     1.0  0.88217  0.95698  0.17857  1.0000
  C   C2901     1.0  0.85998  0.92416  0.02055  1.0000
  C   C2902     1.0  0.60851  0.72677  0.03979  1.0000
  C   C2903     1.0  0.62418  0.73183  0.03328  1.0000
  C   C2904     1.0  0.63960  0.72016  0.03497  1.0000
  C   C2905     1.0  0.63961  0.70316  0.04279  1.0000
  C   C2906     1.0  0.62396  0.69790  0.04913  1.0000
  C   C2907     1.0  0.60836  0.70977  0.04783  1.0000
  H   H4573     1.0  0.62445  0.74485  0.02696  1.0000
  H   H4574     1.0  0.65160  0.72431  0.03002  1.0000
  H   H4575     1.0  0.62390  0.68475  0.05499  1.0000
  H   H4576     1.0  0.59629  0.70573  0.05271  1.0000
  C   C2908     1.0  0.54198  0.67650  0.11161  1.0000
  C   C2909     1.0  0.53393  0.68746  0.12273  1.0000
  C   C2910     1.0  0.52972  0.68078  0.14025  1.0000
  C   C2911     1.0  0.53394  0.66322  0.14667  1.0000
  C   C2912     1.0  0.54248  0.65246  0.13549  1.0000
  C   C2913     1.0  0.54617  0.65903  0.11802  1.0000
  H   H4577     1.0  0.53072  0.70100  0.11785  1.0000
  H   H4578     1.0  0.52323  0.68919  0.14887  1.0000
  H   H4579     1.0  0.54629  0.63902  0.14025  1.0000
  H   H4580     1.0  0.55247  0.65048  0.10950  1.0000
  H   H4581     1.0  0.57756  0.81897  0.13536  1.0000
  C   C2914     1.0  0.58628  0.54826  0.14185  1.0000
  H   H4582     1.0  0.56612  0.52924  0.22542  1.0000
  H   H4583     1.0  0.75343  0.91027  0.03266  1.0000
  S   S1226     1.0  0.54567  0.97604  0.16746  1.0000
  H   H4584     1.0  0.53877  0.80565  0.13402  1.0000
  H   H4585     1.0  0.91530  0.60464  0.09206  1.0000
  H   H4586     1.0  0.92378  0.58964  0.07868  1.0000
  H   H4587     1.0  0.93768  0.60080  0.08219  1.0000
  C   C2915     1.0  0.56121  0.80464  0.08364  1.0000
  C   C2916     1.0  0.56720  0.78721  0.08437  1.0000
  C   C2917     1.0  0.55566  0.77676  0.08713  1.0000
  C   C2918     1.0  0.53802  0.78360  0.08983  1.0000
  C   C2919     1.0  0.53199  0.80099  0.08931  1.0000
  C   C2920     1.0  0.54359  0.81155  0.08594  1.0000
  H   H4588     1.0  0.58079  0.78172  0.08285  1.0000
  H   H4589     1.0  0.56038  0.76332  0.08767  1.0000
  H   H4590     1.0  0.51835  0.80633  0.09131  1.0000
  H   H4591     1.0  0.53879  0.82493  0.08536  1.0000
  C   C2921     1.0  0.53996  0.86542  0.02038  1.0000
  C   C2922     1.0  0.53713  0.86724  0.00427  1.0000
  H   H4592     1.0  0.88175  0.71007  0.99160  1.0000
  C   C2923     1.0  0.54057  0.83676  0.00888  1.0000
  C   C2924     1.0  0.54231  0.83506  0.02539  1.0000
  C   C2925     1.0  0.54243  0.84930  0.03099  1.0000
  C   C2926     1.0  0.79136  0.89504  0.99420  1.0000
  H   H4593     1.0  0.54403  0.82270  0.03371  1.0000
  H   H4594     1.0  0.54443  0.84778  0.04351  1.0000
  C   C2927     1.0  0.53452  0.88882  0.12517  1.0000
  C   C2928     1.0  0.52409  0.89853  0.13687  1.0000
  C   C2929     1.0  0.53076  0.90095  0.14949  1.0000
  C   C2930     1.0  0.54779  0.89340  0.15061  1.0000
  C   C2931     1.0  0.55806  0.88343  0.13915  1.0000
  C   C2932     1.0  0.55150  0.88130  0.12640  1.0000
  H   H4595     1.0  0.57986  0.55513  0.15230  1.0000
  H   H4596     1.0  0.52267  0.90853  0.15842  1.0000
  H   H4597     1.0  0.57119  0.87746  0.14003  1.0000
  H   H4598     1.0  0.55962  0.87378  0.11761  1.0000
  C   C2933     1.0  0.60256  0.90564  0.06706  1.0000
  C   C2934     1.0  0.58664  0.91310  0.07593  1.0000
  C   C2935     1.0  0.58510  0.92723  0.08253  1.0000
  C   C2936     1.0  0.59951  0.93382  0.08057  1.0000
  C   C2937     1.0  0.61552  0.92613  0.07209  1.0000
  C   C2938     1.0  0.61701  0.91213  0.06524  1.0000
  H   H4599     1.0  0.57546  0.90812  0.07753  1.0000
  H   H4600     1.0  0.57267  0.93308  0.08911  1.0000
  H   H4601     1.0  0.62670  0.93113  0.07056  1.0000
  H   H4602     1.0  0.62936  0.90637  0.05843  1.0000
  C   C2939     1.0  0.92148  0.78969  0.03015  1.0000
  C   C2940     1.0  0.93826  0.78967  0.02079  1.0000
  C   C2941     1.0  0.94807  0.77534  0.01437  1.0000
  C   C2942     1.0  0.94123  0.76094  0.01749  1.0000
  C   C2943     1.0  0.92458  0.76087  0.02712  1.0000
  C   C2944     1.0  0.91473  0.77524  0.03337  1.0000
  H   H4603     1.0  0.94347  0.80084  0.01811  1.0000
  H   H4604     1.0  0.94608  0.55464  0.21084  1.0000
  H   H4605     1.0  0.91922  0.74982  0.02960  1.0000
  H   H4606     1.0  0.90174  0.77521  0.04060  1.0000
  H   H4607     1.0  0.96428  0.86383  0.08403  1.0000
  C   C2945     1.0  0.98135  0.86497  0.03301  1.0000
  H   H4608     1.0  0.98218  0.88889  0.03710  1.0000
  H   H4609     1.0  0.96982  0.87009  0.02821  1.0000
  C   C2946     1.0  0.97980  0.79048  0.03436  1.0000
  C   C2947     1.0  0.86992  0.93531  0.21100  1.0000
  C   C2948     1.0  0.56252  0.53471  0.14741  1.0000
  H   H4610     1.0  0.96895  0.61614  0.12989  1.0000
  C   C2949     1.0  0.85116  0.49504  0.06272  1.0000
  C   C2950     1.0  0.99722  0.76557  0.04862  1.0000
  H   H4611     1.0  0.86265  0.94177  0.20135  1.0000
  H   H4612     1.0  0.80906  0.54988  0.06273  1.0000
  C   C2951     1.0  0.87736  0.89578  0.01928  1.0000
  H   H4613     1.0  0.60390  0.55597  0.98640  1.0000
  C   C2952     1.0  0.71027  0.92375  0.03655  1.0000
  S   S1227     1.0  0.54325  0.81858  0.00103  1.0000
  H   H4614     1.0  0.56050  0.79554  0.04050  1.0000
  H   H4615     1.0  0.92059  0.97458  0.17069  1.0000
  H   H4616     1.0  0.56676  0.95287  0.11875  1.0000
  C   C2953     1.0  0.90768  0.90722  0.09849  1.0000
  C   C2954     1.0  0.90091  0.89444  0.11091  1.0000
  C   C2955     1.0  0.90206  0.87883  0.10714  1.0000
  C   C2956     1.0  0.90977  0.87594  0.09085  1.0000
  C   C2957     1.0  0.91659  0.88869  0.07838  1.0000
  C   C2958     1.0  0.91555  0.90429  0.08221  1.0000
  H   H4617     1.0  0.89500  0.89643  0.12352  1.0000
  H   H4618     1.0  0.89677  0.86901  0.11686  1.0000
  H   H4619     1.0  0.92249  0.88665  0.06576  1.0000
  H   H4620     1.0  0.92078  0.91416  0.07252  1.0000
  C   C2959     1.0  0.73573  0.95019  0.07200  1.0000
  C   C2960     1.0  0.73461  0.93334  0.07447  1.0000
  C   C2961     1.0  0.71865  0.92916  0.07754  1.0000
  C   C2962     1.0  0.70361  0.94180  0.07791  1.0000
  C   C2963     1.0  0.70458  0.95869  0.07567  1.0000
  C   C2964     1.0  0.72062  0.96285  0.07282  1.0000
  H   H4621     1.0  0.74598  0.92345  0.07400  1.0000
  H   H4622     1.0  0.71793  0.91606  0.07949  1.0000
  H   H4623     1.0  0.77627  0.92713  0.01528  1.0000
  C   C2965     1.0  0.88985  0.92025  0.00554  1.0000
  C   C2966     1.0  0.87417  0.93095  0.01098  1.0000
  H   H4624     1.0  0.90077  0.92565  0.99818  1.0000
  H   H4625     1.0  0.87311  0.94454  0.00784  1.0000
  C   C2967     1.0  0.81719  0.89789  0.11626  1.0000
  C   C2968     1.0  0.81682  0.88814  0.13269  1.0000
  C   C2969     1.0  0.82142  0.89378  0.14468  1.0000
  C   C2970     1.0  0.82705  0.90898  0.14027  1.0000
  C   C2971     1.0  0.82764  0.91879  0.12376  1.0000
  C   C2972     1.0  0.82240  0.91340  0.11183  1.0000
  H   H4626     1.0  0.81280  0.87618  0.13625  1.0000
  H   H4627     1.0  0.82080  0.88619  0.15741  1.0000
  N   N284      1.0  0.59808  0.66716  0.10202  1.0000
  C   C2973     1.0  0.58845  0.68492  0.10098  1.0000
  C   C2974     1.0  0.59451  0.66000  0.08944  1.0000
  C   C2975     1.0  0.59275  0.65701  0.11917  1.0000
  C   C2976     1.0  0.61664  0.66665  0.09847  1.0000
  H   H4628     1.0  0.59102  0.69076  0.11016  1.0000
  H   H4629     1.0  0.57438  0.68575  0.10386  1.0000
  H   H4630     1.0  0.59191  0.69284  0.08809  1.0000
  H   H4631     1.0  0.60155  0.64656  0.08995  1.0000
  H   H4632     1.0  0.58060  0.66024  0.09171  1.0000
  H   H4633     1.0  0.59842  0.66728  0.07632  1.0000
  H   H4634     1.0  0.59556  0.66175  0.12902  1.0000
  H   H4635     1.0  0.59951  0.64348  0.12024  1.0000
  H   H4636     1.0  0.57876  0.65733  0.12242  1.0000
  H   H4637     1.0  0.62109  0.67445  0.08578  1.0000
  H   H4638     1.0  0.62427  0.65349  0.09870  1.0000
  H   H4639     1.0  0.61995  0.67139  0.10803  1.0000
  N   N285      1.0  0.55209  0.82543  0.13070  1.0000
  H   H4640     1.0  0.55887  0.96300  0.13647  1.0000
  C   C2977     1.0  0.56999  0.82765  0.12614  1.0000
  C   C2978     1.0  0.54368  0.82938  0.14751  1.0000
  C   C2979     1.0  0.90011  0.57753  0.22937  1.0000
  H   H4641     1.0  0.90223  0.53774  0.11297  1.0000
  C   C2980     1.0  0.53392  0.96970  0.11983  1.0000
  H   H4642     1.0  0.51090  0.90435  0.13610  1.0000
  H   H4643     1.0  0.88631  0.96623  0.20946  1.0000
  H   H4644     1.0  0.91212  0.64358  0.99258  1.0000
  H   H4645     1.0  0.81744  0.56512  0.06759  1.0000
  H   H4646     1.0  0.97327  0.90700  0.09515  1.0000
  H   H4647     1.0  0.52593  0.75324  0.99678  1.0000
  S   S1228     1.0  0.54016  0.49500  0.12153  1.0000
  H   H4648     1.0  0.53549  0.85443  0.98600  1.0000
  H   H4649     1.0  0.61233  0.54356  0.02993  1.0000
  H   H4650     1.0  0.54887  0.83457  0.10515  1.0000
  S   S1229     1.0  0.50792  0.74669  0.03652  1.0000
  H   H4651     1.0  0.59474  0.55629  0.13233  1.0000
  H   H4652     1.0  0.57016  0.52240  0.15314  1.0000
  H   H4653     1.0  0.97002  0.80242  0.03561  1.0000
  H   H4654     1.0  0.97300  0.77172  0.07617  1.0000
  H   H4655     1.0  0.61458  0.64863  0.99319  1.0000
  H   H4656     1.0  0.57490  0.97054  0.11878  1.0000
  C   C2981     1.0  0.60395  0.96846  0.15168  1.0000
  C   C2982     1.0  0.89465  0.91553  0.21997  1.0000
  H   H4657     1.0  0.87826  0.52679  0.13422  1.0000
  H   H4658     1.0  0.59134  0.54355  0.11047  1.0000
  C   C2983     1.0  0.51170  0.71297  0.03829  1.0000
  H   H4659     1.0  0.93585  0.55587  0.19423  1.0000
  C   C2984     1.0  0.88772  0.51515  0.13833  1.0000
  C   C2985     1.0  0.58263  0.53615  0.12046  1.0000
  H   H4660     1.0  0.61655  0.51369  0.01408  1.0000
  C   C2986     1.0  0.90919  0.97138  0.16879  1.0000
  C   C2987     1.0  0.83533  0.49277  0.06181  1.0000
  H   H4661     1.0  0.57339  0.53392  0.11430  1.0000
  H   H4662     1.0  0.70726  0.91154  0.03680  1.0000
  H   H4663     1.0  0.93177  0.51077  0.20724  1.0000
  N   N286      1.0  0.58747  0.79413  0.02987  1.0000
  C   C2988     1.0  0.70465  0.50014  0.04143  1.0000
  N   N287      1.0  0.58379  0.89666  0.99027  1.0000
  H   H4664     1.0  0.94069  0.88177  0.10056  1.0000
  H   H4665     1.0  0.60190  0.87304  0.99505  1.0000
  C   C2989     1.0  0.82453  0.92031  0.99787  1.0000
  C   C2990     1.0  0.85244  0.60858  0.99056  1.0000
  H   H4666     1.0  0.50400  0.77972  0.04565  1.0000
  H   H4667     1.0  0.86568  0.62290  0.00718  1.0000
  N   N288      1.0  0.86374  0.89224  0.07439  1.0000
  C   C2991     1.0  0.88062  0.89516  0.06401  1.0000
  C   C2992     1.0  0.86435  0.88735  0.09251  1.0000
  C   C2993     1.0  0.85936  0.87843  0.06973  1.0000
  C   C2994     1.0  0.85062  0.90799  0.07135  1.0000
  H   H4668     1.0  0.88475  0.90481  0.06790  1.0000
  H   H4669     1.0  0.88036  0.89978  0.05037  1.0000
  H   H4670     1.0  0.89065  0.88329  0.06512  1.0000
  H   H4671     1.0  0.85172  0.88526  0.10066  1.0000
  H   H4672     1.0  0.87391  0.87533  0.09528  1.0000
  H   H4673     1.0  0.86788  0.89728  0.09655  1.0000
  H   H4674     1.0  0.84654  0.87610  0.07719  1.0000
  H   H4675     1.0  0.86892  0.86631  0.07218  1.0000
  H   H4676     1.0  0.85906  0.88145  0.05611  1.0000
  H   H4677     1.0  0.85309  0.91840  0.07556  1.0000
  H   H4678     1.0  0.83762  0.90597  0.07821  1.0000
  H   H4679     1.0  0.85034  0.91252  0.05772  1.0000
  H   H4680     1.0  0.86762  0.97270  0.18955  1.0000
  C   C2995     1.0  0.54266  0.83704  0.11799  1.0000
  H   H4681     1.0  0.91261  0.95773  0.16815  1.0000
  H   H4682     1.0  0.50716  0.54157  0.19081  1.0000
  H   H4683     1.0  0.86899  0.87195  0.19118  1.0000
  H   H4684     1.0  0.88305  0.61332  0.99215  1.0000
  H   H4685     1.0  0.53656  0.95697  0.11685  1.0000
  H   H4686     1.0  0.54523  0.78014  0.01171  1.0000
  H   H4687     1.0  0.53373  0.56958  0.21854  1.0000
  C   C2996     1.0  0.55544  0.97900  0.09558  1.0000
  H   H4688     1.0  0.95303  0.88020  0.11557  1.0000
  N   N289      1.0  0.89401  0.97493  0.18247  1.0000
  C   C2997     1.0  0.95016  0.88741  0.10309  1.0000
  H   H4689     1.0  0.85811  0.88963  0.17753  1.0000
  C   C2998     1.0  0.73171  0.94065  0.02847  1.0000
  H   H4690     1.0  0.85897  0.91368  0.98852  1.0000
  C   C2999     1.0  0.93062  0.58797  0.22426  1.0000
  N   N290      1.0  0.86618  0.65952  0.09754  1.0000
  C   C3000     1.0  0.86567  0.66977  0.10950  1.0000
  C   C3001     1.0  0.84866  0.66144  0.09525  1.0000
  C   C3002     1.0  0.87315  0.64150  0.10441  1.0000
  C   C3003     1.0  0.87725  0.66534  0.08102  1.0000
  H   H4691     1.0  0.87868  0.66828  0.11176  1.0000
  H   H4692     1.0  0.85722  0.66587  0.12202  1.0000
  H   H4693     1.0  0.86077  0.68351  0.10464  1.0000
  H   H4694     1.0  0.84865  0.65399  0.08613  1.0000
  H   H4695     1.0  0.84000  0.65678  0.10735  1.0000
  H   H4696     1.0  0.84287  0.67492  0.09029  1.0000
  H   H4697     1.0  0.87343  0.63335  0.09589  1.0000
  H   H4698     1.0  0.86508  0.63678  0.11690  1.0000
  H   H4699     1.0  0.88637  0.63951  0.10635  1.0000
  H   H4700     1.0  0.87736  0.65841  0.07144  1.0000
  H   H4701     1.0  0.89069  0.66361  0.08207  1.0000
  H   H4702     1.0  0.87271  0.67910  0.07586  1.0000
  C   C3004     1.0  0.92106  0.53690  0.22278  1.0000
  H   H4703     1.0  0.83999  0.91463  0.18859  1.0000
  H   H4704     1.0  0.94247  0.59200  0.22220  1.0000
  H   H4705     1.0  0.55853  0.96665  0.09166  1.0000
  C   C3005     1.0  0.91106  0.52574  0.11758  1.0000
  H   H4706     1.0  0.80763  0.52565  0.09805  1.0000
  C   C3006     1.0  0.59648  0.95783  0.16620  1.0000
  H   H4707     1.0  0.90675  0.90671  0.21715  1.0000
  C   C3007     1.0  0.73963  0.91028  0.03821  1.0000
  H   H4708     1.0  0.95457  0.65887  0.13989  1.0000
  H   H4709     1.0  0.59464  0.53621  0.14705  1.0000
  H   H4710     1.0  0.58300  0.79716  0.00511  1.0000
  H   H4711     1.0  0.55596  0.56872  0.13765  1.0000
  H   H4712     1.0  0.56740  0.98403  0.09096  1.0000
  N   N291      1.0  0.96586  0.88690  0.08948  1.0000
  N   N292      1.0  0.54778  0.76274  0.99610  1.0000
  H   H4713     1.0  0.50712  0.69653  0.10152  1.0000
  Fe  Fe618     1.0  0.62067  0.96005  0.08881  1.0000
  H   H4714     1.0  0.93138  0.62204  0.03861  1.0000
  H   H4715     1.0  0.94703  0.61091  0.05112  1.0000
  H   H4716     1.0  0.87591  0.97820  0.16719  1.0000
  H   H4717     1.0  0.57051  0.84086  0.12580  1.0000
  H   H4718     1.0  0.52900  0.96818  0.13378  1.0000
  H   H4719     1.0  0.59054  0.52354  0.12516  1.0000
  H   H4720     1.0  0.87664  0.63594  0.98911  1.0000
  C   C3008     1.0  0.60332  0.78086  0.02763  1.0000
  H   H4721     1.0  0.85162  0.52590  0.07149  1.0000
  H   H4722     1.0  0.99407  0.70943  0.01111  1.0000
  H   H4723     1.0  0.95880  0.65473  0.11913  1.0000
  H   H4724     1.0  0.98213  0.88603  0.10581  1.0000
  H   H4725     1.0  0.99089  0.68191  0.04346  1.0000
  H   H4726     1.0  0.55051  0.82096  0.15745  1.0000
  C   C3009     1.0  0.83077  0.54437  0.09337  1.0000
  H   H4727     1.0  0.95496  0.91061  0.07456  1.0000
  H   H4728     1.0  0.87641  0.89142  0.18389  1.0000
  H   H4729     1.0  0.77434  0.94373  0.98646  1.0000
  N   N293      1.0  0.82592  0.53932  0.08013  1.0000
  C   C3010     1.0  0.88553  0.92393  0.20719  1.0000
  H   H4730     1.0  0.92158  0.54427  0.23173  1.0000
  C   C3011     1.0  0.50040  0.72878  0.03754  1.0000
  N   N294      1.0  0.73252  0.56754  0.04120  1.0000
  C   C3012     1.0  0.73548  0.57847  0.02408  1.0000
  C   C3013     1.0  0.71426  0.57192  0.04971  1.0000
  C   C3014     1.0  0.74338  0.57010  0.05117  1.0000
  C   C3015     1.0  0.73700  0.54961  0.03981  1.0000
  H   H4731     1.0  0.74919  0.57549  0.01742  1.0000
  H   H4732     1.0  0.73223  0.59210  0.02463  1.0000
  H   H4733     1.0  0.72754  0.57682  0.01618  1.0000
  H   H4734     1.0  0.71161  0.56378  0.06261  1.0000
  H   H4735     1.0  0.71044  0.58534  0.05111  1.0000
  H   H4736     1.0  0.70568  0.57030  0.04244  1.0000
  H   H4737     1.0  0.74157  0.56199  0.06414  1.0000
  H   H4738     1.0  0.74030  0.58354  0.05246  1.0000
  H   H4739     1.0  0.75724  0.56695  0.04507  1.0000
  H   H4740     1.0  0.75054  0.54600  0.03302  1.0000
  H   H4741     1.0  0.72877  0.54703  0.03277  1.0000
  H   H4742     1.0  0.73540  0.54088  0.05249  1.0000
  N   N295      1.0  0.90484  0.51876  0.13573  1.0000
  H   H4743     1.0  0.53016  0.82782  0.15134  1.0000
  S   S1230     1.0  0.65224  0.49410  0.02251  1.0000
  H   H4744     1.0  0.97410  0.78239  0.02990  1.0000
  H   H4745     1.0  0.54226  0.85052  0.11749  1.0000
  H   H4746     1.0  0.96012  0.79036  0.06563  1.0000
  H   H4747     1.0  0.93066  0.80621  0.98679  1.0000
  H   H4748     1.0  0.94767  0.64156  0.13698  1.0000
  H   H4749     1.0  0.52624  0.77244  0.01446  1.0000
  H   H4750     1.0  0.51452  0.68624  0.04052  1.0000
  H   H4751     1.0  0.88820  0.50566  0.13111  1.0000
  H   H4752     1.0  0.94561  0.50929  0.23026  1.0000
  H   H4753     1.0  0.56565  0.61652  0.00016  1.0000
  H   H4754     1.0  0.55858  0.80437  0.11856  1.0000
  H   H4755     1.0  0.51777  0.58704  0.15517  1.0000
  H   H4756     1.0  0.83032  0.49882  0.05060  1.0000
  H   H4757     1.0  0.91159  0.78580  0.99770  1.0000
  H   H4758     1.0  0.50065  0.80203  0.04462  1.0000
  H   H4759     1.0  0.57368  0.81530  0.01435  1.0000
  H   H4760     1.0  0.54342  0.84275  0.14753  1.0000
  C   C3016     1.0  0.55836  0.54221  0.22630  1.0000
  C   C3017     1.0  0.86152  0.90655  0.02432  1.0000
  H   H4761     1.0  0.69698  0.51088  0.04678  1.0000
  H   H4762     1.0  0.59592  0.55955  0.00757  1.0000
  H   H4763     1.0  0.83612  0.55603  0.08812  1.0000
  S   S1231     1.0  0.73197  0.50821  0.04720  1.0000
  C   C3018     1.0  0.56808  0.97352  0.16224  1.0000
  C   C3019     1.0  0.81901  0.52378  0.08752  1.0000
  H   H4764     1.0  0.51603  0.56132  0.23273  1.0000
  C   C3020     1.0  0.84124  0.53599  0.06654  1.0000
  C   C3021     1.0  0.91695  0.50292  0.14133  1.0000
  S   S1232     1.0  0.77240  0.51739  0.05263  1.0000
  N   N296      1.0  0.53980  0.54288  0.22929  1.0000
  H   H4765     1.0  0.54561  0.98784  0.08879  1.0000
  N   N297      1.0  0.93817  0.53191  0.21204  1.0000
  H   H4766     1.0  0.92587  0.66432  0.99707  1.0000
  H   H4767     1.0  0.83940  0.91613  0.20968  1.0000
  H   H4768     1.0  0.70704  0.92524  0.04987  1.0000
  H   H4769     1.0  0.84197  0.87032  0.21266  1.0000
  N   N298      1.0  0.76131  0.93551  0.11835  1.0000
  C   C3022     1.0  0.75113  0.92937  0.11028  1.0000
  C   C3023     1.0  0.76567  0.95158  0.10760  1.0000
  C   C3024     1.0  0.77727  0.92270  0.12030  1.0000
  C   C3025     1.0  0.75120  0.93838  0.13514  1.0000
  H   H4770     1.0  0.74754  0.91729  0.11801  1.0000
  H   H4771     1.0  0.75847  0.92701  0.09764  1.0000
  H   H4772     1.0  0.73910  0.93884  0.10830  1.0000
  H   H4773     1.0  0.77302  0.95682  0.11345  1.0000
  H   H4774     1.0  0.77367  0.94974  0.09497  1.0000
  H   H4775     1.0  0.75395  0.96137  0.10524  1.0000
  H   H4776     1.0  0.77461  0.91028  0.12813  1.0000
  H   H4777     1.0  0.78533  0.92681  0.12639  1.0000
  H   H4778     1.0  0.78518  0.92034  0.10781  1.0000
  H   H4779     1.0  0.75853  0.94298  0.14160  1.0000
  H   H4780     1.0  0.74769  0.92649  0.14354  1.0000
  H   H4781     1.0  0.73906  0.94801  0.13406  1.0000
  N   N299      1.0  0.71589  0.67726  0.03117  1.0000
  C   C3026     1.0  0.70685  0.67881  0.01776  1.0000
  C   C3027     1.0  0.73351  0.66706  0.02718  1.0000
  C   C3028     1.0  0.70654  0.66878  0.04749  1.0000
  C   C3029     1.0  0.71654  0.69430  0.03238  1.0000
  H   H4782     1.0  0.69339  0.68619  0.02058  1.0000
  H   H4783     1.0  0.70614  0.66612  0.01660  1.0000
  H   H4784     1.0  0.71341  0.68527  0.00523  1.0000
  H   H4785     1.0  0.74057  0.66527  0.03728  1.0000
  H   H4786     1.0  0.73340  0.65417  0.02607  1.0000
  H   H4787     1.0  0.74110  0.67314  0.01505  1.0000
  H   H4788     1.0  0.69326  0.67619  0.05109  1.0000
  H   H4789     1.0  0.71308  0.66706  0.05794  1.0000
  H   H4790     1.0  0.70555  0.65605  0.04682  1.0000
  H   H4791     1.0  0.72322  0.69350  0.04247  1.0000
  H   H4792     1.0  0.70337  0.70220  0.03548  1.0000
  H   H4793     1.0  0.72348  0.70113  0.02026  1.0000
  C   C3030     1.0  0.81272  0.55313  0.07305  1.0000
  H   H4794     1.0  0.63561  0.61079  0.00106  1.0000
  H   H4795     1.0  0.98028  0.62907  0.11195  1.0000
  S   S1233     1.0  0.51935  0.73121  0.08017  1.0000
  H   H4796     1.0  0.82923  0.88892  0.22024  1.0000
  S   S1234     1.0  0.56417  0.58387  0.22364  1.0000
  C   C3031     1.0  0.77910  0.93013  0.98858  1.0000
  N   N300      1.0  0.85328  0.89221  0.20327  1.0000
  H   H4797     1.0  0.90168  0.95085  0.19873  1.0000
  H   H4798     1.0  0.55318  0.53174  0.14198  1.0000
  H   H4799     1.0  0.72868  0.94291  0.04150  1.0000
  H   H4800     1.0  0.98590  0.62096  0.15605  1.0000
  C   C3032     1.0  0.95826  0.64859  0.13274  1.0000
  H   H4801     1.0  0.52918  0.83558  0.12080  1.0000
  H   H4802     1.0  0.99749  0.78631  0.06765  1.0000
  H   H4803     1.0  0.57683  0.81464  0.04303  1.0000
  N   N301      1.0  0.59885  0.91740  0.13674  1.0000
  C   C3033     1.0  0.61455  0.91021  0.12532  1.0000
  C   C3034     1.0  0.59915  0.93492  0.13674  1.0000
  C   C3035     1.0  0.59799  0.90702  0.15413  1.0000
  C   C3036     1.0  0.58367  0.91747  0.13078  1.0000
  H   H4804     1.0  0.61479  0.89697  0.12505  1.0000
  H   H4805     1.0  0.62632  0.91014  0.12927  1.0000
  H   H4806     1.0  0.61542  0.91776  0.11206  1.0000
  H   H4807     1.0  0.58745  0.94078  0.14514  1.0000
  H   H4808     1.0  0.61044  0.93532  0.14124  1.0000
  H   H4809     1.0  0.59996  0.94314  0.12383  1.0000
  H   H4810     1.0  0.58631  0.91227  0.16304  1.0000
  H   H4811     1.0  0.60933  0.90651  0.15900  1.0000
  H   H4812     1.0  0.59731  0.89379  0.15474  1.0000
  H   H4813     1.0  0.57154  0.92286  0.13904  1.0000
  H   H4814     1.0  0.58299  0.90441  0.13082  1.0000
  H   H4815     1.0  0.58403  0.92494  0.11761  1.0000
  N   N302      1.0  0.92103  0.61582  0.06540  1.0000
  C   C3037     1.0  0.92230  0.63206  0.06812  1.0000
  C   C3038     1.0  0.90358  0.61713  0.06330  1.0000
  C   C3039     1.0  0.92462  0.60215  0.08018  1.0000
  C   C3040     1.0  0.93370  0.61194  0.05000  1.0000
  H   H4816     1.0  0.91341  0.63514  0.07997  1.0000
  H   H4817     1.0  0.91935  0.64281  0.05741  1.0000
  H   H4818     1.0  0.93548  0.63157  0.06924  1.0000
  H   H4819     1.0  0.90228  0.60512  0.06100  1.0000
  H   H4820     1.0  0.89372  0.61967  0.07481  1.0000
  H   H4821     1.0  0.90031  0.62749  0.05241  1.0000
  Fe  Fe619     1.0  0.53606  0.95241  0.18199  1.0000
  H   H4822     1.0  0.84071  0.53418  0.09895  1.0000
  H   H4823     1.0  0.91253  0.49717  0.15493  1.0000
  H   H4824     1.0  0.99201  0.67914  0.02279  1.0000
  H   H4825     1.0  0.69303  0.96855  0.07584  1.0000
  N   N303      1.0  0.54945  0.97690  0.11414  1.0000
  C   C3041     1.0  0.55206  0.80773  0.13105  1.0000
  C   C3042     1.0  0.98850  0.64701  0.12943  1.0000
  C   C3043     1.0  0.56309  0.96531  0.12244  1.0000
  C   C3044     1.0  0.69663  0.49019  0.03639  1.0000
  H   H4826     1.0  0.89002  0.79198  0.99445  1.0000
  S   S1235     1.0  0.64236  0.96823  0.06804  1.0000
  H   H4827     1.0  0.60282  0.77284  0.01927  1.0000
  H   H4828     1.0  0.85059  0.90115  0.03104  1.0000
  H   H4829     1.0  0.87849  0.88219  0.02231  1.0000
  C   C3045     1.0  0.62370  0.54073  0.01960  1.0000
  H   H4830     1.0  0.57435  0.77756  0.05066  1.0000
  H   H4831     1.0  0.98430  0.80496  0.05730  1.0000
  C   C3046     1.0  0.58495  0.49711  0.10761  1.0000
  H   H4832     1.0  0.96364  0.62158  0.15845  1.0000
  H   H4833     1.0  0.51578  0.68616  0.07479  1.0000
  N   N304      1.0  0.72844  0.92416  0.02855  1.0000
  H   H4834     1.0  0.59135  0.79725  0.05298  1.0000
  C   C3047     1.0  0.78684  0.90324  0.00775  1.0000
  C   C3048     1.0  0.86273  0.88778  0.21697  1.0000
  C   C3049     1.0  0.57268  0.78601  0.03821  1.0000
  H   H4835     1.0  0.59950  0.81172  0.03437  1.0000
  C   C3050     1.0  0.83816  0.88438  0.20904  1.0000
  Fe  Fe620     1.0  0.63324  0.96789  0.11584  1.0000
  H   H4836     1.0  0.82879  0.51297  0.09261  1.0000
  S   S1236     1.0  0.62628  0.96415  0.14418  1.0000
  Fe  Fe621     1.0  0.79417  0.49466  0.05273  1.0000
  C   C3051     1.0  0.58505  0.80468  0.01314  1.0000
  H   H4837     1.0  0.95749  0.54404  0.19382  1.0000
  H   H4838     1.0  0.80087  0.55583  0.08288  1.0000
  C   C3052     1.0  0.51041  0.54847  0.17789  1.0000
  C   C3053     1.0  0.59303  0.50541  0.09170  1.0000
  C   C3054     1.0  0.58886  0.80490  0.04049  1.0000
  H   H4839     1.0  0.58717  0.51818  0.08615  1.0000
  H   H4840     1.0  0.70141  0.93420  0.02977  1.0000
  H   H4841     1.0  0.55319  0.55968  0.12175  1.0000
  C   C3055     1.0  0.63403  0.53579  0.99117  1.0000
  C   C3056     1.0  0.90356  0.53126  0.14569  1.0000
  H   H4842     1.0  0.81185  0.92909  0.00036  1.0000
  H   H4843     1.0  0.98533  0.57868  0.23070  1.0000
  H   H4844     1.0  0.86704  0.87381  0.22102  1.0000
  S   S1237     1.0  0.77359  0.51521  0.01366  1.0000
  C   C3057     1.0  0.56292  0.56154  0.12753  1.0000
  H   H4845     1.0  0.85870  0.91698  0.19364  1.0000
  C   C3058     1.0  0.53691  0.75812  0.98754  1.0000
  S   S1238     1.0  0.51775  0.91190  0.20211  1.0000
  H   H4846     1.0  0.98991  0.65306  0.11571  1.0000
  H   H4847     1.0  0.85470  0.89271  0.22831  1.0000
  H   H4848     1.0  0.97307  0.86288  0.00006  1.0000
  C   C3059     1.0  0.97847  0.89363  0.09376  1.0000
  N   N305      1.0  0.98495  0.78177  0.05058  1.0000
  H   H4849     1.0  0.56623  0.90640  0.01126  1.0000
  H   H4850     1.0  0.61486  0.78644  0.02188  1.0000
  S   S1239     1.0  0.63286  0.49355  0.98671  1.0000
  C   C3060     1.0  0.73217  0.92197  0.01097  1.0000
  H   H4851     1.0  0.89427  0.54325  0.14198  1.0000
  H   H4852     1.0  0.57106  0.77806  0.03037  1.0000
  H   H4853     1.0  0.53260  0.78804  0.99595  1.0000
  H   H4854     1.0  0.94943  0.51837  0.19195  1.0000
  H   H4855     1.0  0.84661  0.54752  0.06042  1.0000
  H   H4856     1.0  0.55049  0.61970  0.22299  1.0000
  C   C3061     1.0  0.96153  0.89738  0.07337  1.0000
  C   C3062     1.0  0.53765  0.85292  0.99846  1.0000
  H   H4857     1.0  0.93003  0.50510  0.13953  1.0000
  C   C3063     1.0  0.89774  0.96461  0.19888  1.0000
  C   C3064     1.0  0.53750  0.77641  0.00497  1.0000
  H   H4858     1.0  0.91578  0.52560  0.23039  1.0000
  H   H4859     1.0  0.83816  0.53179  0.05649  1.0000
  H   H4860     1.0  0.79618  0.88145  0.99633  1.0000
  H   H4861     1.0  0.60521  0.77219  0.03995  1.0000
  H   H4862     1.0  0.90683  0.97888  0.15622  1.0000
  H   H4863     1.0  0.89082  0.98845  0.12988  1.0000
  S   S1240     1.0  0.50978  0.57495  0.19128  1.0000
  N   N306      1.0  0.61858  0.53972  0.00446  1.0000
  H   H4864     1.0  0.59632  0.81036  0.00611  1.0000
  H   H4865     1.0  0.57665  0.82496  0.11340  1.0000
  S   S1241     1.0  0.61826  0.50715  0.06261  1.0000
  H   H4866     1.0  0.53539  0.95061  0.22731  1.0000
  H   H4867     1.0  0.59697  0.52877  0.01898  1.0000
  Fe  Fe622     1.0  0.76082  0.50425  0.04007  1.0000
  H   H4868     1.0  0.57302  0.50357  0.11438  1.0000
  H   H4869     1.0  0.58854  0.90412  0.01085  1.0000
  H   H4870     1.0  0.57072  0.77254  0.98941  1.0000
  H   H4871     1.0  0.56220  0.73721  0.00209  1.0000
  H   H4872     1.0  0.68284  0.49324  0.03796  1.0000
  H   H4873     1.0  0.50412  0.53726  0.10569  1.0000
  H   H4874     1.0  0.91220  0.51661  0.10969  1.0000
  C   C3065     1.0  0.66085  0.63834  0.99607  1.0000
  H   H4875     1.0  0.83084  0.91898  0.00837  1.0000
  H   H4876     1.0  0.96091  0.77546  0.00679  1.0000
  H   H4877     1.0  0.73765  0.89763  0.03841  1.0000
  H   H4878     1.0  0.88266  0.50976  0.15189  1.0000
  H   H4879     1.0  0.57920  0.88583  0.01694  1.0000
  H   H4880     1.0  0.72985  0.90965  0.01055  1.0000
  C   C3066     1.0  0.98939  0.84789  0.03392  1.0000
  H   H4881     1.0  0.55499  0.54140  0.15777  1.0000
  C   C3067     1.0  0.60878  0.52622  0.00905  1.0000
  H   H4882     1.0  0.81496  0.51978  0.07790  1.0000
  H   H4883     1.0  0.96297  0.77033  0.06030  1.0000
  H   H4884     1.0  0.91169  0.54502  0.21503  1.0000
  C   C3068     1.0  0.95009  0.52107  0.22286  1.0000
  H   H4885     1.0  0.64167  0.54578  0.98725  1.0000
  H   H4886     1.0  0.87438  0.89328  0.21283  1.0000
  H   H4887     1.0  0.58935  0.59303  0.99181  1.0000
  H   H4888     1.0  0.56282  0.55111  0.21438  1.0000
  H   H4889     1.0  0.81952  0.54707  0.10383  1.0000
  S   S1242     1.0  0.87614  0.49270  0.07922  1.0000
  S   S1243     1.0  0.51325  0.95184  0.20379  1.0000
  C   C3069     1.0  0.72249  0.49615  0.03974  1.0000
  S   S1244     1.0  0.80930  0.50544  0.02747  1.0000
  H   H4890     1.0  0.57088  0.56984  0.11770  1.0000
  H   H4891     1.0  0.61482  0.56663  0.99447  1.0000
  H   H4892     1.0  0.84562  0.60772  0.00407  1.0000
  C   C3070     1.0  0.97353  0.62943  0.15359  1.0000
  H   H4893     1.0  0.88826  0.57347  0.23140  1.0000
  C   C3071     1.0  0.86469  0.88600  0.18831  1.0000
  H   H4894     1.0  0.95289  0.89209  0.06915  1.0000
  C   C3072     1.0  0.97331  0.86918  0.08765  1.0000
  H   H4895     1.0  0.61109  0.67103  0.99163  1.0000
  H   H4896     1.0  0.73716  0.91143  0.05155  1.0000
  C   C3073     1.0  0.99318  0.79264  0.05559  1.0000
  H   H4897     1.0  0.57123  0.87589  0.99578  1.0000
  C   C3074     1.0  0.53625  0.53806  0.21516  1.0000
  H   H4898     1.0  0.99093  0.79396  0.02429  1.0000
  H   H4899     1.0  0.50954  0.65457  0.99620  1.0000
  C   C3075     1.0  0.57856  0.96024  0.17135  1.0000
  C   C3076     1.0  0.60849  0.49705  0.08283  1.0000
  H   H4900     1.0  0.88512  0.82964  0.99380  1.0000
  H   H4901     1.0  0.61098  0.89156  0.98854  1.0000
  H   H4902     1.0  0.92390  0.52875  0.11517  1.0000
  H   H4903     1.0  0.55887  0.79857  0.14065  1.0000
  H   H4904     1.0  0.99132  0.61469  0.12765  1.0000
  C   C3077     1.0  0.55435  0.74772  0.00842  1.0000
  C   C3078     1.0  0.90041  0.79667  0.99654  1.0000
  H   H4905     1.0  0.74580  0.92214  0.00458  1.0000
  H   H4906     1.0  0.98580  0.65728  0.13643  1.0000
  H   H4907     1.0  0.99165  0.75715  0.04446  1.0000
  H   H4908     1.0  0.63114  0.55077  0.01665  1.0000
  H   H4909     1.0  0.90836  0.96806  0.20199  1.0000
  H   H4910     1.0  0.64252  0.52347  0.99555  1.0000
  H   H4911     1.0  0.66535  0.64433  0.00332  1.0000
  C   C3079     1.0  0.50568  0.69844  0.04000  1.0000
  H   H4912     1.0  0.72403  0.93226  0.00326  1.0000
  H   H4913     1.0  0.89918  0.52628  0.15948  1.0000
  H   H4914     1.0  0.94371  0.90067  0.10435  1.0000
  H   H4915     1.0  0.96317  0.51718  0.21519  1.0000
  C   C3080     1.0  0.84754  0.91081  0.19862  1.0000
  C   C3081     1.0  0.93676  0.52240  0.20024  1.0000
  C   C3082     1.0  0.86373  0.93853  0.22738  1.0000
  H   H4916     1.0  0.57289  0.95196  0.18248  1.0000
  N   N307      1.0  0.97483  0.63720  0.13538  1.0000
  S   S1245     1.0  0.54178  0.49741  0.15956  1.0000
  H   H4917     1.0  0.92785  0.53029  0.19190  1.0000
  H   H4918     1.0  0.51177  0.52749  0.16708  1.0000
  H   H4919     1.0  0.53475  0.87971  0.99616  1.0000
  C   C3083     1.0  0.60779  0.55616  0.99799  1.0000
  H   H4920     1.0  0.85833  0.50274  0.05211  1.0000
  H   H4921     1.0  0.91497  0.82081  0.99829  1.0000
  H   H4922     1.0  0.56258  0.75070  0.01520  1.0000
  C   C3084     1.0  0.53010  0.56030  0.23046  1.0000
  H   H4923     1.0  0.54018  0.54673  0.20286  1.0000
  H   H4924     1.0  0.55799  0.89640  0.99019  1.0000
  H   H4925     1.0  0.81493  0.51616  0.98993  1.0000
  H   H4926     1.0  0.54364  0.74282  0.01806  1.0000
  H   H4927     1.0  0.83084  0.88756  0.19888  1.0000
  C   C3085     1.0  0.87172  0.62402  0.99347  1.0000
  H   H4928     1.0  0.54314  0.52488  0.21408  1.0000
  C   C3086     1.0  0.57559  0.98468  0.14829  1.0000
  C   C3087     1.0  0.57930  0.89837  0.00808  1.0000
  C   C3088     1.0  0.57128  0.88871  0.98740  1.0000
  C   C3089     1.0  0.60116  0.88590  0.98665  1.0000
  H   H4929     1.0  0.83834  0.63920  0.99819  1.0000
  H   H4930     1.0  0.97010  0.63920  0.16131  1.0000
  H   H4931     1.0  0.58567  0.65320  0.98717  1.0000
  C   C3090     1.0  0.87927  0.97052  0.17934  1.0000
  H   H4932     1.0  0.86282  0.59696  0.99001  1.0000
  H   H4933     1.0  0.50652  0.67549  0.11378  1.0000
  H   H4934     1.0  0.97226  0.60887  0.22202  1.0000
  H   H4935     1.0  0.99049  0.89339  0.08370  1.0000
  H   H4936     1.0  0.82216  0.90766  0.99861  1.0000
  H   H4937     1.0  0.52230  0.53873  0.21691  1.0000
  H   H4938     1.0  0.98532  0.86830  0.07768  1.0000
  H   H4939     1.0  0.51603  0.66518  0.08740  1.0000
  H   H4940     1.0  0.85175  0.94751  0.23023  1.0000
  S   S1246     1.0  0.50519  0.49680  0.15133  1.0000
  Fe  Fe623     1.0  0.50437  0.93759  0.19010  1.0000
  H   H4941     1.0  0.54879  0.49060  0.21931  1.0000
  H   H4942     1.0  0.99328  0.71185  0.03184  1.0000
  C   C3091     1.0  0.57306  0.61788  0.98727  1.0000
  H   H4943     1.0  0.50354  0.67320  0.07138  1.0000
  Fe  Fe624     1.0  0.79510  0.49253  0.01743  1.0000
  C   C3092     1.0  0.97628  0.86865  0.98632  1.0000
  H   H4944     1.0  0.95121  0.52779  0.23210  1.0000
  C   C3093     1.0  0.91903  0.81661  0.98604  1.0000
  C   C3094     1.0  0.50263  0.63141  0.26606  1.0000
  Fe  Fe625     1.0  0.85391  0.82085  0.42815  1.0000
  S   S1247     1.0  0.87870  0.82906  0.42326  1.0000
  S   S1248     1.0  0.82775  0.83780  0.42889  1.0000
  Fe  Fe626     1.0  0.87139  0.78366  0.42800  1.0000
  S   S1249     1.0  0.89761  0.78878  0.42279  1.0000
  S   S1250     1.0  0.86536  0.75811  0.43167  1.0000
  Fe  Fe627     1.0  0.88587  0.80495  0.44203  1.0000
  H   H4945     1.0  0.67560  0.51965  0.41082  1.0000
  Fe  Fe628     1.0  0.88795  0.81221  0.40448  1.0000
  S   S1251     1.0  0.90433  0.82001  0.37869  1.0000
  S   S1252     1.0  0.86016  0.79819  0.44860  1.0000
  S   S1253     1.0  0.86260  0.80566  0.40809  1.0000
  Fe  Fe629     1.0  0.78775  0.92482  0.43799  1.0000
  S   S1254     1.0  0.77530  0.91622  0.42217  1.0000
  S   S1255     1.0  0.80962  0.90832  0.44992  1.0000
  Fe  Fe630     1.0  0.76644  0.96079  0.43207  1.0000
  S   S1256     1.0  0.75242  0.95526  0.41563  1.0000
  Fe  Fe631     1.0  0.75061  0.93114  0.43511  1.0000
  S   S1257     1.0  0.72579  0.92233  0.44791  1.0000
  Fe  Fe632     1.0  0.77832  0.94100  0.40422  1.0000
  S   S1258     1.0  0.78705  0.94344  0.37601  1.0000
  S   S1259     1.0  0.76291  0.93770  0.45249  1.0000
  S   S1260     1.0  0.79248  0.94866  0.41904  1.0000
  Fe  Fe633     1.0  0.87616  0.91906  0.28288  1.0000
  S   S1261     1.0  0.89249  0.92803  0.29472  1.0000
  Fe  Fe634     1.0  0.87493  0.88673  0.31007  1.0000
  S   S1262     1.0  0.89126  0.89283  0.32372  1.0000
  S   S1263     1.0  0.86359  0.86379  0.32250  1.0000
  Fe  Fe635     1.0  0.87504  0.91905  0.31948  1.0000
  S   S1264     1.0  0.86657  0.92997  0.34292  1.0000
  Fe  Fe636     1.0  0.90719  0.90097  0.29805  1.0000
  S   S1265     1.0  0.93593  0.89128  0.29386  1.0000
  S   S1266     1.0  0.85751  0.91241  0.30752  1.0000
  S   S1267     1.0  0.89214  0.89253  0.28447  1.0000
  H   H4946     1.0  0.97764  0.50513  0.34977  1.0000
  C   C3095     1.0  0.97673  0.95183  0.25120  1.0000
  C   C3096     1.0  0.96395  0.51069  0.35471  1.0000
  H   H4947     1.0  0.52300  0.60079  0.27604  1.0000
  H   H4948     1.0  0.67334  0.98191  0.45900  1.0000
  Fe  Fe637     1.0  0.51977  0.71310  0.43602  1.0000
  H   H4949     1.0  0.60622  0.93520  0.27244  1.0000
  H   H4950     1.0  0.79583  0.97690  0.35835  1.0000
  Fe  Fe638     1.0  0.55299  0.68661  0.43644  1.0000
  S   S1268     1.0  0.53965  0.66569  0.45170  1.0000
  S   S1269     1.0  0.58157  0.68145  0.42672  1.0000
  Fe  Fe639     1.0  0.52137  0.67689  0.43429  1.0000
  H   H4951     1.0  0.50203  0.64673  0.36115  1.0000
  Fe  Fe640     1.0  0.52342  0.68481  0.46679  1.0000
  S   S1270     1.0  0.53584  0.69665  0.41780  1.0000
  S   S1271     1.0  0.53833  0.70495  0.45308  1.0000
  Fe  Fe641     1.0  0.63863  0.55973  0.43284  1.0000
  S   S1272     1.0  0.65301  0.56697  0.40614  1.0000
  S   S1273     1.0  0.63455  0.53321  0.44400  1.0000
  Fe  Fe642     1.0  0.63428  0.59393  0.44042  1.0000
  S   S1274     1.0  0.64865  0.60417  0.41457  1.0000
  S   S1275     1.0  0.62094  0.60957  0.46011  1.0000
  Fe  Fe643     1.0  0.63357  0.59148  0.40535  1.0000
  S   S1276     1.0  0.62338  0.60765  0.38264  1.0000
  Fe  Fe644     1.0  0.66711  0.57904  0.41727  1.0000
  S   S1277     1.0  0.69534  0.57612  0.40524  1.0000
  S   S1278     1.0  0.61762  0.58315  0.43105  1.0000
  S   S1279     1.0  0.65426  0.56976  0.44423  1.0000
  Fe  Fe645     1.0  0.54699  0.61703  0.30747  1.0000
  S   S1280     1.0  0.54657  0.59055  0.32279  1.0000
  S   S1281     1.0  0.54557  0.62722  0.27988  1.0000
  Fe  Fe646     1.0  0.54223  0.63120  0.33900  1.0000
  S   S1282     1.0  0.54130  0.60598  0.35659  1.0000
  S   S1283     1.0  0.53855  0.65533  0.34779  1.0000
  Fe  Fe647     1.0  0.56325  0.59600  0.33695  1.0000
  S   S1284     1.0  0.58493  0.57649  0.34695  1.0000
  Fe  Fe648     1.0  0.52479  0.60307  0.34103  1.0000
  H   H4952     1.0  0.55142  0.67928  0.48038  1.0000
  S   S1285     1.0  0.56547  0.62160  0.32013  1.0000
  S   S1286     1.0  0.52397  0.62912  0.32485  1.0000
  Fe  Fe649     1.0  0.60368  0.94951  0.41543  1.0000
  S   S1287     1.0  0.62519  0.93040  0.40401  1.0000
  H   H4953     1.0  0.95524  0.59398  0.26782  1.0000
  Fe  Fe650     1.0  0.61241  0.93567  0.45016  1.0000
  S   S1288     1.0  0.63430  0.91522  0.44149  1.0000
  H   H4954     1.0  0.57512  0.91472  0.36455  1.0000
  Fe  Fe651     1.0  0.64084  0.93591  0.41904  1.0000
  S   S1289     1.0  0.66741  0.94064  0.40654  1.0000
  Fe  Fe652     1.0  0.61633  0.91186  0.42757  1.0000
  S   S1290     1.0  0.61342  0.88659  0.42558  1.0000
  S   S1291     1.0  0.61994  0.95671  0.42859  1.0000
  S   S1292     1.0  0.59388  0.93064  0.43813  1.0000
  Fe  Fe653     1.0  0.53553  0.81899  0.43110  1.0000
  H   H4955     1.0  0.78890  0.54045  0.39288  1.0000
  S   S1293     1.0  0.54814  0.79116  0.43459  1.0000
  Fe  Fe654     1.0  0.52982  0.85209  0.40523  1.0000
  S   S1294     1.0  0.53557  0.86428  0.37759  1.0000
  Fe  Fe655     1.0  0.53396  0.85237  0.43982  1.0000
  S   S1295     1.0  0.54025  0.86820  0.45409  1.0000
  S   S1296     1.0  0.55090  0.83926  0.41926  1.0000
  S   S1297     1.0  0.51596  0.83077  0.41516  1.0000
  Fe  Fe656     1.0  0.54607  0.96156  0.33239  1.0000
  S   S1298     1.0  0.57156  0.94896  0.33933  1.0000
  H   H4956     1.0  0.79285  0.93413  0.47551  1.0000
  S   S1299     1.0  0.53584  0.94661  0.32055  1.0000
  C   C3097     1.0  0.80382  0.49818  0.39454  1.0000
  C   C3098     1.0  0.60757  0.51647  0.41304  1.0000
  H   H4957     1.0  0.88443  0.77522  0.39627  1.0000
  C   C3099     1.0  0.79527  0.52872  0.38793  1.0000
  H   H4958     1.0  0.66092  0.52888  0.38703  1.0000
  C   C3100     1.0  0.55478  0.89027  0.39948  1.0000
  Fe  Fe657     1.0  0.77108  0.59304  0.42982  1.0000
  S   S1300     1.0  0.78440  0.56589  0.43701  1.0000
  S   S1301     1.0  0.74223  0.60053  0.43791  1.0000
  Fe  Fe658     1.0  0.80494  0.60511  0.41902  1.0000
  S   S1302     1.0  0.82057  0.57898  0.42642  1.0000
  S   S1303     1.0  0.81797  0.62686  0.40550  1.0000
  Fe  Fe659     1.0  0.80446  0.57157  0.41334  1.0000
  S   S1304     1.0  0.81832  0.55313  0.39631  1.0000
  Fe  Fe660     1.0  0.79900  0.57613  0.44923  1.0000
  S   S1305     1.0  0.78965  0.59791  0.40483  1.0000
  S   S1306     1.0  0.78494  0.60308  0.44313  1.0000
  Fe  Fe661     1.0  0.91418  0.67683  0.39995  1.0000
  S   S1307     1.0  0.91487  0.65762  0.42439  1.0000
  S   S1308     1.0  0.91989  0.70262  0.39596  1.0000
  Fe  Fe662     1.0  0.91281  0.65094  0.38121  1.0000
  S   S1309     1.0  0.91394  0.62958  0.40389  1.0000
  S   S1310     1.0  0.91140  0.64825  0.35577  1.0000
  Fe  Fe663     1.0  0.89488  0.64854  0.41780  1.0000
  S   S1311     1.0  0.87312  0.63894  0.43756  1.0000
  Fe  Fe664     1.0  0.93376  0.64048  0.40831  1.0000
  S   S1312     1.0  0.95963  0.62535  0.41285  1.0000
  S   S1313     1.0  0.89237  0.66949  0.39470  1.0000
  S   S1314     1.0  0.93439  0.66017  0.38426  1.0000
  Fe  Fe665     1.0  0.91514  0.57487  0.28502  1.0000
  S   S1315     1.0  0.93231  0.55668  0.30158  1.0000
  S   S1316     1.0  0.92914  0.58386  0.25808  1.0000
  Fe  Fe666     1.0  0.88394  0.57564  0.31432  1.0000
  S   S1317     1.0  0.89848  0.55753  0.33299  1.0000
  S   S1318     1.0  0.85629  0.58743  0.32368  1.0000
  Fe  Fe667     1.0  0.91889  0.57245  0.32087  1.0000
  S   S1319     1.0  0.93308  0.57548  0.33873  1.0000
  Fe  Fe668     1.0  0.91063  0.54330  0.31231  1.0000
  S   S1320     1.0  0.91626  0.51492  0.31896  1.0000
  S   S1321     1.0  0.90347  0.59202  0.30357  1.0000
  S   S1322     1.0  0.89421  0.56003  0.29433  1.0000
  H   H4959     1.0  0.85639  0.78234  0.38861  1.0000
  C   C3101     1.0  0.89070  0.77768  0.38261  1.0000
  C   C3102     1.0  0.92067  0.50729  0.30054  1.0000
  H   H4960     1.0  0.88189  0.77576  0.34618  1.0000
  H   H4961     1.0  0.97637  0.91900  0.25570  1.0000
  C   C3103     1.0  0.92364  0.51275  0.27019  1.0000
  C   C3104     1.0  0.92240  0.51845  0.28473  1.0000
  H   H4962     1.0  0.92424  0.52160  0.25813  1.0000
  H   H4963     1.0  0.92228  0.53159  0.28374  1.0000
  C   C3105     1.0  0.91721  0.62786  0.35147  1.0000
  C   C3106     1.0  0.91498  0.62583  0.33630  1.0000
  C   C3107     1.0  0.91964  0.60974  0.33243  1.0000
  C   C3108     1.0  0.92673  0.59563  0.34363  1.0000
  C   C3109     1.0  0.92895  0.59762  0.35883  1.0000
  C   C3110     1.0  0.92404  0.61370  0.36283  1.0000
  H   H4964     1.0  0.90972  0.63676  0.32747  1.0000
  H   H4965     1.0  0.91811  0.60837  0.32057  1.0000
  H   H4966     1.0  0.93433  0.58670  0.36758  1.0000
  H   H4967     1.0  0.92567  0.61515  0.37459  1.0000
  H   H4968     1.0  0.82624  0.58198  0.46171  1.0000
  C   C3111     1.0  0.82909  0.56270  0.37623  1.0000
  C   C3112     1.0  0.82358  0.57987  0.36928  1.0000
  C   C3113     1.0  0.83189  0.58724  0.35309  1.0000
  C   C3114     1.0  0.84607  0.57762  0.34388  1.0000
  C   C3115     1.0  0.85175  0.56045  0.35085  1.0000
  C   C3116     1.0  0.84314  0.55296  0.36691  1.0000
  H   H4969     1.0  0.81263  0.58745  0.37616  1.0000
  H   H4970     1.0  0.82729  0.60046  0.34769  1.0000
  H   H4971     1.0  0.86252  0.55285  0.34373  1.0000
  H   H4972     1.0  0.84746  0.53966  0.37217  1.0000
  C   C3117     1.0  0.83301  0.63006  0.41485  1.0000
  C   C3118     1.0  0.83528  0.62089  0.43096  1.0000
  C   C3119     1.0  0.84751  0.62375  0.43799  1.0000
  C   C3120     1.0  0.85777  0.63545  0.42874  1.0000
  C   C3121     1.0  0.85558  0.64443  0.41257  1.0000
  C   C3122     1.0  0.84306  0.64193  0.40576  1.0000
  H   H4973     1.0  0.82750  0.61176  0.43808  1.0000
  H   H4974     1.0  0.84914  0.61676  0.45049  1.0000
  H   H4975     1.0  0.86324  0.65361  0.40544  1.0000
  H   H4976     1.0  0.84121  0.64919  0.39338  1.0000
  C   C3123     1.0  0.98213  0.65448  0.43678  1.0000
  C   C3124     1.0  0.96131  0.83129  0.48137  1.0000
  C   C3125     1.0  0.57702  0.97265  0.27081  1.0000
  C   C3126     1.0  0.96847  0.63562  0.42289  1.0000
  C   C3127     1.0  0.95778  0.64524  0.43445  1.0000
  C   C3128     1.0  0.96460  0.65452  0.44150  1.0000
  H   H4977     1.0  0.84585  0.86297  0.40190  1.0000
  H   H4978     1.0  0.93664  0.53674  0.35785  1.0000
  H   H4979     1.0  0.94423  0.64542  0.43812  1.0000
  H   H4980     1.0  0.95616  0.66216  0.45023  1.0000
  H   H4981     1.0  0.88711  0.52257  0.28675  1.0000
  H   H4982     1.0  0.58215  0.54853  0.33374  1.0000
  C   C3129     1.0  0.84639  0.88087  0.48160  1.0000
  H   H4983     1.0  0.89863  0.57447  0.25603  1.0000
  C   C3130     1.0  0.98619  0.63479  0.41886  1.0000
  C   C3131     1.0  0.52384  0.88489  0.37123  1.0000
  H   H4984     1.0  0.55673  0.98127  0.38388  1.0000
  C   C3132     1.0  0.51959  0.91028  0.34918  1.0000
  C   C3133     1.0  0.52890  0.89395  0.35475  1.0000
  H   H4985     1.0  0.95239  0.68108  0.41143  1.0000
  H   H4986     1.0  0.54000  0.88832  0.34622  1.0000
  H   H4987     1.0  0.91989  0.89574  0.33810  1.0000
  H   H4988     1.0  0.57670  0.93058  0.28392  1.0000
  H   H4989     1.0  0.95194  0.61608  0.38518  1.0000
  C   C3134     1.0  0.49982  0.90840  0.37641  1.0000
  H   H4990     1.0  0.77724  0.97551  0.38682  1.0000
  C   C3135     1.0  0.63393  0.95016  0.47009  1.0000
  H   H4991     1.0  0.95728  0.59787  0.37594  1.0000
  H   H4992     1.0  0.97156  0.63638  0.37581  1.0000
  S   S1323     1.0  0.53322  0.97533  0.27417  1.0000
  H   H4993     1.0  0.63536  0.94929  0.45719  1.0000
  C   C3136     1.0  0.59312  0.88149  0.43390  1.0000
  C   C3137     1.0  0.58944  0.86855  0.42882  1.0000
  C   C3138     1.0  0.57326  0.86440  0.43497  1.0000
  C   C3139     1.0  0.56069  0.87307  0.44637  1.0000
  C   C3140     1.0  0.56442  0.88585  0.45166  1.0000
  C   C3141     1.0  0.58059  0.89007  0.44542  1.0000
  H   H4994     1.0  0.59916  0.86171  0.42009  1.0000
  H   H4995     1.0  0.57069  0.85427  0.43112  1.0000
  H   H4996     1.0  0.55476  0.89253  0.46055  1.0000
  H   H4997     1.0  0.58346  0.89973  0.44971  1.0000
  C   C3142     1.0  0.58060  0.96287  0.38452  1.0000
  C   C3143     1.0  0.59238  0.95025  0.37688  1.0000
  C   C3144     1.0  0.58955  0.94618  0.36294  1.0000
  C   C3145     1.0  0.57488  0.95468  0.35656  1.0000
  C   C3146     1.0  0.67094  0.50762  0.41455  1.0000
  H   H4998     1.0  0.97394  0.94899  0.24019  1.0000
  H   H4999     1.0  0.60384  0.94377  0.38150  1.0000
  H   H5000     1.0  0.59880  0.93643  0.35707  1.0000
  S   S1324     1.0  0.51326  0.65780  0.42545  1.0000
  H   H5001     1.0  0.82154  0.98302  0.37451  1.0000
  H   H5002     1.0  0.56962  0.94543  0.26594  1.0000
  H   H5003     1.0  0.58571  0.89596  0.39803  1.0000
  H   H5004     1.0  0.56187  0.51398  0.36272  1.0000
  C   C3147     1.0  0.97886  0.57946  0.24402  1.0000
  S   S1325     1.0  0.51408  0.86669  0.42479  1.0000
  C   C3148     1.0  0.58590  0.95314  0.29535  1.0000
  H   H5005     1.0  0.51813  0.57437  0.33037  1.0000
  C   C3149     1.0  0.70826  0.58270  0.41463  1.0000
  C   C3150     1.0  0.70101  0.59122  0.42790  1.0000
  C   C3151     1.0  0.71157  0.59665  0.43493  1.0000
  C   C3152     1.0  0.72942  0.59348  0.42881  1.0000
  C   C3153     1.0  0.73668  0.58488  0.41559  1.0000
  C   C3154     1.0  0.72610  0.57958  0.40846  1.0000
  H   H5006     1.0  0.68727  0.59369  0.43272  1.0000
  H   H5007     1.0  0.70589  0.60332  0.44514  1.0000
  H   H5008     1.0  0.75042  0.58244  0.41077  1.0000
  H   H5009     1.0  0.73176  0.57302  0.39817  1.0000
  C   C3155     1.0  0.61276  0.59856  0.37309  1.0000
  C   C3156     1.0  0.61386  0.58104  0.37672  1.0000
  C   C3157     1.0  0.60546  0.57425  0.36852  1.0000
  C   C3158     1.0  0.59554  0.58500  0.35710  1.0000
  C   C3159     1.0  0.59425  0.60251  0.35376  1.0000
  C   C3160     1.0  0.60308  0.60922  0.36148  1.0000
  H   H5010     1.0  0.62133  0.57271  0.38565  1.0000
  H   H5011     1.0  0.60653  0.56070  0.37112  1.0000
  H   H5012     1.0  0.58672  0.61089  0.34496  1.0000
  H   H5013     1.0  0.60227  0.62276  0.35852  1.0000
  C   C3161     1.0  0.51809  0.75486  0.43013  1.0000
  C   C3162     1.0  0.50974  0.77150  0.43163  1.0000
  C   C3163     1.0  0.51898  0.78288  0.43251  1.0000
  C   C3164     1.0  0.53662  0.77772  0.43179  1.0000
  C   C3165     1.0  0.54501  0.76116  0.43002  1.0000
  C   C3166     1.0  0.53578  0.74976  0.42920  1.0000
  Fe  Fe669     1.0  0.51076  0.95548  0.33748  1.0000
  H   H5014     1.0  0.51243  0.79550  0.43414  1.0000
  H   H5015     1.0  0.55869  0.75714  0.42933  1.0000
  H   H5016     1.0  0.54240  0.73708  0.42764  1.0000
  C   C3167     1.0  0.92953  0.89020  0.34617  1.0000
  C   C3168     1.0  0.52080  0.65708  0.40393  1.0000
  C   C3169     1.0  0.52474  0.67137  0.39177  1.0000
  C   C3170     1.0  0.53032  0.67061  0.37461  1.0000
  C   C3171     1.0  0.53206  0.65555  0.36950  1.0000
  C   C3172     1.0  0.52836  0.64118  0.38171  1.0000
  C   C3173     1.0  0.52268  0.64197  0.39888  1.0000
  H   H5017     1.0  0.52314  0.68314  0.39551  1.0000
  H   H5018     1.0  0.53315  0.68178  0.36522  1.0000
  H   H5019     1.0  0.52977  0.62949  0.37797  1.0000
  H   H5020     1.0  0.51975  0.63084  0.40827  1.0000
  C   C3174     1.0  0.59263  0.66185  0.43657  1.0000
  C   C3175     1.0  0.58534  0.65322  0.45255  1.0000
  C   C3176     1.0  0.59415  0.63724  0.45985  1.0000
  C   C3177     1.0  0.61016  0.62975  0.45108  1.0000
  C   C3178     1.0  0.61754  0.63850  0.43523  1.0000
  C   C3179     1.0  0.60886  0.65459  0.42807  1.0000
  H   H5021     1.0  0.57301  0.65893  0.45938  1.0000
  H   H5022     1.0  0.58840  0.63054  0.47213  1.0000
  H   H5023     1.0  0.63009  0.63306  0.42863  1.0000
  H   H5024     1.0  0.61468  0.66134  0.41584  1.0000
  H   H5025     1.0  0.87271  0.75303  0.39116  1.0000
  H   H5026     1.0  0.85523  0.78287  0.36748  1.0000
  C   C3180     1.0  0.62322  0.52715  0.43271  1.0000
  C   C3181     1.0  0.61585  0.53896  0.41997  1.0000
  H   H5027     1.0  0.54401  0.63639  0.24501  1.0000
  H   H5028     1.0  0.87242  0.75296  0.36997  1.0000
  H   H5029     1.0  0.89026  0.79165  0.35003  1.0000
  H   H5030     1.0  0.61642  0.55216  0.41747  1.0000
  H   H5031     1.0  0.52755  0.75890  0.46484  1.0000
  C   C3182     1.0  0.86319  0.78503  0.37506  1.0000
  C   C3183     1.0  0.52657  0.93110  0.26889  1.0000
  S   S1326     1.0  0.50614  0.74053  0.42992  1.0000
  H   H5032     1.0  0.50595  0.58957  0.28458  1.0000
  H   H5033     1.0  0.98907  0.61903  0.38012  1.0000
  H   H5034     1.0  0.96471  0.62226  0.23711  1.0000
  H   H5035     1.0  0.68038  0.49757  0.42094  1.0000
  C   C3184     1.0  0.94796  0.90094  0.30117  1.0000
  C   C3185     1.0  0.94064  0.91600  0.30691  1.0000
  C   C3186     1.0  0.95059  0.92335  0.31277  1.0000
  C   C3187     1.0  0.96787  0.91571  0.31286  1.0000
  C   C3188     1.0  0.97513  0.90057  0.30727  1.0000
  C   C3189     1.0  0.96520  0.89324  0.30137  1.0000
  H   H5036     1.0  0.92734  0.92199  0.30684  1.0000
  H   H5037     1.0  0.94490  0.93503  0.31719  1.0000
  H   H5038     1.0  0.49920  0.82922  0.36801  1.0000
  H   H5039     1.0  0.97090  0.88156  0.29697  1.0000
  C   C3190     1.0  0.70962  0.92741  0.43635  1.0000
  C   C3191     1.0  0.71305  0.93376  0.41888  1.0000
  C   C3192     1.0  0.69994  0.93784  0.40994  1.0000
  C   C3193     1.0  0.68332  0.93568  0.41839  1.0000
  C   C3194     1.0  0.67978  0.92966  0.43595  1.0000
  C   C3195     1.0  0.69294  0.92548  0.44490  1.0000
  H   H5040     1.0  0.72586  0.93530  0.41218  1.0000
  H   H5041     1.0  0.70273  0.94253  0.39637  1.0000
  H   H5042     1.0  0.66691  0.92829  0.44254  1.0000
  H   H5043     1.0  0.69019  0.92081  0.45845  1.0000
  C   C3196     1.0  0.80921  0.93896  0.36719  1.0000
  C   C3197     1.0  0.82133  0.93603  0.37695  1.0000
  C   C3198     1.0  0.83889  0.93357  0.36933  1.0000
  C   C3199     1.0  0.84447  0.93345  0.35204  1.0000
  C   C3200     1.0  0.83237  0.93599  0.34237  1.0000
  C   C3201     1.0  0.81479  0.93889  0.34990  1.0000
  H   H5044     1.0  0.81720  0.93583  0.39033  1.0000
  H   H5045     1.0  0.84821  0.93157  0.37687  1.0000
  H   H5046     1.0  0.83652  0.93614  0.32899  1.0000
  H   H5047     1.0  0.80549  0.94115  0.34226  1.0000
  C   C3202     1.0  0.88113  0.74203  0.42320  1.0000
  C   C3203     1.0  0.87657  0.72713  0.42319  1.0000
  C   C3204     1.0  0.88852  0.71468  0.41525  1.0000
  C   C3205     1.0  0.90504  0.71718  0.40721  1.0000
  C   C3206     1.0  0.90973  0.73189  0.40756  1.0000
  C   C3207     1.0  0.89786  0.74420  0.41571  1.0000
  H   H5048     1.0  0.86364  0.72536  0.42902  1.0000
  H   H5049     1.0  0.88484  0.70334  0.41503  1.0000
  H   H5050     1.0  0.92255  0.73380  0.40145  1.0000
  H   H5051     1.0  0.90162  0.75544  0.41597  1.0000
  H   H5052     1.0  0.58538  0.88935  0.48336  1.0000
  H   H5053     1.0  0.77612  0.50083  0.42018  1.0000
  C   C3208     1.0  0.56982  0.90346  0.37225  1.0000
  H   H5054     1.0  0.54865  0.89123  0.41283  1.0000
  H   H5055     1.0  0.53774  0.91977  0.38354  1.0000
  H   H5056     1.0  0.86425  0.53245  0.30998  1.0000
  H   H5057     1.0  0.79781  0.49723  0.38463  1.0000
  C   C3209     1.0  0.61463  0.50476  0.42601  1.0000
  H   H5058     1.0  0.96483  0.54364  0.34270  1.0000
  H   H5059     1.0  0.90194  0.83347  0.44513  1.0000
  C   C3210     1.0  0.82308  0.85660  0.43613  1.0000
  C   C3211     1.0  0.83595  0.86304  0.43846  1.0000
  C   C3212     1.0  0.83178  0.87883  0.44305  1.0000
  C   C3213     1.0  0.81477  0.88809  0.44537  1.0000
  C   C3214     1.0  0.80194  0.88135  0.44351  1.0000
  C   C3215     1.0  0.80609  0.86574  0.43877  1.0000
  H   H5060     1.0  0.84910  0.85608  0.43633  1.0000
  H   H5061     1.0  0.84177  0.88410  0.44429  1.0000
  H   H5062     1.0  0.78872  0.88809  0.44589  1.0000
  H   H5063     1.0  0.79608  0.86074  0.43712  1.0000
  C   C3216     1.0  0.89296  0.83130  0.36281  1.0000
  C   C3217     1.0  0.87518  0.83322  0.36580  1.0000
  C   C3218     1.0  0.86628  0.84264  0.35311  1.0000
  C   C3219     1.0  0.87507  0.85069  0.33760  1.0000
  C   C3220     1.0  0.89286  0.84868  0.33451  1.0000
  C   C3221     1.0  0.90183  0.83870  0.34700  1.0000
  H   H5064     1.0  0.86818  0.82774  0.37791  1.0000
  H   H5065     1.0  0.85253  0.84413  0.35546  1.0000
  H   H5066     1.0  0.89973  0.85466  0.32241  1.0000
  H   H5067     1.0  0.91561  0.83689  0.34445  1.0000
  N   N308      1.0  0.56178  0.90538  0.38981  1.0000
  H   H5068     1.0  0.90263  0.76324  0.47479  1.0000
  H   H5069     1.0  0.60998  0.53101  0.47516  1.0000
  C   C3222     1.0  0.52910  0.93358  0.25129  1.0000
  C   C3223     1.0  0.55942  0.59598  0.23916  1.0000
  C   C3224     1.0  0.56235  0.58801  0.25543  1.0000
  C   C3225     1.0  0.55850  0.59744  0.26803  1.0000
  C   C3226     1.0  0.55180  0.61491  0.26434  1.0000
  C   C3227     1.0  0.98543  0.84294  0.46351  1.0000
  H   H5070     1.0  0.91189  0.73219  0.47697  1.0000
  H   H5071     1.0  0.56766  0.57453  0.25829  1.0000
  H   H5072     1.0  0.56070  0.59121  0.28055  1.0000
  C   C3228     1.0  0.98512  0.67954  0.39461  1.0000
  N   N309      1.0  0.57603  0.63955  0.40413  1.0000
  C   C3229     1.0  0.58385  0.62593  0.41689  1.0000
  C   C3230     1.0  0.56937  0.63204  0.39395  1.0000
  C   C3231     1.0  0.58909  0.64894  0.39294  1.0000
  C   C3232     1.0  0.56181  0.65132  0.41277  1.0000
  H   H5073     1.0  0.58897  0.63118  0.42482  1.0000
  H   H5074     1.0  0.59471  0.61686  0.41079  1.0000
  H   H5075     1.0  0.57435  0.61858  0.42555  1.0000
  H   H5076     1.0  0.56380  0.64192  0.38388  1.0000
  H   H5077     1.0  0.57969  0.62273  0.38764  1.0000
  H   H5078     1.0  0.55912  0.62527  0.40192  1.0000
  H   H5079     1.0  0.58364  0.65921  0.38307  1.0000
  H   H5080     1.0  0.60013  0.64039  0.38636  1.0000
  H   H5081     1.0  0.59416  0.65499  0.40022  1.0000
  H   H5082     1.0  0.55155  0.64477  0.42118  1.0000
  H   H5083     1.0  0.55581  0.66192  0.40352  1.0000
  H   H5084     1.0  0.56638  0.65706  0.42069  1.0000
  H   H5085     1.0  0.51126  0.83551  0.37910  1.0000
  C   C3233     1.0  0.62235  0.51011  0.43592  1.0000
  H   H5086     1.0  0.91107  0.85585  0.45271  1.0000
  C   C3234     1.0  0.93732  0.86453  0.33558  1.0000
  H   H5087     1.0  0.56036  0.90203  0.36583  1.0000
  H   H5088     1.0  0.90386  0.76956  0.38123  1.0000
  H   H5089     1.0  0.88741  0.62591  0.46976  1.0000
  H   H5090     1.0  0.89248  0.74758  0.37650  1.0000
  H   H5091     1.0  0.85654  0.86089  0.38071  1.0000
  H   H5092     1.0  0.84398  0.49911  0.30716  1.0000
  H   H5093     1.0  0.80827  0.98225  0.39541  1.0000
  H   H5094     1.0  0.50303  0.63003  0.25316  1.0000
  H   H5095     1.0  0.50764  0.86403  0.36113  1.0000
  C   C3235     1.0  0.50481  0.57740  0.32966  1.0000
  H   H5096     1.0  0.60298  0.98743  0.37110  1.0000
  H   H5097     1.0  0.96627  0.60983  0.26727  1.0000
  H   H5098     1.0  0.86074  0.49176  0.29046  1.0000
  H   H5099     1.0  0.89318  0.74994  0.45710  1.0000
  H   H5100     1.0  0.97344  0.70200  0.36869  1.0000
  S   S1327     1.0  0.91913  0.85701  0.48360  1.0000
  H   H5101     1.0  0.56232  0.72089  0.47440  1.0000
  H   H5102     1.0  0.50511  0.88530  0.39471  1.0000
  H   H5103     1.0  0.76995  0.51138  0.40050  1.0000
  H   H5104     1.0  0.84665  0.51206  0.28617  1.0000
  H   H5105     1.0  0.96725  0.92553  0.27547  1.0000
  H   H5106     1.0  0.97882  0.53162  0.32757  1.0000
  H   H5107     1.0  0.56474  0.97779  0.27904  1.0000
  H   H5108     1.0  0.93983  0.85044  0.33868  1.0000
  H   H5109     1.0  0.97219  0.63259  0.34088  1.0000
  H   H5110     1.0  0.87123  0.75886  0.46532  1.0000
  H   H5111     1.0  0.99455  0.62715  0.41010  1.0000
  C   C3236     1.0  0.96515  0.53645  0.33325  1.0000
  H   H5112     1.0  0.96340  0.68846  0.42272  1.0000
  S   S1328     1.0  0.54158  0.98536  0.31258  1.0000
  C   C3237     1.0  0.92311  0.49593  0.27147  1.0000
  H   H5113     1.0  0.52583  0.94187  0.28970  1.0000
  H   H5114     1.0  0.57428  0.97423  0.25817  1.0000
  H   H5115     1.0  0.80823  0.94460  0.47746  1.0000
  C   C3238     1.0  0.57476  0.90715  0.39788  1.0000
  C   C3239     1.0  0.55267  0.61342  0.23552  1.0000
  H   H5116     1.0  0.89202  0.79113  0.37882  1.0000
  S   S1329     1.0  0.92151  0.48974  0.25381  1.0000
  H   H5117     1.0  0.85819  0.87814  0.38850  1.0000
  C   C3240     1.0  0.88916  0.77810  0.35432  1.0000
  H   H5118     1.0  0.86563  0.49432  0.32416  1.0000
  C   C3241     1.0  0.98165  0.62640  0.37025  1.0000
  C   C3242     1.0  0.77689  0.51224  0.40972  1.0000
  H   H5119     1.0  0.60015  0.50257  0.34844  1.0000
  N   N310      1.0  0.93229  0.87151  0.35100  1.0000
  C   C3243     1.0  0.96144  0.86063  0.47875  1.0000
  N   N311      1.0  0.97143  0.69500  0.39563  1.0000
  C   C3244     1.0  0.65627  0.51683  0.39142  1.0000
  H   H5120     1.0  0.97022  0.50762  0.32249  1.0000
  C   C3245     1.0  0.50976  0.60095  0.27540  1.0000
  C   C3246     1.0  0.80358  0.51429  0.41443  1.0000
  C   C3247     1.0  0.79617  0.94009  0.48418  1.0000
  H   H5121     1.0  0.59955  0.94979  0.25419  1.0000
  H   H5122     1.0  0.98290  0.59371  0.35306  1.0000
  H   H5123     1.0  0.53682  0.53427  0.25628  1.0000
  C   C3248     1.0  0.92127  0.58324  0.24084  1.0000
  N   N312      1.0  0.58388  0.95468  0.27805  1.0000
  H   H5124     1.0  0.84961  0.64007  0.47198  1.0000
  H   H5125     1.0  0.63444  0.89013  0.48422  1.0000
  C   C3249     1.0  0.60785  0.53364  0.41026  1.0000
  C   C3250     1.0  0.97881  0.70898  0.39611  1.0000
  H   H5126     1.0  0.95731  0.49999  0.36084  1.0000
  N   N313      1.0  0.70067  0.97308  0.45552  1.0000
  H   H5127     1.0  0.54388  0.76698  0.46832  1.0000
  H   H5128     1.0  0.88588  0.50535  0.27860  1.0000
  C   C3251     1.0  0.98804  0.60242  0.35728  1.0000
  H   H5129     1.0  0.49945  0.51323  0.32245  1.0000
  H   H5130     1.0  0.79018  0.97259  0.46716  1.0000
  C   C3252     1.0  0.99386  0.60070  0.24326  1.0000
  C   C3253     1.0  0.99153  0.94154  0.27420  1.0000
  H   H5131     1.0  0.96923  0.87007  0.47715  1.0000
  H   H5132     1.0  0.78869  0.52855  0.37813  1.0000
  H   H5133     1.0  0.55917  0.94824  0.28690  1.0000
  H   H5134     1.0  0.99162  0.67607  0.40537  1.0000
  H   H5135     1.0  0.86185  0.85743  0.46264  1.0000
  H   H5136     1.0  0.99519  0.68130  0.38280  1.0000
  C   C3254     1.0  0.75245  0.57811  0.48102  1.0000
  N   N314      1.0  0.98801  0.93711  0.25983  1.0000
  H   H5137     1.0  0.59600  0.52975  0.32727  1.0000
  C   C3255     1.0  0.85521  0.85268  0.47586  1.0000
  H   H5138     1.0  0.60224  0.54276  0.40033  1.0000
  C   C3256     1.0  0.89107  0.76091  0.48482  1.0000
  C   C3257     1.0  0.53203  0.95890  0.26567  1.0000
  S   S1330     1.0  0.52671  0.91791  0.24244  1.0000
  H   H5139     1.0  0.63177  0.50426  0.47302  1.0000
  H   H5140     1.0  0.91802  0.85252  0.36582  1.0000
  H   H5141     1.0  0.96425  0.95551  0.25996  1.0000
  C   C3258     1.0  0.90599  0.57801  0.24334  1.0000
  C   C3259     1.0  0.54776  0.92069  0.38957  1.0000
  H   H5142     1.0  0.53272  0.56448  0.24079  1.0000
  H   H5143     1.0  0.99297  0.68325  0.47118  1.0000
  H   H5144     1.0  0.85009  0.52731  0.47934  1.0000
  H   H5145     1.0  0.95095  0.52181  0.31747  1.0000
  H   H5146     1.0  0.77306  0.59697  0.48290  1.0000
  N   N315      1.0  0.58336  0.52607  0.35360  1.0000
  C   C3260     1.0  0.59589  0.51026  0.35833  1.0000
  C   C3261     1.0  0.57792  0.53555  0.36731  1.0000
  C   C3262     1.0  0.56825  0.52185  0.35099  1.0000
  C   C3263     1.0  0.59137  0.53662  0.33781  1.0000
  H   H5147     1.0  0.79727  0.52572  0.41991  1.0000
  C   C3264     1.0  0.56307  0.96738  0.36410  1.0000
  C   C3265     1.0  0.53470  0.96130  0.24809  1.0000
  H   H5148     1.0  0.94280  0.86989  0.37220  1.0000
  H   H5149     1.0  0.76211  0.58082  0.46905  1.0000
  H   H5150     1.0  0.64360  0.51935  0.40020  1.0000
  S   S1331     1.0  0.89807  0.79952  0.46411  1.0000
  H   H5151     1.0  0.94966  0.50282  0.33341  1.0000
  H   H5152     1.0  0.76976  0.52352  0.41518  1.0000
  C   C3266     1.0  0.54903  0.62285  0.24802  1.0000
  H   H5153     1.0  0.56921  0.90835  0.41125  1.0000
  H   H5154     1.0  0.97958  0.84652  0.45226  1.0000
  N   N316      1.0  0.67829  0.61447  0.36555  1.0000
  C   C3267     1.0  0.67549  0.59702  0.36973  1.0000
  C   C3268     1.0  0.66153  0.62661  0.36681  1.0000
  C   C3269     1.0  0.68860  0.61804  0.34812  1.0000
  C   C3270     1.0  0.68755  0.61616  0.37752  1.0000
  H   H5155     1.0  0.68783  0.58745  0.36914  1.0000
  H   H5156     1.0  0.66840  0.59525  0.36109  1.0000
  H   H5157     1.0  0.66779  0.59397  0.38278  1.0000
  H   H5158     1.0  0.65344  0.62432  0.37983  1.0000
  H   H5159     1.0  0.66307  0.63995  0.36359  1.0000
  H   H5160     1.0  0.65403  0.62539  0.35823  1.0000
  H   H5161     1.0  0.69100  0.63112  0.34454  1.0000
  H   H5162     1.0  0.68198  0.61686  0.33878  1.0000
  H   H5163     1.0  0.70131  0.60905  0.34676  1.0000
  H   H5164     1.0  0.70020  0.60705  0.37702  1.0000
  H   H5165     1.0  0.68024  0.61339  0.39084  1.0000
  H   H5166     1.0  0.68990  0.62916  0.37482  1.0000
  H   H5167     1.0  0.69082  0.51141  0.38331  1.0000
  H   H5168     1.0  0.62254  0.63555  0.47918  1.0000
  C   C3271     1.0  0.95675  0.51327  0.32805  1.0000
  C   C3272     1.0  0.90976  0.81239  0.48389  1.0000
  C   C3273     1.0  0.66788  0.89062  0.47559  1.0000
  S   S1332     1.0  0.75846  0.98681  0.43790  1.0000
  H   H5169     1.0  0.79549  0.97715  0.43068  1.0000
  H   H5170     1.0  0.68865  0.95203  0.46866  1.0000
  H   H5171     1.0  0.86191  0.83926  0.47982  1.0000
  H   H5172     1.0  0.55857  0.53351  0.34733  1.0000
  H   H5173     1.0  0.55178  0.97413  0.35915  1.0000
  H   H5174     1.0  0.84538  0.88067  0.35623  1.0000
  S   S1333     1.0  0.59910  0.50977  0.39969  1.0000
  H   H5175     1.0  0.68125  0.88731  0.47749  1.0000
  H   H5176     1.0  0.98838  0.89451  0.30748  1.0000
  N   N317      1.0  0.79489  0.51335  0.40166  1.0000
  H   H5177     1.0  0.59084  0.93976  0.30142  1.0000
  H   H5178     1.0  0.51556  0.63283  0.26607  1.0000
  H   H5179     1.0  0.98276  0.96306  0.24647  1.0000
  C   C3274     1.0  0.98682  0.67553  0.48318  1.0000
  H   H5180     1.0  0.95322  0.60658  0.23820  1.0000
  H   H5181     1.0  0.57203  0.52792  0.37951  1.0000
  H   H5182     1.0  0.58899  0.53907  0.36954  1.0000
  H   H5183     1.0  0.93034  0.51942  0.35394  1.0000
  H   H5184     1.0  0.54142  0.92264  0.40259  1.0000
  C   C3275     1.0  0.95809  0.69175  0.41117  1.0000
  H   H5185     1.0  0.82063  0.88695  0.40665  1.0000
  H   H5186     1.0  0.59483  0.96084  0.29547  1.0000
  C   C3276     1.0  0.74034  0.60795  0.47937  1.0000
  H   H5187     1.0  0.95929  0.54572  0.32304  1.0000
  N   N318      1.0  0.88065  0.77423  0.37240  1.0000
  H   H5188     1.0  0.94736  0.70304  0.41218  1.0000
  H   H5189     1.0  0.82780  0.89828  0.35987  1.0000
  H   H5190     1.0  0.97950  0.94550  0.28341  1.0000
  N   N319      1.0  0.54236  0.74154  0.48219  1.0000
  S   S1334     1.0  0.86503  0.93517  0.26032  1.0000
  H   H5191     1.0  0.54496  0.88851  0.39374  1.0000
  S   S1335     1.0  0.58432  0.96860  0.40161  1.0000
  H   H5192     1.0  0.52068  0.53078  0.24782  1.0000
  Fe  Fe670     1.0  0.52882  0.97111  0.30247  1.0000
  Fe  Fe671     1.0  0.50190  0.84431  0.43625  1.0000
  H   H5193     1.0  0.94162  0.89432  0.33887  1.0000
  H   H5194     1.0  0.96621  0.57603  0.24656  1.0000
  H   H5195     1.0  0.65403  0.51368  0.38029  1.0000
  H   H5196     1.0  0.69168  0.96433  0.43842  1.0000
  C   C3277     1.0  0.82366  0.58024  0.47532  1.0000
  C   C3278     1.0  0.93782  0.52953  0.34813  1.0000
  H   H5197     1.0  0.56589  0.74168  0.46332  1.0000
  H   H5198     1.0  0.87755  0.64798  0.46682  1.0000
  H   H5199     1.0  0.98444  0.70589  0.40747  1.0000
  H   H5200     1.0  0.89555  0.91218  0.24615  1.0000
  H   H5201     1.0  0.91189  0.87187  0.37324  1.0000
  H   H5202     1.0  0.63691  0.91162  0.47594  1.0000
  H   H5203     1.0  0.88068  0.77243  0.48296  1.0000
  H   H5204     1.0  0.98780  0.91120  0.27248  1.0000
  C   C3279     1.0  0.53423  0.75894  0.47461  1.0000
  H   H5205     1.0  0.83291  0.88157  0.48119  1.0000
  S   S1336     1.0  0.98959  0.66838  0.44384  1.0000
  C   C3280     1.0  0.96410  0.62561  0.35198  1.0000
  H   H5206     1.0  0.58607  0.98081  0.26942  1.0000
  H   H5207     1.0  0.84827  0.89769  0.36349  1.0000
  N   N320      1.0  0.95593  0.52247  0.34103  1.0000
  C   C3281     1.0  0.64584  0.95656  0.47416  1.0000
  H   H5208     1.0  0.80868  0.52991  0.38153  1.0000
  H   H5209     1.0  0.68376  0.49660  0.37632  1.0000
  S   S1337     1.0  0.50363  0.69416  0.45098  1.0000
  C   C3282     1.0  0.85568  0.52616  0.30680  1.0000
  S   S1338     1.0  0.79867  0.56400  0.47661  1.0000
  H   H5210     1.0  0.70326  0.98100  0.42852  1.0000
  C   C3283     1.0  0.50507  0.91757  0.36001  1.0000
  H   H5211     1.0  0.92712  0.86919  0.32811  1.0000
  C   C3284     1.0  0.96280  0.60674  0.37949  1.0000
  C   C3285     1.0  0.90493  0.81549  0.46847  1.0000
  N   N321      1.0  0.97414  0.61530  0.36474  1.0000
  H   H5212     1.0  0.62801  0.50093  0.44576  1.0000
  S   S1339     1.0  0.50990  0.49126  0.29838  1.0000
  H   H5213     1.0  0.94845  0.85066  0.36453  1.0000
  C   C3286     1.0  0.91509  0.84068  0.47706  1.0000
  H   H5214     1.0  0.83343  0.90155  0.39310  1.0000
  C   C3287     1.0  0.87292  0.93022  0.24014  1.0000
  H   H5215     1.0  0.96984  0.59937  0.38964  1.0000
  H   H5216     1.0  0.84404  0.59181  0.47486  1.0000
  H   H5217     1.0  0.96362  0.51727  0.36465  1.0000
  H   H5218     1.0  0.50428  0.62413  0.36753  1.0000
  H   H5219     1.0  0.95342  0.71140  0.38096  1.0000
  H   H5220     1.0  0.81752  0.49846  0.38854  1.0000
  H   H5221     1.0  0.84861  0.53578  0.29765  1.0000
  H   H5222     1.0  0.82856  0.86022  0.37562  1.0000
  H   H5223     1.0  0.69731  0.95982  0.48161  1.0000
  H   H5224     1.0  0.65629  0.96065  0.46432  1.0000
  N   N322      1.0  0.86554  0.51114  0.29976  1.0000
  N   N323      1.0  0.97680  0.59659  0.24688  1.0000
  C   C3288     1.0  0.87472  0.49880  0.31233  1.0000
  C   C3289     1.0  0.87809  0.51641  0.28417  1.0000
  C   C3290     1.0  0.85372  0.50320  0.29573  1.0000
  C   C3291     1.0  0.56594  0.97147  0.37805  1.0000
  S   S1340     1.0  0.52143  0.96879  0.35069  1.0000
  N   N324      1.0  0.88590  0.74560  0.48430  1.0000
  C   C3292     1.0  0.85372  0.62910  0.48204  1.0000
  H   H5225     1.0  0.87164  0.52563  0.27434  1.0000
  C   C3293     1.0  0.91081  0.84367  0.46135  1.0000
  C   C3294     1.0  0.53324  0.94867  0.24090  1.0000
  H   H5226     1.0  0.95470  0.86465  0.46808  1.0000
  H   H5227     1.0  0.81820  0.86283  0.39678  1.0000
  H   H5228     1.0  0.72783  0.96960  0.45303  1.0000
  H   H5229     1.0  0.81043  0.87740  0.37907  1.0000
  C   C3295     1.0  0.96372  0.69970  0.38068  1.0000
  H   H5230     1.0  0.59030  0.50217  0.37034  1.0000
  H   H5231     1.0  0.58014  0.91857  0.39110  1.0000
  H   H5232     1.0  0.95317  0.63516  0.35734  1.0000
  H   H5233     1.0  0.56503  0.87849  0.39984  1.0000
  C   C3296     1.0  0.84931  0.87023  0.38869  1.0000
  S   S1341     1.0  0.52039  0.83098  0.45306  1.0000
  C   C3297     1.0  0.77809  0.98868  0.38618  1.0000
  H   H5234     1.0  0.95465  0.83471  0.47068  1.0000
  H   H5235     1.0  0.97990  0.66850  0.39501  1.0000
  C   C3298     1.0  0.96814  0.59705  0.26468  1.0000
  H   H5236     1.0  0.58053  0.89209  0.37188  1.0000
  H   H5237     1.0  0.85287  0.88661  0.46867  1.0000
  H   H5238     1.0  0.80348  0.50294  0.42505  1.0000
  C   C3299     1.0  0.88195  0.74776  0.46765  1.0000
  H   H5239     1.0  0.57467  0.92814  0.47790  1.0000
  H   H5240     1.0  0.56403  0.91463  0.47319  1.0000
  H   H5241     1.0  0.87809  0.73644  0.46664  1.0000
  N   N325      1.0  0.66850  0.50293  0.39979  1.0000
  H   H5242     1.0  0.54183  0.51770  0.24489  1.0000
  H   H5243     1.0  0.95840  0.86816  0.35281  1.0000
  C   C3300     1.0  0.60070  0.94872  0.26734  1.0000
  H   H5244     1.0  0.84440  0.52333  0.46184  1.0000
  H   H5245     1.0  0.95859  0.61757  0.34724  1.0000
  C   C3301     1.0  0.70260  0.96944  0.43880  1.0000
  H   H5246     1.0  0.51031  0.59949  0.26251  1.0000
  C   C3302     1.0  0.52801  0.94377  0.27610  1.0000
  C   C3303     1.0  0.90551  0.83111  0.45712  1.0000
  H   H5247     1.0  0.61010  0.95629  0.26660  1.0000
  H   H5248     1.0  0.99389  0.83009  0.46362  1.0000
  H   H5249     1.0  0.65872  0.50956  0.42412  1.0000
  S   S1342     1.0  0.98002  0.92550  0.31987  1.0000
  H   H5250     1.0  0.92492  0.89603  0.35744  1.0000
  H   H5251     1.0  0.81334  0.90166  0.38882  1.0000
  H   H5252     1.0  0.60248  0.54050  0.33952  1.0000
  H   H5253     1.0  0.52335  0.91699  0.33632  1.0000
  S   S1343     1.0  0.60538  0.93679  0.47766  1.0000
  H   H5254     1.0  0.81719  0.51521  0.40876  1.0000
  H   H5255     1.0  0.90570  0.87113  0.35466  1.0000
  S   S1344     1.0  0.50270  0.97880  0.31828  1.0000
  H   H5256     1.0  0.57191  0.51457  0.34081  1.0000
  H   H5257     1.0  0.84609  0.52263  0.31860  1.0000
  H   H5258     1.0  0.98668  0.56963  0.25237  1.0000
  C   C3304     1.0  0.69948  0.95742  0.46874  1.0000
  H   H5259     1.0  0.96898  0.81810  0.48186  1.0000
  C   C3305     1.0  0.71573  0.97924  0.45556  1.0000
  C   C3306     1.0  0.68491  0.98617  0.45901  1.0000
  H   H5260     1.0  0.86356  0.79875  0.37140  1.0000
  C   C3307     1.0  0.83913  0.52722  0.47420  1.0000
  N   N326      1.0  0.86553  0.61011  0.36816  1.0000
  C   C3308     1.0  0.87610  0.61812  0.37388  1.0000
  C   C3309     1.0  0.87612  0.60229  0.35386  1.0000
  C   C3310     1.0  0.85093  0.62311  0.36264  1.0000
  C   C3311     1.0  0.85890  0.59696  0.38227  1.0000
  H   H5261     1.0  0.86872  0.62363  0.38503  1.0000
  H   H5262     1.0  0.88074  0.62859  0.36376  1.0000
  H   H5263     1.0  0.88757  0.60882  0.37759  1.0000
  H   H5264     1.0  0.86856  0.59609  0.34925  1.0000
  H   H5265     1.0  0.88119  0.61191  0.34295  1.0000
  H   H5266     1.0  0.88733  0.59247  0.35751  1.0000
  H   H5267     1.0  0.85537  0.63326  0.35198  1.0000
  H   H5268     1.0  0.84267  0.62927  0.37314  1.0000
  H   H5269     1.0  0.84262  0.61746  0.35835  1.0000
  H   H5270     1.0  0.86952  0.58699  0.38691  1.0000
  H   H5271     1.0  0.85091  0.59062  0.37836  1.0000
  H   H5272     1.0  0.85066  0.60252  0.39319  1.0000
  C   C3312     1.0  0.91627  0.86656  0.36165  1.0000
  H   H5273     1.0  0.98924  0.71154  0.38478  1.0000
  H   H5274     1.0  0.60747  0.51299  0.36038  1.0000
  H   H5275     1.0  0.90237  0.77015  0.35191  1.0000
  C   C3313     1.0  0.94609  0.86475  0.36057  1.0000
  C   C3314     1.0  0.57188  0.94424  0.27871  1.0000
  H   H5276     1.0  0.55263  0.93231  0.38227  1.0000
  H   H5277     1.0  0.51176  0.61904  0.29621  1.0000
  H   H5278     1.0  0.52339  0.91942  0.27696  1.0000
  C   C3315     1.0  0.87953  0.75618  0.37769  1.0000
  H   H5279     1.0  0.63928  0.52874  0.47834  1.0000
  N   N327      1.0  0.83389  0.88078  0.38254  1.0000
  C   C3316     1.0  0.82225  0.86982  0.38353  1.0000
  C   C3317     1.0  0.82493  0.89328  0.39323  1.0000
  C   C3318     1.0  0.83904  0.88972  0.36478  1.0000
  H   H5280     1.0  0.99392  0.85184  0.46163  1.0000
  N   N328      1.0  0.97219  0.84332  0.47938  1.0000
  H   H5281     1.0  0.66737  0.90084  0.46394  1.0000
  H   H5282     1.0  0.71453  0.95983  0.43568  1.0000
  C   C3319     1.0  0.50929  0.89216  0.38207  1.0000
  H   H5283     1.0  0.56843  0.54756  0.36421  1.0000
  C   C3320     1.0  0.56477  0.92033  0.48338  1.0000
  H   H5284     1.0  0.94915  0.86832  0.32705  1.0000
  H   H5285     1.0  0.71140  0.94747  0.46690  1.0000
  H   H5286     1.0  0.77485  0.96213  0.46530  1.0000
  H   H5287     1.0  0.96889  0.72092  0.39663  1.0000
  H   H5288     1.0  0.95770  0.68952  0.38024  1.0000
  H   H5289     1.0  0.55047  0.73333  0.45863  1.0000
  H   H5290     1.0  0.61414  0.49159  0.42843  1.0000
  H   H5291     1.0  0.88360  0.50447  0.31583  1.0000
  H   H5292     1.0  0.97568  0.58772  0.27361  1.0000
  C   C3321     1.0  0.68515  0.49997  0.38771  1.0000
  H   H5293     1.0  0.99599  0.59457  0.36655  1.0000
  C   C3322     1.0  0.62024  0.94498  0.48265  1.0000
  H   H5294     1.0  0.76809  0.97809  0.47764  1.0000
  H   H5295     1.0  0.71469  0.98216  0.46798  1.0000
  H   H5296     1.0  0.93153  0.53849  0.33810  1.0000
  H   H5297     1.0  0.50931  0.56332  0.31041  1.0000
  H   H5298     1.0  0.57341  0.95761  0.30367  1.0000
  H   H5299     1.0  0.88033  0.86816  0.47422  1.0000
  C   C3323     1.0  0.49978  0.57107  0.31845  1.0000
  H   H5300     1.0  0.99867  0.95195  0.26991  1.0000
  C   C3324     1.0  0.53453  0.53093  0.24528  1.0000
  H   H5301     1.0  0.84188  0.85266  0.47559  1.0000
  H   H5302     1.0  0.53780  0.97300  0.23997  1.0000
  H   H5303     1.0  0.99690  0.60844  0.34612  1.0000
  C   C3325     1.0  0.83372  0.58580  0.48276  1.0000
  H   H5304     1.0  0.51493  0.85094  0.48237  1.0000
  H   H5305     1.0  0.80868  0.96739  0.38352  1.0000
  H   H5306     1.0  0.50141  0.86747  0.45887  1.0000
  H   H5307     1.0  0.83169  0.54054  0.47162  1.0000
  C   C3326     1.0  0.99303  0.64434  0.42570  1.0000
  C   C3327     1.0  0.80890  0.98079  0.38251  1.0000
  C   C3328     1.0  0.88119  0.63646  0.47656  1.0000
  H   H5308     1.0  0.84364  0.49347  0.47732  1.0000
  C   C3329     1.0  0.77866  0.96730  0.47423  1.0000
  H   H5309     1.0  0.81850  0.51190  0.46663  1.0000
  H   H5310     1.0  0.65944  0.92150  0.48227  1.0000
  H   H5311     1.0  0.74119  0.57636  0.47745  1.0000
  H   H5312     1.0  0.80579  0.52926  0.47623  1.0000
  C   C3330     1.0  0.97948  0.92258  0.26612  1.0000
  H   H5313     1.0  0.97721  0.67050  0.48010  1.0000
  C   C3331     1.0  0.55587  0.73403  0.46908  1.0000
  H   H5314     1.0  0.52331  0.73027  0.47917  1.0000
  H   H5315     1.0  0.52456  0.76532  0.48427  1.0000
  H   H5316     1.0  0.68286  0.98897  0.47171  1.0000
  H   H5317     1.0  0.85947  0.61798  0.47598  1.0000
  H   H5318     1.0  0.99283  0.61356  0.24523  1.0000
  H   H5319     1.0  0.99068  0.63274  0.35956  1.0000
  H   H5320     1.0  0.56144  0.54597  0.23665  1.0000
  H   H5321     1.0  0.72891  0.60680  0.47562  1.0000
  H   H5322     1.0  0.89097  0.63875  0.48195  1.0000
  C   C3332     1.0  0.81384  0.51626  0.47878  1.0000
  H   H5323     1.0  0.66533  0.87935  0.47294  1.0000
  H   H5324     1.0  0.74977  0.61137  0.46739  1.0000
  C   C3333     1.0  0.88834  0.91859  0.23642  1.0000
  C   C3334     1.0  0.92127  0.49021  0.30169  1.0000
  H   H5325     1.0  0.49915  0.88673  0.46519  1.0000
  H   H5326     1.0  0.60564  0.66332  0.48543  1.0000
  C   C3335     1.0  0.96629  0.60915  0.23555  1.0000
  H   H5327     1.0  0.59793  0.62910  0.52376  1.0000
  Fe  Fe672     1.0  0.87915  0.85918  0.53923  1.0000
  S   S1345     1.0  0.89893  0.87426  0.52452  1.0000
  S   S1346     1.0  0.85122  0.87209  0.54443  1.0000
  Fe  Fe673     1.0  0.90589  0.82612  0.54455  1.0000
  S   S1347     1.0  0.92777  0.83890  0.53016  1.0000
  S   S1348     1.0  0.91216  0.79836  0.55724  1.0000
  Fe  Fe674     1.0  0.91372  0.85954  0.54441  1.0000
  S   S1349     1.0  0.92714  0.87412  0.55367  1.0000
  Fe  Fe675     1.0  0.91070  0.85229  0.51192  1.0000
  S   S1350     1.0  0.89306  0.84586  0.56021  1.0000
  S   S1351     1.0  0.88969  0.83810  0.52519  1.0000
  Fe  Fe676     1.0  0.90207  0.93670  0.65293  1.0000
  S   S1352     1.0  0.91447  0.95586  0.63226  1.0000
  S   S1353     1.0  0.89105  0.94075  0.67968  1.0000
  Fe  Fe677     1.0  0.90422  0.91479  0.62847  1.0000
  S   S1354     1.0  0.91696  0.93204  0.60615  1.0000
  S   S1355     1.0  0.89715  0.89149  0.62632  1.0000
  Fe  Fe678     1.0  0.93239  0.93287  0.62380  1.0000
  S   S1356     1.0  0.96098  0.92934  0.61541  1.0000
  Fe  Fe679     1.0  0.89767  0.95311  0.61664  1.0000
  H   H5328     1.0  0.96056  0.76315  0.56246  1.0000
  S   S1357     1.0  0.92120  0.91385  0.64548  1.0000
  S   S1358     1.0  0.88376  0.93581  0.63802  1.0000
  Fe  Fe680     1.0  0.82053  0.96551  0.51843  1.0000
  S   S1359     1.0  0.80193  0.95950  0.54293  1.0000
  S   S1360     1.0  0.83218  0.94666  0.50166  1.0000
  Fe  Fe681     1.0  0.81686  0.97177  0.55292  1.0000
  C   C3336     1.0  0.84133  0.96243  0.58275  1.0000
  H   H5329     1.0  0.89167  0.53852  0.69906  1.0000
  H   H5330     1.0  0.67962  0.89862  0.60838  1.0000
  H   H5331     1.0  0.86324  0.50824  0.61586  1.0000
  C   C3337     1.0  0.98206  0.68318  0.57168  1.0000
  C   C3338     1.0  0.50036  0.96777  0.72128  1.0000
  C   C3339     1.0  0.95268  0.73288  0.56784  1.0000
  H   H5332     1.0  0.69129  0.89317  0.56403  1.0000
  H   H5333     1.0  0.68134  0.54949  0.55977  1.0000
  H   H5334     1.0  0.89422  0.75981  0.49714  1.0000
  Fe  Fe682     1.0  0.68801  0.59094  0.56547  1.0000
  S   S1361     1.0  0.66802  0.58966  0.55271  1.0000
  S   S1362     1.0  0.71554  0.58283  0.55167  1.0000
  Fe  Fe683     1.0  0.66089  0.60222  0.59540  1.0000
  S   S1363     1.0  0.63916  0.60207  0.58467  1.0000
  S   S1364     1.0  0.65197  0.60939  0.62075  1.0000
  Fe  Fe684     1.0  0.65515  0.57749  0.57862  1.0000
  S   S1365     1.0  0.64359  0.55443  0.58752  1.0000
  Fe  Fe685     1.0  0.65405  0.61442  0.56018  1.0000
  S   S1366     1.0  0.63973  0.63621  0.54342  1.0000
  S   S1367     1.0  0.67616  0.57671  0.59090  1.0000
  S   S1368     1.0  0.67486  0.61667  0.57119  1.0000
  Fe  Fe686     1.0  0.56345  0.70638  0.54415  1.0000
  S   S1369     1.0  0.57673  0.72560  0.54571  1.0000
  S   S1370     1.0  0.57239  0.69731  0.51976  1.0000
  Fe  Fe687     1.0  0.54395  0.70335  0.58088  1.0000
  S   S1371     1.0  0.55592  0.72227  0.58550  1.0000
  S   S1372     1.0  0.52649  0.68775  0.60066  1.0000
  Fe  Fe688     1.0  0.55122  0.73741  0.56004  1.0000
  S   S1373     1.0  0.54119  0.76576  0.55258  1.0000
  Fe  Fe689     1.0  0.58023  0.70873  0.57069  1.0000
  S   S1374     1.0  0.60610  0.69963  0.57729  1.0000
  S   S1375     1.0  0.53738  0.71948  0.55634  1.0000
  S   S1376     1.0  0.56867  0.68867  0.56822  1.0000
  Fe  Fe690     1.0  0.54935  0.60177  0.71261  1.0000
  S   S1377     1.0  0.54736  0.58289  0.69925  1.0000
  Fe  Fe691     1.0  0.55099  0.62921  0.68016  1.0000
  S   S1378     1.0  0.54815  0.61265  0.66469  1.0000
  S   S1379     1.0  0.55456  0.65573  0.66782  1.0000
  Fe  Fe692     1.0  0.52841  0.60411  0.68749  1.0000
  S   S1380     1.0  0.52249  0.89048  0.54502  1.0000
  Fe  Fe693     1.0  0.56745  0.59318  0.67794  1.0000
  S   S1381     1.0  0.58851  0.57648  0.66254  1.0000
  S   S1382     1.0  0.52943  0.62260  0.70175  1.0000
  S   S1383     1.0  0.57140  0.61015  0.69243  1.0000
  Fe  Fe694     1.0  0.56752  0.84214  0.56929  1.0000
  S   S1384     1.0  0.56882  0.85906  0.54328  1.0000
  S   S1385     1.0  0.57338  0.81339  0.57626  1.0000
  Fe  Fe695     1.0  0.55915  0.87192  0.58664  1.0000
  S   S1386     1.0  0.55973  0.89116  0.56230  1.0000
  S   S1387     1.0  0.55335  0.87817  0.61230  1.0000
  Fe  Fe696     1.0  0.54537  0.87568  0.55585  1.0000
  C   C3340     1.0  0.60721  0.98875  0.59836  1.0000
  Fe  Fe697     1.0  0.58315  0.87317  0.55193  1.0000
  S   S1388     1.0  0.60438  0.88537  0.53416  1.0000
  S   S1389     1.0  0.54274  0.85772  0.58114  1.0000
  S   S1390     1.0  0.58390  0.85494  0.57693  1.0000
  S   S1391     1.0  0.67532  0.93478  0.53355  1.0000
  C   C3341     1.0  0.84644  0.95333  0.59781  1.0000
  S   S1392     1.0  0.66589  0.94748  0.56919  1.0000
  Fe  Fe698     1.0  0.68598  0.94965  0.54512  1.0000
  S   S1393     1.0  0.71401  0.93983  0.54597  1.0000
  Fe  Fe699     1.0  0.65413  0.93467  0.55664  1.0000
  S   S1394     1.0  0.64490  0.91124  0.57222  1.0000
  S   S1395     1.0  0.63729  0.95848  0.54545  1.0000
  Fe  Fe700     1.0  0.54205  0.94980  0.68034  1.0000
  S   S1396     1.0  0.53198  0.93425  0.70590  1.0000
  Fe  Fe701     1.0  0.57114  0.96166  0.65262  1.0000
  S   S1397     1.0  0.59987  0.95646  0.64429  1.0000
  Fe  Fe702     1.0  0.53997  0.95816  0.64322  1.0000
  S   S1398     1.0  0.53191  0.95405  0.62148  1.0000
  S   S1399     1.0  0.55621  0.97025  0.67663  1.0000
  S   S1400     1.0  0.55869  0.93962  0.65777  1.0000
  C   C3342     1.0  0.85909  0.51879  0.60551  1.0000
  Fe  Fe703     1.0  0.82784  0.61967  0.55624  1.0000
  S   S1401     1.0  0.84900  0.59769  0.55014  1.0000
  S   S1402     1.0  0.83056  0.64562  0.55652  1.0000
  Fe  Fe704     1.0  0.79988  0.59966  0.56367  1.0000
  S   S1403     1.0  0.81884  0.57573  0.55835  1.0000
  S   S1404     1.0  0.77130  0.60516  0.57463  1.0000
  Fe  Fe705     1.0  0.83464  0.58209  0.57275  1.0000
  S   S1405     1.0  0.84969  0.56299  0.59095  1.0000
  Fe  Fe706     1.0  0.83167  0.59343  0.53617  1.0000
  S   S1406     1.0  0.84335  0.59037  0.50944  1.0000
  S   S1407     1.0  0.81467  0.60437  0.57997  1.0000
  S   S1408     1.0  0.81159  0.61681  0.54036  1.0000
  Fe  Fe707     1.0  0.91397  0.57148  0.67740  1.0000
  S   S1409     1.0  0.94043  0.56260  0.66278  1.0000
  S   S1410     1.0  0.90882  0.56491  0.70598  1.0000
  Fe  Fe708     1.0  0.89901  0.58275  0.64562  1.0000
  S   S1411     1.0  0.92421  0.57385  0.62885  1.0000
  S   S1412     1.0  0.87603  0.59717  0.63466  1.0000
  Fe  Fe709     1.0  0.92719  0.55116  0.65026  1.0000
  S   S1413     1.0  0.93717  0.52332  0.65075  1.0000
  Fe  Fe710     1.0  0.93470  0.58633  0.64306  1.0000
  S   S1414     1.0  0.95350  0.60276  0.62756  1.0000
  S   S1415     1.0  0.90091  0.55894  0.66569  1.0000
  S   S1416     1.0  0.90928  0.59638  0.65892  1.0000
  Fe  Fe711     1.0  0.91856  0.68532  0.56960  1.0000
  S   S1417     1.0  0.93480  0.66837  0.55216  1.0000
  S   S1418     1.0  0.91384  0.67622  0.59789  1.0000
  Fe  Fe712     1.0  0.90942  0.71468  0.54074  1.0000
  S   S1419     1.0  0.92477  0.69977  0.52101  1.0000
  S   S1420     1.0  0.89650  0.74156  0.53066  1.0000
  Fe  Fe713     1.0  0.91332  0.67823  0.53834  1.0000
  S   S1421     1.0  0.90584  0.65902  0.52916  1.0000
  Fe  Fe714     1.0  0.94449  0.69151  0.53679  1.0000
  H   H5335     1.0  0.60511  0.73387  0.58371  1.0000
  S   S1422     1.0  0.89622  0.69375  0.55685  1.0000
  S   S1423     1.0  0.93003  0.70787  0.55538  1.0000
  H   H5336     1.0  0.96130  0.68228  0.56156  1.0000
  C   C3343     1.0  0.94279  0.62330  0.61930  1.0000
  C   C3344     1.0  0.92793  0.63140  0.62911  1.0000
  C   C3345     1.0  0.91936  0.64774  0.62249  1.0000
  C   C3346     1.0  0.92549  0.65607  0.60595  1.0000
  C   C3347     1.0  0.94055  0.64813  0.59618  1.0000
  C   C3348     1.0  0.94922  0.63179  0.60288  1.0000
  H   H5337     1.0  0.92318  0.62522  0.64195  1.0000
  H   H5338     1.0  0.90784  0.65388  0.63018  1.0000
  H   H5339     1.0  0.94564  0.65464  0.58357  1.0000
  H   H5340     1.0  0.96077  0.62564  0.59524  1.0000
  C   C3349     1.0  0.85725  0.57239  0.60303  1.0000
  C   C3350     1.0  0.86943  0.56262  0.61257  1.0000
  C   C3351     1.0  0.87549  0.57009  0.62223  1.0000
  C   C3352     1.0  0.86900  0.58723  0.62273  1.0000
  C   C3353     1.0  0.85669  0.59688  0.61340  1.0000
  C   C3354     1.0  0.85109  0.58958  0.60334  1.0000
  H   H5341     1.0  0.87424  0.54932  0.61242  1.0000
  H   H5342     1.0  0.88496  0.56254  0.62946  1.0000
  H   H5343     1.0  0.85155  0.61011  0.61382  1.0000
  H   H5344     1.0  0.84184  0.59725  0.59602  1.0000
  C   C3355     1.0  0.85152  0.64928  0.54904  1.0000
  C   C3356     1.0  0.86465  0.63792  0.54082  1.0000
  C   C3357     1.0  0.88125  0.64107  0.53478  1.0000
  C   C3358     1.0  0.88486  0.65557  0.53698  1.0000
  C   C3359     1.0  0.87176  0.66698  0.54519  1.0000
  C   C3360     1.0  0.85511  0.66385  0.55118  1.0000
  H   H5345     1.0  0.86201  0.62681  0.53891  1.0000
  H   H5346     1.0  0.89135  0.63221  0.52844  1.0000
  H   H5347     1.0  0.87434  0.67834  0.54670  1.0000
  H   H5348     1.0  0.84499  0.67276  0.55744  1.0000
  H   H5349     1.0  0.70901  0.88075  0.60292  1.0000
  C   C3361     1.0  0.50507  0.60340  0.65738  1.0000
  C   C3362     1.0  0.81710  0.57584  0.51057  1.0000
  C   C3363     1.0  0.83042  0.58363  0.50038  1.0000
  H   H5350     1.0  0.51824  0.60413  0.65577  1.0000
  H   H5351     1.0  0.96495  0.76743  0.53975  1.0000
  H   H5352     1.0  0.79727  0.56354  0.51113  1.0000
  H   H5353     1.0  0.81452  0.57412  0.52417  1.0000
  H   H5354     1.0  0.58484  0.53845  0.60672  1.0000
  C   C3364     1.0  0.92656  0.51538  0.64024  1.0000
  H   H5355     1.0  0.88226  0.50864  0.57925  1.0000
  H   H5356     1.0  0.55651  0.72912  0.50171  1.0000
  H   H5357     1.0  0.60157  0.53709  0.49516  1.0000
  C   C3365     1.0  0.62748  0.49986  0.48693  1.0000
  C   C3366     1.0  0.59822  0.53561  0.60850  1.0000
  C   C3367     1.0  0.92163  0.57232  0.71472  1.0000
  C   C3368     1.0  0.93134  0.58420  0.70478  1.0000
  C   C3369     1.0  0.94104  0.59036  0.71213  1.0000
  H   H5358     1.0  0.62269  0.54105  0.62040  1.0000
  H   H5359     1.0  0.93122  0.58879  0.69147  1.0000
  H   H5360     1.0  0.94839  0.59967  0.70442  1.0000
  C   C3370     1.0  0.60901  0.96689  0.62402  1.0000
  C   C3371     1.0  0.62620  0.96066  0.61699  1.0000
  C   C3372     1.0  0.63381  0.96827  0.60064  1.0000
  H   H5361     1.0  0.63367  0.94990  0.62422  1.0000
  H   H5362     1.0  0.64718  0.96362  0.59555  1.0000
  C   C3373     1.0  0.83855  0.49831  0.48921  1.0000
  H   H5363     1.0  0.51881  0.73638  0.49912  1.0000
  H   H5364     1.0  0.62437  0.51867  0.62364  1.0000
  H   H5365     1.0  0.84611  0.98198  0.56042  1.0000
  H   H5366     1.0  0.53209  0.85524  0.54336  1.0000
  C   C3374     1.0  0.61494  0.89300  0.54508  1.0000
  C   C3375     1.0  0.62264  0.90685  0.53686  1.0000
  C   C3376     1.0  0.63180  0.91258  0.54515  1.0000
  C   C3377     1.0  0.63330  0.90442  0.56172  1.0000
  C   C3378     1.0  0.62544  0.89070  0.57004  1.0000
  C   C3379     1.0  0.61618  0.88507  0.56177  1.0000
  H   H5367     1.0  0.62140  0.91325  0.52412  1.0000
  H   H5368     1.0  0.63773  0.92326  0.53868  1.0000
  H   H5369     1.0  0.62655  0.88434  0.58286  1.0000
  H   H5370     1.0  0.61038  0.87432  0.56819  1.0000
  C   C3380     1.0  0.54768  0.89939  0.61435  1.0000
  C   C3381     1.0  0.54670  0.90284  0.63000  1.0000
  C   C3382     1.0  0.54191  0.91959  0.63224  1.0000
  C   C3383     1.0  0.53790  0.93299  0.61887  1.0000
  C   C3384     1.0  0.53879  0.92958  0.60320  1.0000
  C   C3385     1.0  0.54381  0.91281  0.60090  1.0000
  H   H5371     1.0  0.54960  0.89249  0.64046  1.0000
  H   H5372     1.0  0.54101  0.92205  0.64443  1.0000
  H   H5373     1.0  0.53570  0.93993  0.59281  1.0000
  H   H5374     1.0  0.54452  0.91027  0.58880  1.0000
  H   H5375     1.0  0.91822  0.82251  0.50027  1.0000
  H   H5376     1.0  0.70008  0.54612  0.54318  1.0000
  C   C3386     1.0  0.50568  0.89129  0.60820  1.0000
  H   H5377     1.0  0.57728  0.52100  0.63569  1.0000
  C   C3387     1.0  0.78728  0.96159  0.50070  1.0000
  C   C3388     1.0  0.54935  0.77926  0.55970  1.0000
  C   C3389     1.0  0.55684  0.77323  0.57376  1.0000
  C   C3390     1.0  0.56357  0.78408  0.57904  1.0000
  C   C3391     1.0  0.56290  0.80100  0.57031  1.0000
  C   C3392     1.0  0.55495  0.80720  0.55651  1.0000
  C   C3393     1.0  0.54820  0.79633  0.55122  1.0000
  H   H5378     1.0  0.55738  0.76023  0.58063  1.0000
  H   H5379     1.0  0.56941  0.77937  0.58992  1.0000
  H   H5380     1.0  0.55439  0.82023  0.54969  1.0000
  H   H5381     1.0  0.54237  0.80111  0.54035  1.0000
  C   C3394     1.0  0.53394  0.67908  0.61957  1.0000
  C   C3395     1.0  0.54584  0.68581  0.62319  1.0000
  C   C3396     1.0  0.55169  0.67888  0.63828  1.0000
  C   C3397     1.0  0.54600  0.66489  0.64966  1.0000
  C   C3398     1.0  0.53408  0.65811  0.64609  1.0000
  C   C3399     1.0  0.52800  0.66525  0.63112  1.0000
  H   H5382     1.0  0.55041  0.69651  0.61451  1.0000
  H   H5383     1.0  0.56081  0.68425  0.64104  1.0000
  H   H5384     1.0  0.52940  0.64749  0.65496  1.0000
  H   H5385     1.0  0.51885  0.65991  0.62845  1.0000
  C   C3400     1.0  0.73112  0.58908  0.55789  1.0000
  C   C3401     1.0  0.72635  0.59804  0.57081  1.0000
  C   C3402     1.0  0.73886  0.60286  0.57573  1.0000
  C   C3403     1.0  0.75623  0.59878  0.56780  1.0000
  C   C3404     1.0  0.76106  0.58990  0.55477  1.0000
  C   C3405     1.0  0.74851  0.58505  0.54984  1.0000
  H   H5386     1.0  0.71302  0.60115  0.57712  1.0000
  H   H5387     1.0  0.73504  0.60966  0.58585  1.0000
  H   H5388     1.0  0.77444  0.58668  0.54861  1.0000
  H   H5389     1.0  0.75230  0.57804  0.53990  1.0000
  C   C3406     1.0  0.61689  0.68276  0.56705  1.0000
  C   C3407     1.0  0.61232  0.68192  0.55256  1.0000
  C   C3408     1.0  0.61958  0.66775  0.54523  1.0000
  C   C3409     1.0  0.63137  0.65420  0.55244  1.0000
  C   C3410     1.0  0.63613  0.65511  0.56685  1.0000
  C   C3411     1.0  0.62911  0.66949  0.57398  1.0000
  H   H5390     1.0  0.60307  0.69216  0.54695  1.0000
  H   H5391     1.0  0.61574  0.66725  0.53416  1.0000
  H   H5392     1.0  0.64520  0.64473  0.57253  1.0000
  H   H5393     1.0  0.63280  0.67007  0.58515  1.0000
  C   C3412     1.0  0.63521  0.59934  0.63325  1.0000
  C   C3413     1.0  0.63228  0.58551  0.62903  1.0000
  C   C3414     1.0  0.61814  0.57836  0.63831  1.0000
  C   C3415     1.0  0.60668  0.58514  0.65169  1.0000
  C   C3416     1.0  0.60977  0.59878  0.65609  1.0000
  C   C3417     1.0  0.62410  0.60576  0.64699  1.0000
  H   H5394     1.0  0.64097  0.58023  0.61867  1.0000
  H   H5395     1.0  0.61604  0.56766  0.63497  1.0000
  H   H5396     1.0  0.60121  0.60393  0.66654  1.0000
  H   H5397     1.0  0.62639  0.61634  0.65041  1.0000
  H   H5398     1.0  0.79030  0.95199  0.51216  1.0000
  Fe  Fe715     1.0  0.65971  0.95991  0.52329  1.0000
  H   H5399     1.0  0.72357  0.52223  0.56636  1.0000
  C   C3418     1.0  0.89329  0.52620  0.70833  1.0000
  H   H5400     1.0  0.90186  0.52225  0.67608  1.0000
  C   C3419     1.0  0.90183  0.92504  0.72635  1.0000
  C   C3420     1.0  0.90314  0.51043  0.68608  1.0000
  H   H5401     1.0  0.53780  0.69337  0.53682  1.0000
  C   C3421     1.0  0.61650  0.53033  0.62807  1.0000
  C   C3422     1.0  0.64306  0.52877  0.54667  1.0000
  C   C3423     1.0  0.64659  0.54500  0.54205  1.0000
  C   C3424     1.0  0.64640  0.55323  0.55457  1.0000
  C   C3425     1.0  0.64269  0.54517  0.57164  1.0000
  C   C3426     1.0  0.63877  0.52913  0.57623  1.0000
  C   C3427     1.0  0.63887  0.52097  0.56377  1.0000
  H   H5402     1.0  0.64976  0.55108  0.52882  1.0000
  H   H5403     1.0  0.64920  0.56572  0.55099  1.0000
  H   H5404     1.0  0.63607  0.52281  0.58941  1.0000
  H   H5405     1.0  0.63587  0.50855  0.56742  1.0000
  H   H5406     1.0  0.86946  0.52609  0.60028  1.0000
  H   H5407     1.0  0.61996  0.62253  0.52575  1.0000
  S   S1424     1.0  0.82433  0.95758  0.57761  1.0000
  C   C3428     1.0  0.54836  0.68243  0.49265  1.0000
  H   H5408     1.0  0.73640  0.61872  0.48589  1.0000
  C   C3429     1.0  0.72638  0.95493  0.54277  1.0000
  C   C3430     1.0  0.74391  0.94945  0.54292  1.0000
  H   H5409     1.0  0.60446  0.54610  0.60022  1.0000
  H   H5410     1.0  0.74967  0.93604  0.54499  1.0000
  H   H5411     1.0  0.97522  0.68015  0.58469  1.0000
  C   C3431     1.0  0.96941  0.93318  0.63060  1.0000
  C   C3432     1.0  0.98676  0.93370  0.62705  1.0000
  H   H5412     1.0  0.79902  0.96667  0.49418  1.0000
  H   H5413     1.0  0.81333  0.53457  0.50049  1.0000
  C   C3433     1.0  0.96612  0.93755  0.65876  1.0000
  C   C3434     1.0  0.95907  0.93518  0.64645  1.0000
  H   H5414     1.0  0.59568  0.51954  0.49140  1.0000
  H   H5415     1.0  0.88078  0.52224  0.71239  1.0000
  H   H5416     1.0  0.95808  0.93898  0.67100  1.0000
  H   H5417     1.0  0.94563  0.93484  0.64926  1.0000
  H   H5418     1.0  0.61137  0.51837  0.52087  1.0000
  H   H5419     1.0  0.58076  0.93790  0.72594  1.0000
  H   H5420     1.0  0.72166  0.88234  0.58167  1.0000
  H   H5421     1.0  0.71870  0.50286  0.56564  1.0000
  C   C3435     1.0  0.57003  0.91530  0.51137  1.0000
  H   H5422     1.0  0.76865  0.93771  0.50996  1.0000
  C   C3436     1.0  0.76647  0.94762  0.49843  1.0000
  H   H5423     1.0  0.50233  0.93802  0.69222  1.0000
  C   C3437     1.0  0.92816  0.49784  0.64301  1.0000
  C   C3438     1.0  0.90883  0.49715  0.71384  1.0000
  C   C3439     1.0  0.90710  0.78301  0.54982  1.0000
  C   C3440     1.0  0.90155  0.78702  0.53466  1.0000
  C   C3441     1.0  0.89817  0.77426  0.52892  1.0000
  C   C3442     1.0  0.90054  0.75743  0.53818  1.0000
  C   C3443     1.0  0.90602  0.75348  0.55335  1.0000
  C   C3444     1.0  0.90918  0.76625  0.55919  1.0000
  H   H5424     1.0  0.89995  0.79989  0.52733  1.0000
  H   H5425     1.0  0.89384  0.77746  0.51721  1.0000
  H   H5426     1.0  0.90738  0.74067  0.56083  1.0000
  H   H5427     1.0  0.91311  0.76317  0.57110  1.0000
  C   C3445     1.0  0.91871  0.87843  0.57404  1.0000
  C   C3446     1.0  0.90523  0.87149  0.58528  1.0000
  C   C3447     1.0  0.89874  0.87540  0.60138  1.0000
  C   C3448     1.0  0.90575  0.88621  0.60633  1.0000
  C   C3449     1.0  0.91948  0.89280  0.59522  1.0000
  C   C3450     1.0  0.92579  0.88909  0.57908  1.0000
  H   H5428     1.0  0.89987  0.86301  0.58167  1.0000
  H   H5429     1.0  0.88827  0.87005  0.60998  1.0000
  H   H5430     1.0  0.92546  0.90051  0.59913  1.0000
  H   H5431     1.0  0.93618  0.89451  0.57045  1.0000
  C   C3451     1.0  0.84591  0.89261  0.53215  1.0000
  C   C3452     1.0  0.83041  0.90341  0.53770  1.0000
  C   C3453     1.0  0.82617  0.92003  0.52841  1.0000
  C   C3454     1.0  0.83726  0.92584  0.51335  1.0000
  C   C3455     1.0  0.85252  0.91487  0.50753  1.0000
  C   C3456     1.0  0.85693  0.89836  0.51701  1.0000
  H   H5432     1.0  0.82175  0.89899  0.54931  1.0000
  H   H5433     1.0  0.81415  0.92820  0.53276  1.0000
  H   H5434     1.0  0.86880  0.89012  0.51253  1.0000
  H   H5435     1.0  0.84204  0.62622  0.49161  1.0000
  H   H5436     1.0  0.71777  0.91341  0.57846  1.0000
  H   H5437     1.0  0.83801  0.53542  0.58433  1.0000
  C   C3457     1.0  0.99588  0.63248  0.64153  1.0000
  H   H5438     1.0  0.83925  0.49768  0.59008  1.0000
  C   C3458     1.0  0.51091  0.87687  0.54294  1.0000
  C   C3459     1.0  0.70459  0.91341  0.58643  1.0000
  H   H5439     1.0  0.56519  0.94055  0.70382  1.0000
  H   H5440     1.0  0.87410  0.87030  0.49581  1.0000
  C   C3460     1.0  0.61841  0.62973  0.49282  1.0000
  H   H5441     1.0  0.90161  0.52835  0.61115  1.0000
  C   C3461     1.0  0.90181  0.93045  0.69633  1.0000
  C   C3462     1.0  0.91742  0.91872  0.69392  1.0000
  C   C3463     1.0  0.92351  0.51906  0.69592  1.0000
  S   S1425     1.0  0.50195  0.59978  0.69150  1.0000
  C   C3464     1.0  0.86846  0.96943  0.59192  1.0000
  H   H5442     1.0  0.92352  0.91626  0.68145  1.0000
  C   C3465     1.0  0.89411  0.93362  0.71256  1.0000
  H   H5443     1.0  0.58819  0.73766  0.57294  1.0000
  H   H5444     1.0  0.99206  0.58115  0.72856  1.0000
  H   H5445     1.0  0.95480  0.91363  0.58901  1.0000
  H   H5446     1.0  0.52165  0.90137  0.57621  1.0000
  H   H5447     1.0  0.94404  0.74319  0.53757  1.0000
  C   C3466     1.0  0.72905  0.98404  0.53795  1.0000
  H   H5448     1.0  0.64187  0.63652  0.50534  1.0000
  H   H5449     1.0  0.98146  0.89965  0.66915  1.0000
  N   N329      1.0  0.59431  0.64549  0.61647  1.0000
  C   C3467     1.0  0.59405  0.66316  0.60696  1.0000
  C   C3468     1.0  0.57868  0.64052  0.61612  1.0000
  C   C3469     1.0  0.59485  0.64422  0.63419  1.0000
  C   C3470     1.0  0.60964  0.63411  0.60861  1.0000
  H   H5450     1.0  0.58256  0.67211  0.61234  1.0000
  H   H5451     1.0  0.59384  0.66457  0.59347  1.0000
  H   H5452     1.0  0.60552  0.66744  0.60718  1.0000
  H   H5453     1.0  0.57843  0.62725  0.62326  1.0000
  H   H5454     1.0  0.56691  0.64884  0.62200  1.0000
  H   H5455     1.0  0.57781  0.64143  0.60293  1.0000
  H   H5456     1.0  0.59366  0.63143  0.64209  1.0000
  H   H5457     1.0  0.58415  0.65350  0.64014  1.0000
  H   H5458     1.0  0.60706  0.64667  0.63507  1.0000
  H   H5459     1.0  0.61003  0.62061  0.61525  1.0000
  H   H5460     1.0  0.62173  0.63716  0.60906  1.0000
  H   H5461     1.0  0.60993  0.63509  0.59508  1.0000
  H   H5462     1.0  0.98653  0.62458  0.60792  1.0000
  H   H5463     1.0  0.59069  0.51719  0.65042  1.0000
  H   H5464     1.0  0.69033  0.50320  0.56107  1.0000
  C   C3471     1.0  0.95976  0.92873  0.71288  1.0000
  C   C3472     1.0  0.59954  0.98106  0.61474  1.0000
  C   C3473     1.0  0.50322  0.58783  0.73441  1.0000
  N   N330      1.0  0.97931  0.89836  0.57984  1.0000
  C   C3474     1.0  0.98500  0.89515  0.59582  1.0000
  S   S1426     1.0  0.90056  0.49447  0.61157  1.0000
  C   C3475     1.0  0.97198  0.88413  0.57993  1.0000
  C   C3476     1.0  0.87053  0.74311  0.49783  1.0000
  H   H5465     1.0  0.54030  0.74738  0.50615  1.0000
  H   H5466     1.0  0.58931  0.88583  0.50420  1.0000
  H   H5467     1.0  0.99074  0.90561  0.59608  1.0000
  H   H5468     1.0  0.55771  0.92401  0.51551  1.0000
  H   H5469     1.0  0.92802  0.94799  0.71262  1.0000
  H   H5470     1.0  0.98922  0.62329  0.65162  1.0000
  H   H5471     1.0  0.71582  0.49174  0.53826  1.0000
  H   H5472     1.0  0.51248  0.79605  0.56159  1.0000
  H   H5473     1.0  0.88046  0.84967  0.49106  1.0000
  C   C3477     1.0  0.91988  0.49130  0.63454  1.0000
  C   C3478     1.0  0.97056  0.64472  0.62983  1.0000
  H   H5474     1.0  0.96058  0.88278  0.59051  1.0000
  N   N331      1.0  0.96234  0.74187  0.55197  1.0000
  C   C3479     1.0  0.95775  0.76029  0.55147  1.0000
  H   H5475     1.0  0.97407  0.89424  0.60696  1.0000
  C   C3480     1.0  0.98094  0.73555  0.55125  1.0000
  C   C3481     1.0  0.99287  0.61042  0.73513  1.0000
  H   H5476     1.0  0.86627  0.73163  0.49787  1.0000
  H   H5477     1.0  0.98023  0.87226  0.66346  1.0000
  C   C3482     1.0  0.95803  0.73869  0.53735  1.0000
  C   C3483     1.0  0.74653  0.97859  0.53826  1.0000
  H   H5478     1.0  0.93858  0.73716  0.56873  1.0000
  H   H5479     1.0  0.51798  0.88234  0.60437  1.0000
  H   H5480     1.0  0.85979  0.53477  0.57311  1.0000
  H   H5481     1.0  0.84956  0.49747  0.49476  1.0000
  H   H5482     1.0  0.50440  0.85290  0.50361  1.0000
  H   H5483     1.0  0.96779  0.88600  0.56793  1.0000
  H   H5484     1.0  0.99292  0.50365  0.65249  1.0000
  H   H5485     1.0  0.87014  0.98803  0.56839  1.0000
  H   H5486     1.0  0.79923  0.92999  0.49531  1.0000
  H   H5487     1.0  0.98498  0.54050  0.61739  1.0000
  C   C3484     1.0  0.99864  0.68607  0.56799  1.0000
  H   H5488     1.0  0.63110  0.53415  0.49874  1.0000
  H   H5489     1.0  0.69337  0.51943  0.54215  1.0000
  H   H5490     1.0  0.67467  0.52267  0.55864  1.0000
  H   H5491     1.0  0.90941  0.80027  0.49264  1.0000
  C   C3485     1.0  0.87332  0.86286  0.48707  1.0000
  H   H5492     1.0  0.99366  0.65295  0.60103  1.0000
  H   H5493     1.0  0.76895  0.58205  0.50250  1.0000
  C   C3486     1.0  0.56085  0.68656  0.49815  1.0000
  N   N332      1.0  0.65532  0.89606  0.49042  1.0000
  H   H5494     1.0  0.89094  0.50596  0.68945  1.0000
  H   H5495     1.0  0.77700  0.97218  0.50506  1.0000
  H   H5496     1.0  0.86044  0.61436  0.51298  1.0000
  H   H5497     1.0  0.97120  0.92528  0.57827  1.0000
  H   H5498     1.0  0.84733  0.52259  0.56875  1.0000
  H   H5499     1.0  0.58997  0.75382  0.58223  1.0000
  C   C3487     1.0  0.61592  0.50788  0.51391  1.0000
  H   H5500     1.0  0.58024  0.92280  0.50663  1.0000
  H   H5501     1.0  0.98478  0.72169  0.55172  1.0000
  C   C3488     1.0  0.69689  0.90280  0.56624  1.0000
  C   C3489     1.0  0.98314  0.53128  0.62972  1.0000
  H   H5502     1.0  0.86112  0.91928  0.49585  1.0000
  H   H5503     1.0  0.60748  0.64250  0.53012  1.0000
  H   H5504     1.0  0.62961  0.95260  0.51645  1.0000
  H   H5505     1.0  0.98504  0.61205  0.62900  1.0000
  H   H5506     1.0  0.50677  0.96467  0.70871  1.0000
  H   H5507     1.0  0.98882  0.61939  0.72376  1.0000
  H   H5508     1.0  0.61046  0.72989  0.54789  1.0000
  C   C3490     1.0  0.84233  0.50238  0.59982  1.0000
  H   H5509     1.0  0.70325  0.87291  0.58784  1.0000
  H   H5510     1.0  0.99033  0.90263  0.55310  1.0000
  N   N333      1.0  0.89430  0.63240  0.58896  1.0000
  C   C3491     1.0  0.90780  0.61866  0.59564  1.0000
  C   C3492     1.0  0.88256  0.64001  0.60296  1.0000
  C   C3493     1.0  0.88458  0.62541  0.58116  1.0000
  C   C3494     1.0  0.90227  0.64555  0.57608  1.0000
  H   H5511     1.0  0.90218  0.60851  0.60540  1.0000
  H   H5512     1.0  0.91528  0.62350  0.60173  1.0000
  H   H5513     1.0  0.91697  0.61267  0.58544  1.0000
  H   H5514     1.0  0.87222  0.65044  0.59840  1.0000
  H   H5515     1.0  0.87633  0.63041  0.61294  1.0000
  H   H5516     1.0  0.88954  0.64541  0.60909  1.0000
  H   H5517     1.0  0.87390  0.63532  0.57652  1.0000
  H   H5518     1.0  0.87892  0.61502  0.59035  1.0000
  H   H5519     1.0  0.89294  0.62013  0.57015  1.0000
  H   H5520     1.0  0.90971  0.65107  0.58152  1.0000
  H   H5521     1.0  0.89243  0.65614  0.57087  1.0000
  H   H5522     1.0  0.91114  0.64035  0.56523  1.0000
  H   H5523     1.0  0.62682  0.49906  0.51911  1.0000
  H   H5524     1.0  0.64660  0.88571  0.51683  1.0000
  C   C3495     1.0  0.65945  0.91083  0.49355  1.0000
  C   C3496     1.0  0.62431  0.98219  0.59121  1.0000
  C   C3497     1.0  0.99518  0.89399  0.66951  1.0000
  C   C3498     1.0  0.99824  0.64935  0.61305  1.0000
  N   N334      1.0  0.59409  0.93392  0.60054  1.0000
  C   C3499     1.0  0.58784  0.92262  0.59396  1.0000
  C   C3500     1.0  0.60629  0.92361  0.61126  1.0000
  C   C3501     1.0  0.57942  0.94391  0.61073  1.0000
  C   C3502     1.0  0.60284  0.94551  0.58625  1.0000
  H   H5525     1.0  0.57846  0.92997  0.58596  1.0000
  H   H5526     1.0  0.58128  0.91360  0.60442  1.0000
  H   H5527     1.0  0.59857  0.91497  0.58609  1.0000
  H   H5528     1.0  0.61112  0.93175  0.61657  1.0000
  H   H5529     1.0  0.60014  0.91465  0.62214  1.0000
  H   H5530     1.0  0.61761  0.91600  0.60391  1.0000
  H   H5531     1.0  0.58368  0.95240  0.61610  1.0000
  H   H5532     1.0  0.57248  0.93551  0.62152  1.0000
  H   H5533     1.0  0.56995  0.95194  0.60307  1.0000
  H   H5534     1.0  0.61395  0.93835  0.57826  1.0000
  H   H5535     1.0  0.60786  0.95410  0.59078  1.0000
  H   H5536     1.0  0.59403  0.95359  0.57792  1.0000
  C   C3503     1.0  0.87439  0.89282  0.66876  1.0000
  H   H5537     1.0  0.65279  0.87070  0.50355  1.0000
  H   H5538     1.0  0.55809  0.88725  0.51650  1.0000
  H   H5539     1.0  0.51608  0.83640  0.53910  1.0000
  N   N335      1.0  0.50754  0.98060  0.72446  1.0000
  H   H5540     1.0  0.54968  0.49162  0.71257  1.0000
  S   S1427     1.0  0.97229  0.69153  0.52539  1.0000
  S   S1428     1.0  0.64491  0.51778  0.53115  1.0000
  H   H5541     1.0  0.95548  0.73509  0.57916  1.0000
  H   H5542     1.0  0.63626  0.65346  0.48800  1.0000
  H   H5543     1.0  0.89808  0.88357  0.68765  1.0000
  C   C3504     1.0  0.73476  0.58797  0.50598  1.0000
  N   N336      1.0  0.82825  0.51583  0.48614  1.0000
  H   H5544     1.0  0.84751  0.52749  0.61120  1.0000
  N   N337      1.0  0.69775  0.52469  0.56408  1.0000
  S   S1429     1.0  0.55355  0.97953  0.63648  1.0000
  N   N338      1.0  0.77435  0.65320  0.57541  1.0000
  C   C3505     1.0  0.75595  0.65262  0.58070  1.0000
  C   C3506     1.0  0.78127  0.64946  0.55835  1.0000
  C   C3507     1.0  0.78373  0.64043  0.58755  1.0000
  C   C3508     1.0  0.77653  0.67021  0.57500  1.0000
  H   H5545     1.0  0.75030  0.65522  0.59359  1.0000
  H   H5546     1.0  0.75404  0.63985  0.58105  1.0000
  H   H5547     1.0  0.74844  0.66202  0.57180  1.0000
  H   H5548     1.0  0.77970  0.63678  0.55816  1.0000
  H   H5549     1.0  0.77461  0.65891  0.54881  1.0000
  H   H5550     1.0  0.79520  0.64949  0.55405  1.0000
  H   H5551     1.0  0.79776  0.64016  0.58369  1.0000
  H   H5552     1.0  0.78202  0.62748  0.58848  1.0000
  H   H5553     1.0  0.77912  0.64302  0.60050  1.0000
  H   H5554     1.0  0.79036  0.67086  0.57103  1.0000
  H   H5555     1.0  0.77151  0.67346  0.58767  1.0000
  H   H5556     1.0  0.76968  0.68019  0.56591  1.0000
  H   H5557     1.0  0.91346  0.50078  0.68021  1.0000
  H   H5558     1.0  0.97396  0.92640  0.70832  1.0000
  C   C3509     1.0  0.53196  0.68252  0.50294  1.0000
  H   H5559     1.0  0.97172  0.50419  0.65077  1.0000
  H   H5560     1.0  0.96939  0.53449  0.63615  1.0000
  C   C3510     1.0  0.54356  0.93170  0.72143  1.0000
  H   H5561     1.0  0.73093  0.59810  0.51337  1.0000
  N   N339      1.0  0.86605  0.63252  0.48980  1.0000
  C   C3511     1.0  0.69519  0.54319  0.55712  1.0000
  N   N340      1.0  0.56897  0.90716  0.49827  1.0000
  H   H5562     1.0  0.50702  0.78717  0.54720  1.0000
  C   C3512     1.0  0.84993  0.97494  0.57211  1.0000
  S   S1430     1.0  0.67190  0.97507  0.53308  1.0000
  N   N341      1.0  0.90720  0.51322  0.70103  1.0000
  H   H5563     1.0  0.89635  0.90553  0.67744  1.0000
  H   H5564     1.0  0.53493  0.71795  0.49507  1.0000
  H   H5565     1.0  0.86982  0.49675  0.57437  1.0000
  N   N342      1.0  0.87256  0.89725  0.68510  1.0000
  H   H5566     1.0  0.59401  0.56043  0.62463  1.0000
  H   H5567     1.0  0.96144  0.72491  0.53728  1.0000
  H   H5568     1.0  0.87310  0.74153  0.51055  1.0000
  C   C3513     1.0  0.93395  0.94823  0.72290  1.0000
  H   H5569     1.0  0.61725  0.52878  0.64143  1.0000
  C   C3514     1.0  0.94115  0.58463  0.72940  1.0000
  C   C3515     1.0  0.85778  0.64709  0.49800  1.0000
  C   C3516     1.0  0.60195  0.65678  0.49889  1.0000
  H   H5570     1.0  0.84599  0.88905  0.49020  1.0000
  Fe  Fe716     1.0  0.53746  0.98619  0.66082  1.0000
  H   H5571     1.0  0.87720  0.60599  0.49698  1.0000
  H   H5572     1.0  0.57499  0.55188  0.63165  1.0000
  H   H5573     1.0  0.60553  0.50078  0.51697  1.0000
  H   H5574     1.0  0.92696  0.52137  0.70685  1.0000
  C   C3517     1.0  0.87171  0.50159  0.58464  1.0000
  N   N343      1.0  0.86680  0.91461  0.56301  1.0000
  C   C3518     1.0  0.87620  0.91850  0.57357  1.0000
  C   C3519     1.0  0.85027  0.91076  0.57347  1.0000
  C   C3520     1.0  0.87718  0.89977  0.55593  1.0000
  C   C3521     1.0  0.86349  0.92939  0.54906  1.0000
  H   H5575     1.0  0.88887  0.92119  0.56615  1.0000
  H   H5576     1.0  0.87866  0.90770  0.58438  1.0000
  H   H5577     1.0  0.86886  0.92979  0.57892  1.0000
  H   H5578     1.0  0.85222  0.89971  0.58417  1.0000
  H   H5579     1.0  0.84205  0.92176  0.57892  1.0000
  H   H5580     1.0  0.84291  0.90767  0.56588  1.0000
  H   H5581     1.0  0.87066  0.89672  0.54757  1.0000
  H   H5582     1.0  0.87942  0.88825  0.56609  1.0000
  H   H5583     1.0  0.88999  0.90196  0.54836  1.0000
  H   H5584     1.0  0.85563  0.94081  0.55401  1.0000
  H   H5585     1.0  0.85633  0.92689  0.54089  1.0000
  H   H5586     1.0  0.87565  0.93269  0.54085  1.0000
  H   H5587     1.0  0.51555  0.68618  0.52701  1.0000
  H   H5588     1.0  0.63856  0.49074  0.49166  1.0000
  H   H5589     1.0  0.99490  0.88319  0.59749  1.0000
  H   H5590     1.0  0.50126  0.80965  0.54580  1.0000
  C   C3522     1.0  0.86347  0.97844  0.57672  1.0000
  C   C3523     1.0  0.67980  0.90076  0.59470  1.0000
  C   C3524     1.0  0.95756  0.95889  0.70264  1.0000
  N   N344      1.0  0.59855  0.53355  0.62643  1.0000
  C   C3525     1.0  0.87151  0.61740  0.50260  1.0000
  H   H5591     1.0  0.67123  0.91330  0.59113  1.0000
  H   H5592     1.0  0.96383  0.51392  0.62295  1.0000
  N   N345      1.0  0.74764  0.59199  0.49022  1.0000
  S   S1431     1.0  0.50923  0.49345  0.66540  1.0000
  H   H5593     1.0  0.86783  0.92400  0.67426  1.0000
  H   H5594     1.0  0.91551  0.53995  0.62673  1.0000
  C   C3526     1.0  0.80735  0.56987  0.50317  1.0000
  H   H5595     1.0  0.54266  0.90535  0.50919  1.0000
  H   H5596     1.0  0.98892  0.84727  0.49277  1.0000
  Fe  Fe717     1.0  0.78692  0.98576  0.53505  1.0000
  H   H5597     1.0  0.62978  0.65671  0.50929  1.0000
  H   H5598     1.0  0.57317  0.90570  0.52278  1.0000
  C   C3527     1.0  0.61876  0.94582  0.49939  1.0000
  C   C3528     1.0  0.88971  0.89642  0.68765  1.0000
  C   C3529     1.0  0.50973  0.84933  0.54001  1.0000
  S   S1432     1.0  0.65958  0.96537  0.49565  1.0000
  H   H5599     1.0  0.53174  0.98294  0.72729  1.0000
  H   H5600     1.0  0.59797  0.50701  0.63271  1.0000
  H   H5601     1.0  0.96505  0.74528  0.52514  1.0000
  H   H5602     1.0  0.96315  0.63556  0.63907  1.0000
  H   H5603     1.0  0.70550  0.97661  0.54012  1.0000
  H   H5604     1.0  0.50682  0.60607  0.63078  1.0000
  C   C3530     1.0  0.92505  0.90999  0.70776  1.0000
  C   C3531     1.0  0.99416  0.89984  0.56541  1.0000
  H   H5605     1.0  0.51235  0.59414  0.72383  1.0000
  H   H5606     1.0  0.69673  0.92629  0.58251  1.0000
  H   H5607     1.0  0.83982  0.94365  0.60607  1.0000
  C   C3532     1.0  0.82149  0.52156  0.50230  1.0000
  C   C3533     1.0  0.64435  0.95746  0.49089  1.0000
  H   H5608     1.0  0.67680  0.52736  0.58560  1.0000
  H   H5609     1.0  0.68891  0.91541  0.56197  1.0000
  C   C3534     1.0  0.55700  0.69071  0.51398  1.0000
  H   H5610     1.0  0.59069  0.77430  0.55338  1.0000
  H   H5611     1.0  0.76216  0.94192  0.49025  1.0000
  H   H5612     1.0  0.62799  0.90484  0.49792  1.0000
  H   H5613     1.0  0.62834  0.75022  0.57128  1.0000
  H   H5614     1.0  0.58641  0.98622  0.62021  1.0000
  C   C3535     1.0  0.63792  0.90082  0.48699  1.0000
  C   C3536     1.0  0.55544  0.89720  0.50517  1.0000
  H   H5615     1.0  0.60515  0.52384  0.60379  1.0000
  H   H5616     1.0  0.83311  0.85633  0.50544  1.0000
  N   N346      1.0  0.95283  0.94546  0.71748  1.0000
  C   C3537     1.0  0.68867  0.51716  0.55613  1.0000
  C   C3538     1.0  0.84668  0.85634  0.50473  1.0000
  H   H5617     1.0  0.70991  0.90250  0.55786  1.0000
  H   H5618     1.0  0.80532  0.50785  0.48740  1.0000
  H   H5619     1.0  0.57591  0.50968  0.59939  1.0000
  C   C3539     1.0  0.98273  0.68875  0.54172  1.0000
  N   N347      1.0  0.85576  0.51241  0.59225  1.0000
  H   H5620     1.0  0.69725  0.52722  0.58898  1.0000
  H   H5621     1.0  0.94385  0.76557  0.55176  1.0000
  H   H5622     1.0  0.49940  0.90168  0.69600  1.0000
  H   H5623     1.0  0.83024  0.51009  0.60600  1.0000
  H   H5624     1.0  0.88886  0.89976  0.69983  1.0000
  C   C3540     1.0  0.71627  0.51684  0.56058  1.0000
  C   C3541     1.0  0.71899  0.97226  0.54020  1.0000
  C   C3542     1.0  0.63516  0.52343  0.49210  1.0000
  H   H5625     1.0  0.88086  0.90163  0.65803  1.0000
  H   H5626     1.0  0.70197  0.54930  0.56277  1.0000
  Fe  Fe718     1.0  0.64503  0.49054  0.54363  1.0000
  H   H5627     1.0  0.86174  0.89348  0.66621  1.0000
  C   C3543     1.0  0.90007  0.73071  0.48694  1.0000
  H   H5628     1.0  0.75991  0.60423  0.50153  1.0000
  H   H5629     1.0  0.97100  0.83851  0.50610  1.0000
  H   H5630     1.0  0.96518  0.64878  0.61824  1.0000
  N   N348      1.0  0.60853  0.75064  0.55916  1.0000
  C   C3544     1.0  0.62010  0.75918  0.56278  1.0000
  C   C3545     1.0  0.61881  0.73661  0.55077  1.0000
  C   C3546     1.0  0.59779  0.76302  0.54792  1.0000
  C   C3547     1.0  0.59746  0.74375  0.57521  1.0000
  H   H5631     1.0  0.61268  0.76985  0.56913  1.0000
  H   H5632     1.0  0.62865  0.76456  0.55097  1.0000
  H   H5633     1.0  0.95601  0.71893  0.56868  1.0000
  H   H5634     1.0  0.62746  0.74122  0.53867  1.0000
  H   H5635     1.0  0.62687  0.72688  0.55902  1.0000
  C   C3548     1.0  0.70831  0.88326  0.58941  1.0000
  H   H5636     1.0  0.58808  0.75739  0.54580  1.0000
  H   H5637     1.0  0.60567  0.76775  0.53534  1.0000
  C   C3549     1.0  0.96613  0.91429  0.57824  1.0000
  H   H5638     1.0  0.51150  0.90833  0.70679  1.0000
  C   C3550     1.0  0.99381  0.93601  0.63939  1.0000
  C   C3551     1.0  0.97411  0.68453  0.55857  1.0000
  Fe  Fe719     1.0  0.65065  0.97154  0.55631  1.0000
  S   S1433     1.0  0.52205  0.96647  0.66619  1.0000
  H   H5639     1.0  0.75821  0.56587  0.48868  1.0000
  H   H5640     1.0  0.59610  0.90300  0.48787  1.0000
  H   H5641     1.0  0.92264  0.53122  0.68634  1.0000
  N   N349      1.0  0.98911  0.63705  0.62599  1.0000
  C   C3552     1.0  0.58869  0.54920  0.63235  1.0000
  H   H5642     1.0  0.98388  0.65986  0.51593  1.0000
  H   H5643     1.0  0.92827  0.96064  0.72670  1.0000
  H   H5644     1.0  0.60512  0.49344  0.58898  1.0000
  H   H5645     1.0  0.69246  0.50778  0.58830  1.0000
  H   H5646     1.0  0.58901  0.54826  0.64574  1.0000
  H   H5647     1.0  0.53337  0.96933  0.71349  1.0000
  H   H5648     1.0  0.83202  0.52173  0.50802  1.0000
  C   C3553     1.0  0.98059  0.83843  0.49390  1.0000
  C   C3554     1.0  0.65599  0.88200  0.50546  1.0000
  C   C3555     1.0  0.50234  0.79714  0.55480  1.0000
  H   H5649     1.0  0.55437  0.89075  0.49568  1.0000
  C   C3556     1.0  0.52823  0.68614  0.51901  1.0000
  H   H5650     1.0  0.84887  0.91567  0.68359  1.0000
  H   H5651     1.0  0.51196  0.91968  0.58532  1.0000
  C   C3557     1.0  0.91677  0.52639  0.62895  1.0000
  H   H5652     1.0  0.98153  0.87187  0.58134  1.0000
  H   H5653     1.0  0.99594  0.88775  0.68285  1.0000
  H   H5654     1.0  0.85963  0.75419  0.49626  1.0000
  C   C3558     1.0  0.51883  0.86000  0.54236  1.0000
  H   H5655     1.0  0.84648  0.49108  0.60956  1.0000
  N   N350      1.0  0.61545  0.64189  0.50368  1.0000
  H   H5656     1.0  0.95133  0.86136  0.49056  1.0000
  H   H5657     1.0  0.99431  0.64384  0.64668  1.0000
  H   H5658     1.0  0.86250  0.88823  0.71150  1.0000
  C   C3559     1.0  0.76303  0.59394  0.49448  1.0000
  C   C3560     1.0  0.75398  0.96125  0.54066  1.0000
  C   C3561     1.0  0.92188  0.56643  0.73195  1.0000
  H   H5659     1.0  0.72194  0.51886  0.54674  1.0000
  C   C3562     1.0  0.91727  0.91309  0.72402  1.0000
  H   H5660     1.0  0.98125  0.64623  0.50418  1.0000
  S   S1434     1.0  0.88483  0.97449  0.59808  1.0000
  H   H5661     1.0  0.72290  0.58652  0.50330  1.0000
  H   H5662     1.0  0.73980  0.57596  0.51446  1.0000
  H   H5663     1.0  0.98763  0.89614  0.63984  1.0000
  C   C3563     1.0  0.99173  0.62164  0.61950  1.0000
  H   H5664     1.0  0.97175  0.95728  0.69834  1.0000
  H   H5665     1.0  0.76739  0.95692  0.54106  1.0000
  H   H5666     1.0  0.81350  0.51309  0.51176  1.0000
  C   C3564     1.0  0.99411  0.86774  0.66366  1.0000
  H   H5667     1.0  0.89661  0.71885  0.48679  1.0000
  C   C3565     1.0  0.99086  0.65178  0.50660  1.0000
  C   C3566     1.0  0.84996  0.52688  0.57900  1.0000
  H   H5668     1.0  0.97944  0.51988  0.60424  1.0000
  C   C3567     1.0  0.56833  0.93462  0.72952  1.0000
  H   H5669     1.0  0.60819  0.94183  0.50915  1.0000
  S   S1435     1.0  0.55084  0.50318  0.63042  1.0000
  N   N351      1.0  0.85538  0.86320  0.48731  1.0000
  C   C3568     1.0  0.57161  0.49186  0.62323  1.0000
  H   H5670     1.0  0.50836  0.64484  0.61311  1.0000
  H   H5671     1.0  0.88227  0.87982  0.66826  1.0000
  H   H5672     1.0  0.86115  0.91877  0.69675  1.0000
  N   N352      1.0  0.69740  0.90006  0.58421  1.0000
  H   H5673     1.0  0.98871  0.74190  0.53939  1.0000
  H   H5674     1.0  0.95236  0.97173  0.70555  1.0000
  H   H5675     1.0  0.85113  0.88541  0.69745  1.0000
  H   H5676     1.0  0.88202  0.94266  0.71452  1.0000
  H   H5677     1.0  0.99083  0.53342  0.63763  1.0000
  H   H5678     1.0  0.87172  0.87193  0.69950  1.0000
  H   H5679     1.0  0.97971  0.68426  0.49187  1.0000
  H   H5680     1.0  0.89664  0.49254  0.71814  1.0000
  C   C3569     1.0  0.69078  0.52159  0.58256  1.0000
  C   C3570     1.0  0.55949  0.93616  0.71697  1.0000
  H   H5681     1.0  0.95427  0.92780  0.70259  1.0000
  H   H5682     1.0  0.59937  0.66625  0.50686  1.0000
  H   H5683     1.0  0.85324  0.84308  0.50952  1.0000
  C   C3571     1.0  0.59080  0.51907  0.63678  1.0000
  H   H5684     1.0  0.97431  0.94377  0.72793  1.0000
  C   C3572     1.0  0.58127  0.49796  0.60726  1.0000
  H   H5685     1.0  0.98124  0.49798  0.61508  1.0000
  C   C3573     1.0  0.58566  0.89580  0.49319  1.0000
  S   S1436     1.0  0.99245  0.93944  0.67132  1.0000
  C   C3574     1.0  0.52925  0.73111  0.48920  1.0000
  H   H5686     1.0  0.56377  0.61830  0.73310  1.0000
  C   C3575     1.0  0.63089  0.95191  0.50354  1.0000
  C   C3576     1.0  0.54076  0.69029  0.52453  1.0000
  C   C3577     1.0  0.91475  0.82498  0.48821  1.0000
  H   H5687     1.0  0.84653  0.64438  0.50834  1.0000
  H   H5688     1.0  0.67384  0.89110  0.59304  1.0000
  N   N353      1.0  0.98821  0.51359  0.62744  1.0000
  H   H5689     1.0  0.66894  0.87804  0.50846  1.0000
  H   H5690     1.0  0.93428  0.50970  0.69014  1.0000
  C   C3578     1.0  0.86409  0.88516  0.69901  1.0000
  C   C3579     1.0  0.86209  0.91463  0.68496  1.0000
  H   H5691     1.0  0.86358  0.94981  0.61407  1.0000
  C   C3580     1.0  0.52572  0.97350  0.72535  1.0000
  S   S1437     1.0  0.51579  0.67947  0.49514  1.0000
  C   C3581     1.0  0.86000  0.95675  0.60232  1.0000
  C   C3582     1.0  0.90888  0.51982  0.62016  1.0000
  H   H5692     1.0  0.93703  0.90078  0.70588  1.0000
  C   C3583     1.0  0.50616  0.85991  0.49021  1.0000
  H   H5693     1.0  0.67235  0.90765  0.49656  1.0000
  S   S1438     1.0  0.83667  0.97592  0.52883  1.0000
  C   C3584     1.0  0.60644  0.52599  0.48905  1.0000
  H   H5694     1.0  0.64993  0.91566  0.50431  1.0000
  H   H5695     1.0  0.70522  0.91180  0.59982  1.0000
  H   H5696     1.0  0.85319  0.65863  0.48874  1.0000
  H   H5697     1.0  0.55996  0.74993  0.49100  1.0000
  H   H5698     1.0  0.57338  0.68692  0.48994  1.0000
  C   C3585     1.0  0.50919  0.90981  0.58053  1.0000
  C   C3586     1.0  0.97774  0.51124  0.61694  1.0000
  C   C3587     1.0  0.63154  0.64741  0.50141  1.0000
  H   H5699     1.0  0.87629  0.49046  0.59428  1.0000
  C   C3588     1.0  0.60992  0.63362  0.52159  1.0000
  C   C3589     1.0  0.91037  0.50229  0.62298  1.0000
  C   C3590     1.0  0.98354  0.93786  0.65528  1.0000
  H   H5700     1.0  0.60659  0.62520  0.49416  1.0000
  C   C3591     1.0  0.98547  0.50192  0.64415  1.0000
  H   H5701     1.0  0.58961  0.65307  0.50047  1.0000
  H   H5702     1.0  0.50366  0.91623  0.56917  1.0000
  H   H5703     1.0  0.50132  0.64868  0.59382  1.0000
  H   H5704     1.0  0.88117  0.61931  0.50842  1.0000
  H   H5705     1.0  0.95263  0.95865  0.69169  1.0000
  H   H5706     1.0  0.90338  0.72891  0.49937  1.0000
  H   H5707     1.0  0.96800  0.65613  0.63519  1.0000
  H   H5708     1.0  0.96147  0.91715  0.56636  1.0000
  H   H5709     1.0  0.91210  0.49861  0.72525  1.0000
  H   H5710     1.0  0.84663  0.86399  0.51371  1.0000
  H   H5711     1.0  0.56649  0.55518  0.73058  1.0000
  H   H5712     1.0  0.62856  0.61835  0.49599  1.0000
  H   H5713     1.0  0.50579  0.87843  0.58215  1.0000
  C   C3592     1.0  0.55010  0.74205  0.49586  1.0000
  H   H5714     1.0  0.86685  0.65022  0.50369  1.0000
  N   N354      1.0  0.62124  0.51430  0.49549  1.0000
  H   H5715     1.0  0.89609  0.52875  0.71950  1.0000
  H   H5716     1.0  0.50207  0.95576  0.73099  1.0000
  H   H5717     1.0  0.98469  0.73772  0.56210  1.0000
  H   H5718     1.0  0.99476  0.93230  0.61475  1.0000
  H   H5719     1.0  0.98900  0.82551  0.49463  1.0000
  H   H5720     1.0  0.99510  0.86078  0.67680  1.0000
  H   H5721     1.0  0.95112  0.83132  0.49318  1.0000
  C   C3593     1.0  0.96005  0.94597  0.73150  1.0000
  H   H5722     1.0  0.50878  0.90043  0.61373  1.0000
  H   H5723     1.0  0.95668  0.91826  0.72387  1.0000
  H   H5724     1.0  0.64666  0.51491  0.49657  1.0000
  H   H5725     1.0  0.75568  0.95791  0.50265  1.0000
  N   N355      1.0  0.78213  0.95414  0.48938  1.0000
  H   H5726     1.0  0.51300  0.87007  0.48890  1.0000
  H   H5727     1.0  0.99634  0.66128  0.61737  1.0000
  H   H5728     1.0  0.55227  0.92914  0.48676  1.0000
  H   H5729     1.0  0.61729  0.49272  0.48912  1.0000
  H   H5730     1.0  0.93000  0.93820  0.73398  1.0000
  H   H5731     1.0  0.95515  0.95847  0.73524  1.0000
  H   H5732     1.0  0.99902  0.59532  0.70914  1.0000
  C   C3594     1.0  0.81060  0.57210  0.48555  1.0000
  H   H5733     1.0  0.57449  0.62962  0.75167  1.0000
  Fe  Fe720     1.0  0.52736  0.92591  0.81642  1.0000
  Fe  Fe721     1.0  0.89666  0.77466  0.91507  1.0000
  S   S1439     1.0  0.90614  0.78147  0.93433  1.0000
  S   S1440     1.0  0.88205  0.75377  0.92229  1.0000
  Fe  Fe722     1.0  0.90755  0.80406  0.88707  1.0000
  S   S1441     1.0  0.91816  0.81330  0.90379  1.0000
  S   S1442     1.0  0.90469  0.81680  0.86041  1.0000
  Fe  Fe723     1.0  0.92885  0.78571  0.91327  1.0000
  S   S1443     1.0  0.95524  0.77572  0.91841  1.0000
  Fe  Fe724     1.0  0.89455  0.80829  0.92338  1.0000
  S   S1444     1.0  0.88114  0.82734  0.93959  1.0000
  S   S1445     1.0  0.92042  0.77674  0.89469  1.0000
  S   S1446     1.0  0.88298  0.80126  0.90588  1.0000
  Fe  Fe725     1.0  0.92455  0.90063  0.80219  1.0000
  S   S1447     1.0  0.90414  0.89754  0.79112  1.0000
  S   S1448     1.0  0.93607  0.88192  0.82335  1.0000
  Fe  Fe726     1.0  0.92467  0.93659  0.78087  1.0000
  S   S1449     1.0  0.90383  0.93653  0.76876  1.0000
  Fe  Fe727     1.0  0.89158  0.92397  0.79489  1.0000
  S   S1450     1.0  0.86333  0.93154  0.80626  1.0000
  Fe  Fe728     1.0  0.91847  0.91033  0.76607  1.0000
  S   S1451     1.0  0.91127  0.92652  0.80716  1.0000
  S   S1452     1.0  0.94013  0.91108  0.77689  1.0000
  Fe  Fe729     1.0  0.79066  0.92105  0.93299  1.0000
  S   S1453     1.0  0.77508  0.90443  0.92997  1.0000
  S   S1454     1.0  0.78300  0.93447  0.95461  1.0000
  Fe  Fe730     1.0  0.81731  0.91636  0.90048  1.0000
  S   S1455     1.0  0.80381  0.89963  0.89473  1.0000
  S   S1456     1.0  0.84405  0.91902  0.88621  1.0000
  Fe  Fe731     1.0  0.77954  0.91821  0.90274  1.0000
  S   S1457     1.0  0.75986  0.92720  0.88640  1.0000
  Fe  Fe732     1.0  0.80066  0.88750  0.92229  1.0000
  S   S1458     1.0  0.80565  0.85902  0.92879  1.0000
  S   S1459     1.0  0.79342  0.93619  0.90618  1.0000
  S   S1460     1.0  0.81583  0.90299  0.92764  1.0000
  H   H5734     1.0  0.80475  0.51088  0.84550  1.0000
  H   H5735     1.0  0.88807  0.55915  0.79007  1.0000
  H   H5736     1.0  0.86943  0.58543  0.89980  1.0000
  C   C3595     1.0  0.80937  0.49930  0.85468  1.0000
  Fe  Fe733     1.0  0.55696  0.89726  0.82441  1.0000
  S   S1461     1.0  0.56779  0.87170  0.83927  1.0000
  Fe  Fe734     1.0  0.55956  0.92136  0.78945  1.0000
  S   S1462     1.0  0.54416  0.94379  0.80043  1.0000
  S   S1463     1.0  0.57282  0.92699  0.76192  1.0000
  Fe  Fe735     1.0  0.55984  0.93332  0.82032  1.0000
  S   S1464     1.0  0.57211  0.94920  0.82916  1.0000
  S   S1465     1.0  0.57644  0.91217  0.80824  1.0000
  S   S1466     1.0  0.54171  0.90389  0.80419  1.0000
  Fe  Fe736     1.0  0.66506  0.92145  0.90167  1.0000
  S   S1467     1.0  0.64593  0.94221  0.91303  1.0000
  S   S1468     1.0  0.68702  0.90834  0.91479  1.0000
  Fe  Fe737     1.0  0.64400  0.92439  0.87561  1.0000
  S   S1469     1.0  0.62398  0.94583  0.88473  1.0000
  S   S1470     1.0  0.63900  0.91150  0.85765  1.0000
  Fe  Fe738     1.0  0.64616  0.95568  0.88595  1.0000
  H   H5737     1.0  0.88997  0.58348  0.86385  1.0000
  Fe  Fe739     1.0  0.62606  0.92995  0.91058  1.0000
  S   S1471     1.0  0.60225  0.92320  0.92903  1.0000
  S   S1472     1.0  0.66628  0.93529  0.87467  1.0000
  S   S1473     1.0  0.64516  0.90814  0.90137  1.0000
  Fe  Fe740     1.0  0.57529  0.80355  0.94568  1.0000
  S   S1474     1.0  0.58466  0.77678  0.94119  1.0000
  Fe  Fe741     1.0  0.58829  0.83290  0.94963  1.0000
  S   S1475     1.0  0.56176  0.84766  0.95737  1.0000
  S   S1476     1.0  0.61115  0.84335  0.94796  1.0000
  H   H5738     1.0  0.60348  0.93103  0.80283  1.0000
  Fe  Fe742     1.0  0.55648  0.83997  0.93609  1.0000
  S   S1477     1.0  0.58300  0.80856  0.96713  1.0000
  S   S1478     1.0  0.58358  0.82651  0.92737  1.0000
  H   H5739     1.0  0.98646  0.91794  0.77695  1.0000
  H   H5740     1.0  0.52730  0.88334  0.89168  1.0000
  H   H5741     1.0  0.73261  0.51334  0.88007  1.0000
  S   S1479     1.0  0.52009  0.52845  0.80208  1.0000
  H   H5742     1.0  0.99297  0.84623  0.89122  1.0000
  Fe  Fe743     1.0  0.55365  0.58081  0.84284  1.0000
  S   S1480     1.0  0.57898  0.58300  0.82522  1.0000
  S   S1481     1.0  0.54549  0.55589  0.85145  1.0000
  Fe  Fe744     1.0  0.54754  0.61554  0.85040  1.0000
  S   S1482     1.0  0.57242  0.62077  0.83347  1.0000
  S   S1483     1.0  0.52850  0.63242  0.86684  1.0000
  Fe  Fe745     1.0  0.56562  0.60951  0.81543  1.0000
  S   S1484     1.0  0.57210  0.62126  0.78764  1.0000
  Fe  Fe746     1.0  0.58365  0.59390  0.84463  1.0000
  S   S1485     1.0  0.60883  0.58304  0.85263  1.0000
  S   S1486     1.0  0.53959  0.60649  0.83146  1.0000
  S   S1487     1.0  0.55938  0.58955  0.86316  1.0000
  Fe  Fe747     1.0  0.54294  0.66934  0.96035  1.0000
  S   S1488     1.0  0.55793  0.68678  0.94020  1.0000
  C   C3596     1.0  0.95920  0.73040  0.95447  1.0000
  Fe  Fe748     1.0  0.53413  0.70723  0.94461  1.0000
  S   S1489     1.0  0.52231  0.70276  0.92553  1.0000
  Fe  Fe749     1.0  0.54486  0.68083  0.92294  1.0000
  S   S1490     1.0  0.56025  0.67413  0.89819  1.0000
  S   S1491     1.0  0.53172  0.66185  0.94291  1.0000
  Fe  Fe750     1.0  0.64868  0.61521  0.90549  1.0000
  S   S1492     1.0  0.64919  0.58775  0.91767  1.0000
  S   S1493     1.0  0.63905  0.62805  0.88155  1.0000
  Fe  Fe751     1.0  0.65944  0.62159  0.93478  1.0000
  S   S1494     1.0  0.66076  0.59465  0.94884  1.0000
  S   S1495     1.0  0.66528  0.63989  0.94653  1.0000
  Fe  Fe752     1.0  0.67395  0.58812  0.92364  1.0000
  S   S1496     1.0  0.69790  0.56707  0.92277  1.0000
  Fe  Fe753     1.0  0.63604  0.59753  0.94135  1.0000
  S   S1497     1.0  0.61319  0.58936  0.96042  1.0000
  S   S1498     1.0  0.67428  0.61508  0.90990  1.0000
  S   S1499     1.0  0.63397  0.62492  0.92885  1.0000
  H   H5743     1.0  0.90479  0.59609  0.86259  1.0000
  Fe  Fe754     1.0  0.79362  0.57691  0.89131  1.0000
  S   S1500     1.0  0.79956  0.55766  0.91457  1.0000
  S   S1501     1.0  0.76736  0.59184  0.88734  1.0000
  Fe  Fe755     1.0  0.83137  0.57443  0.87350  1.0000
  S   S1502     1.0  0.84038  0.55476  0.89501  1.0000
  S   S1503     1.0  0.84985  0.58712  0.85189  1.0000
  Fe  Fe756     1.0  0.81861  0.54338  0.89590  1.0000
  S   S1504     1.0  0.82276  0.51506  0.90065  1.0000
  Fe  Fe757     1.0  0.82078  0.57077  0.91169  1.0000
  S   S1505     1.0  0.82962  0.57413  0.93334  1.0000
  S   S1506     1.0  0.81124  0.56160  0.87265  1.0000
  S   S1507     1.0  0.81320  0.59141  0.89017  1.0000
  Fe  Fe758     1.0  0.94475  0.59346  0.80020  1.0000
  S   S1508     1.0  0.95131  0.56654  0.81435  1.0000
  S   S1509     1.0  0.93599  0.61647  0.81172  1.0000
  Fe  Fe759     1.0  0.95124  0.58315  0.76637  1.0000
  S   S1510     1.0  0.95794  0.55545  0.77791  1.0000
  H   H5744     1.0  0.69253  0.51702  0.91376  1.0000
  Fe  Fe760     1.0  0.93562  0.56149  0.79918  1.0000
  S   S1511     1.0  0.91635  0.54504  0.81176  1.0000
  Fe  Fe761     1.0  0.97285  0.56346  0.79176  1.0000
  H   H5745     1.0  0.91461  0.55704  0.73957  1.0000
  S   S1512     1.0  0.92761  0.58867  0.78632  1.0000
  S   S1513     1.0  0.96771  0.59081  0.77882  1.0000
  Fe  Fe762     1.0  0.90671  0.66625  0.90202  1.0000
  S   S1514     1.0  0.92715  0.64512  0.91200  1.0000
  S   S1515     1.0  0.91476  0.69080  0.88778  1.0000
  Fe  Fe763     1.0  0.87974  0.64461  0.91543  1.0000
  S   S1516     1.0  0.89797  0.62208  0.92654  1.0000
  S   S1517     1.0  0.85236  0.64418  0.91673  1.0000
  Fe  Fe764     1.0  0.90640  0.64087  0.93528  1.0000
  S   S1518     1.0  0.90852  0.63649  0.96232  1.0000
  Fe  Fe765     1.0  0.91672  0.62864  0.90213  1.0000
  S   S1519     1.0  0.93310  0.60723  0.88959  1.0000
  S   S1520     1.0  0.88662  0.66310  0.92603  1.0000
  S   S1521     1.0  0.89783  0.65005  0.89028  1.0000
  S   S1522     1.0  0.52975  0.73418  0.94774  1.0000
  C   C3597     1.0  0.87278  0.72240  0.96160  1.0000
  C   C3598     1.0  0.91907  0.65059  0.96538  1.0000
  C   C3599     1.0  0.92746  0.66115  0.95153  1.0000
  C   C3600     1.0  0.93561  0.67256  0.95409  1.0000
  H   H5746     1.0  0.97009  0.85341  0.89551  1.0000
  H   H5747     1.0  0.89761  0.56106  0.76785  1.0000
  H   H5748     1.0  0.99779  0.87731  0.95663  1.0000
  H   H5749     1.0  0.92777  0.66050  0.93881  1.0000
  H   H5750     1.0  0.94217  0.68058  0.94328  1.0000
  N   N356      1.0  0.69258  0.97182  0.90212  1.0000
  H   H5751     1.0  0.71938  0.53302  0.91795  1.0000
  N   N357      1.0  0.99021  0.85708  0.97710  1.0000
  H   H5752     1.0  0.86109  0.58834  0.88140  1.0000
  H   H5753     1.0  0.75942  0.89052  0.88685  1.0000
  C   C3601     1.0  0.82482  0.51775  0.97796  1.0000
  H   H5754     1.0  0.57054  0.75868  0.97660  1.0000
  C   C3602     1.0  0.69737  0.97361  0.88355  1.0000
  H   H5755     1.0  0.99413  0.81414  0.86787  1.0000
  C   C3603     1.0  0.93528  0.61363  0.83338  1.0000
  C   C3604     1.0  0.92869  0.62764  0.84101  1.0000
  C   C3605     1.0  0.92796  0.62580  0.85825  1.0000
  C   C3606     1.0  0.93374  0.60989  0.86800  1.0000
  C   C3607     1.0  0.94048  0.59589  0.86037  1.0000
  C   C3608     1.0  0.94126  0.59775  0.84310  1.0000
  H   H5756     1.0  0.92421  0.64000  0.83351  1.0000
  H   H5757     1.0  0.92320  0.63676  0.86388  1.0000
  H   H5758     1.0  0.94507  0.58355  0.86782  1.0000
  H   H5759     1.0  0.94657  0.58692  0.83734  1.0000
  C   C3609     1.0  0.83575  0.59362  0.92908  1.0000
  C   C3610     1.0  0.82622  0.60848  0.92081  1.0000
  C   C3611     1.0  0.83132  0.62394  0.91734  1.0000
  C   C3612     1.0  0.84620  0.62458  0.92174  1.0000
  C   C3613     1.0  0.85579  0.60969  0.92994  1.0000
  C   C3614     1.0  0.85044  0.59429  0.93383  1.0000
  H   H5760     1.0  0.81476  0.60812  0.91729  1.0000
  H   H5761     1.0  0.82380  0.63541  0.91105  1.0000
  H   H5762     1.0  0.86721  0.61001  0.93347  1.0000
  H   H5763     1.0  0.85783  0.58284  0.94027  1.0000
  C   C3615     1.0  0.86850  0.57456  0.84197  1.0000
  C   C3616     1.0  0.86944  0.55766  0.84194  1.0000
  C   C3617     1.0  0.88425  0.54844  0.83283  1.0000
  C   C3618     1.0  0.89827  0.55598  0.82418  1.0000
  C   C3619     1.0  0.89749  0.57262  0.82486  1.0000
  C   C3620     1.0  0.88253  0.58200  0.83335  1.0000
  H   H5764     1.0  0.85862  0.55186  0.84859  1.0000
  H   H5765     1.0  0.88483  0.53551  0.83245  1.0000
  H   H5766     1.0  0.90837  0.57840  0.81875  1.0000
  H   H5767     1.0  0.88190  0.59506  0.83326  1.0000
  H   H5768     1.0  0.90644  0.56838  0.78100  1.0000
  C   C3621     1.0  0.80455  0.50857  0.90027  1.0000
  C   C3622     1.0  0.79040  0.52047  0.89527  1.0000
  C   C3623     1.0  0.77647  0.51500  0.89373  1.0000
  H   H5769     1.0  0.79030  0.53387  0.89228  1.0000
  H   H5770     1.0  0.76582  0.52425  0.88937  1.0000
  C   C3624     1.0  0.71750  0.57324  0.91219  1.0000
  C   C3625     1.0  0.71783  0.58797  0.89952  1.0000
  C   C3626     1.0  0.73334  0.59316  0.89164  1.0000
  C   C3627     1.0  0.74872  0.58358  0.89622  1.0000
  C   C3628     1.0  0.74856  0.56847  0.90848  1.0000
  C   C3629     1.0  0.73295  0.56332  0.91646  1.0000
  H   H5771     1.0  0.70615  0.59538  0.89567  1.0000
  H   H5772     1.0  0.73342  0.60478  0.88205  1.0000
  H   H5773     1.0  0.76037  0.56100  0.91209  1.0000
  H   H5774     1.0  0.73284  0.55187  0.92625  1.0000
  C   C3630     1.0  0.65954  0.63473  0.96876  1.0000
  C   C3631     1.0  0.89422  0.56753  0.77859  1.0000
  H   H5775     1.0  0.67367  0.65126  0.97199  1.0000
  C   C3632     1.0  0.80456  0.49126  0.90418  1.0000
  C   C3633     1.0  0.57872  0.63458  0.95877  1.0000
  C   C3634     1.0  0.59249  0.62142  0.95415  1.0000
  C   C3635     1.0  0.59638  0.60633  0.96600  1.0000
  H   H5776     1.0  0.97089  0.85923  0.86482  1.0000
  C   C3636     1.0  0.58781  0.95426  0.77958  1.0000
  H   H5777     1.0  0.57569  0.64614  0.94952  1.0000
  H   H5778     1.0  0.59982  0.62291  0.94133  1.0000
  C   C3637     1.0  0.56444  0.61306  0.77467  1.0000
  H   H5779     1.0  0.60716  0.93576  0.75696  1.0000
  C   C3638     1.0  0.97489  0.62404  0.86721  1.0000
  H   H5780     1.0  0.53165  0.54211  0.76588  1.0000
  C   C3639     1.0  0.54927  0.59372  0.77114  1.0000
  C   C3640     1.0  0.55536  0.60007  0.78165  1.0000
  S   S1523     1.0  0.55556  0.49170  0.78856  1.0000
  H   H5781     1.0  0.54218  0.58375  0.77667  1.0000
  H   H5782     1.0  0.55298  0.59496  0.79514  1.0000
  C   C3641     1.0  0.53720  0.64451  0.87510  1.0000
  C   C3642     1.0  0.52778  0.65053  0.88967  1.0000
  C   C3643     1.0  0.53467  0.65984  0.89671  1.0000
  C   C3644     1.0  0.55091  0.66335  0.88910  1.0000
  C   C3645     1.0  0.56022  0.65755  0.87440  1.0000
  C   C3646     1.0  0.55342  0.64808  0.86745  1.0000
  C   C3647     1.0  0.61051  0.93193  0.76962  1.0000
  H   H5783     1.0  0.52741  0.66430  0.90802  1.0000
  H   H5784     1.0  0.57277  0.66030  0.86844  1.0000
  H   H5785     1.0  0.56068  0.64373  0.85611  1.0000
  C   C3648     1.0  0.61720  0.59586  0.86028  1.0000
  C   C3649     1.0  0.61150  0.61349  0.85714  1.0000
  C   C3650     1.0  0.61857  0.62335  0.86338  1.0000
  C   C3651     1.0  0.63109  0.61558  0.87304  1.0000
  C   C3652     1.0  0.63679  0.59796  0.87608  1.0000
  C   C3653     1.0  0.62995  0.58815  0.86961  1.0000
  H   H5786     1.0  0.60166  0.61955  0.84996  1.0000
  H   H5787     1.0  0.61411  0.63699  0.86103  1.0000
  H   H5788     1.0  0.64671  0.59192  0.88315  1.0000
  H   H5789     1.0  0.63452  0.57453  0.87192  1.0000
  H   H5790     1.0  0.57422  0.88722  0.97410  1.0000
  C   C3654     1.0  0.52891  0.53576  0.81472  1.0000
  C   C3655     1.0  0.53454  0.52475  0.82882  1.0000
  C   C3656     1.0  0.53978  0.53108  0.83990  1.0000
  C   C3657     1.0  0.53990  0.54834  0.83667  1.0000
  C   C3658     1.0  0.53489  0.55928  0.82220  1.0000
  C   C3659     1.0  0.52917  0.55302  0.81134  1.0000
  H   H5791     1.0  0.53431  0.51144  0.83153  1.0000
  H   H5792     1.0  0.54359  0.52261  0.85112  1.0000
  H   H5793     1.0  0.53494  0.57262  0.81967  1.0000
  H   H5794     1.0  0.52478  0.56159  0.80046  1.0000
  C   C3660     1.0  0.56960  0.76516  0.94173  1.0000
  C   C3661     1.0  0.57496  0.74773  0.94187  1.0000
  C   C3662     1.0  0.56299  0.73803  0.94327  1.0000
  C   C3663     1.0  0.54560  0.74576  0.94458  1.0000
  C   C3664     1.0  0.55226  0.77286  0.94279  1.0000
  H   H5795     1.0  0.58838  0.74170  0.94099  1.0000
  H   H5796     1.0  0.56716  0.72460  0.94350  1.0000
  C   C3665     1.0  0.60454  0.90107  0.93483  1.0000
  C   C3666     1.0  0.62022  0.89050  0.93753  1.0000
  C   C3667     1.0  0.62205  0.87281  0.94170  1.0000
  C   C3668     1.0  0.60823  0.86559  0.94318  1.0000
  C   C3669     1.0  0.59251  0.87620  0.94057  1.0000
  C   C3670     1.0  0.59059  0.89390  0.93666  1.0000
  H   H5797     1.0  0.63091  0.89594  0.93668  1.0000
  H   H5798     1.0  0.63424  0.86472  0.94377  1.0000
  H   H5799     1.0  0.58186  0.87085  0.94136  1.0000
  H   H5800     1.0  0.57839  0.90204  0.93475  1.0000
  C   C3671     1.0  0.56124  0.92874  0.74662  1.0000
  H   H5801     1.0  0.61328  0.96391  0.75424  1.0000
  H   H5802     1.0  0.67522  0.96003  0.92332  1.0000
  C   C3672     1.0  0.62039  0.92201  0.84980  1.0000
  C   C3673     1.0  0.61434  0.93951  0.84826  1.0000
  C   C3674     1.0  0.59941  0.94769  0.84209  1.0000
  C   C3675     1.0  0.59039  0.93842  0.83748  1.0000
  C   C3676     1.0  0.59632  0.92087  0.83917  1.0000
  C   C3677     1.0  0.61144  0.91274  0.84506  1.0000
  H   H5803     1.0  0.62143  0.94685  0.85136  1.0000
  H   H5804     1.0  0.59496  0.96127  0.84073  1.0000
  H   H5805     1.0  0.58938  0.91354  0.83584  1.0000
  H   H5806     1.0  0.61619  0.89925  0.84593  1.0000
  C   C3678     1.0  0.56023  0.86835  0.86137  1.0000
  C   C3679     1.0  0.56981  0.85568  0.87194  1.0000
  C   C3680     1.0  0.56417  0.85310  0.88962  1.0000
  C   C3681     1.0  0.54892  0.86317  0.89680  1.0000
  C   C3682     1.0  0.54485  0.87823  0.86856  1.0000
  H   H5807     1.0  0.58153  0.84777  0.86643  1.0000
  H   H5808     1.0  0.57153  0.84319  0.89761  1.0000
  C   C3683     1.0  0.82619  0.92813  0.96775  1.0000
  H   H5809     1.0  0.71835  0.97005  0.90411  1.0000
  C   C3684     1.0  0.93163  0.57255  0.73930  1.0000
  H   H5810     1.0  0.89569  0.92747  0.73882  1.0000
  H   H5811     1.0  0.96752  0.91283  0.80553  1.0000
  H   H5812     1.0  0.87005  0.57682  0.76024  1.0000
  N   N358      1.0  0.55865  0.53986  0.75524  1.0000
  H   H5813     1.0  0.66739  0.96825  0.90417  1.0000
  H   H5814     1.0  0.99093  0.90514  0.87791  1.0000
  H   H5815     1.0  0.90423  0.59651  0.76200  1.0000
  H   H5816     1.0  0.94392  0.50522  0.81960  1.0000
  C   C3685     1.0  0.73916  0.92307  0.89469  1.0000
  C   C3686     1.0  0.72799  0.92644  0.88377  1.0000
  C   C3687     1.0  0.71168  0.92250  0.88989  1.0000
  C   C3688     1.0  0.70655  0.91504  0.90696  1.0000
  C   C3689     1.0  0.71753  0.91210  0.91796  1.0000
  C   C3690     1.0  0.73377  0.91616  0.91187  1.0000
  H   H5817     1.0  0.73209  0.93183  0.87046  1.0000
  H   H5818     1.0  0.70332  0.92472  0.88131  1.0000
  H   H5819     1.0  0.71352  0.90649  0.93122  1.0000
  H   H5820     1.0  0.74212  0.91385  0.92045  1.0000
  C   C3691     1.0  0.84885  0.92192  0.86408  1.0000
  C   C3692     1.0  0.86607  0.91852  0.85564  1.0000
  C   C3693     1.0  0.87046  0.92050  0.83802  1.0000
  C   C3694     1.0  0.85775  0.92685  0.82856  1.0000
  C   C3695     1.0  0.84048  0.93036  0.83699  1.0000
  C   C3696     1.0  0.83600  0.92763  0.85477  1.0000
  H   H5821     1.0  0.87607  0.91413  0.86276  1.0000
  H   H5822     1.0  0.88373  0.91732  0.83178  1.0000
  H   H5823     1.0  0.83055  0.93521  0.82977  1.0000
  H   H5824     1.0  0.82266  0.93032  0.86122  1.0000
  C   C3697     1.0  0.89135  0.73626  0.91274  1.0000
  C   C3698     1.0  0.88143  0.72470  0.91400  1.0000
  C   C3699     1.0  0.88870  0.71039  0.90683  1.0000
  C   C3700     1.0  0.90579  0.70785  0.89798  1.0000
  C   C3701     1.0  0.91565  0.71952  0.89655  1.0000
  C   C3702     1.0  0.90852  0.73357  0.90414  1.0000
  H   H5825     1.0  0.86807  0.72682  0.92044  1.0000
  H   H5826     1.0  0.88095  0.70156  0.90773  1.0000
  H   H5827     1.0  0.92892  0.71751  0.88978  1.0000
  H   H5828     1.0  0.91639  0.74215  0.90347  1.0000
  C   C3703     1.0  0.96065  0.78960  0.92730  1.0000
  C   C3704     1.0  0.94837  0.80358  0.93212  1.0000
  C   C3705     1.0  0.95307  0.81530  0.93813  1.0000
  C   C3706     1.0  0.97007  0.81304  0.93930  1.0000
  H   H5829     1.0  0.98091  0.74533  0.92794  1.0000
  C   C3707     1.0  0.97749  0.78701  0.92908  1.0000
  H   H5830     1.0  0.93532  0.80546  0.93101  1.0000
  H   H5831     1.0  0.94370  0.82640  0.94133  1.0000
  C   C3708     1.0  0.96468  0.92671  0.80496  1.0000
  N   N359      1.0  0.86806  0.97771  0.81718  1.0000
  C   C3709     1.0  0.85957  0.83530  0.93821  1.0000
  C   C3710     1.0  0.85120  0.85123  0.94174  1.0000
  C   C3711     1.0  0.83443  0.85832  0.93941  1.0000
  C   C3712     1.0  0.82600  0.84961  0.93340  1.0000
  C   C3713     1.0  0.83413  0.83338  0.93053  1.0000
  C   C3714     1.0  0.85087  0.82622  0.93299  1.0000
  H   H5832     1.0  0.85773  0.85819  0.94610  1.0000
  H   H5833     1.0  0.82794  0.87039  0.94257  1.0000
  H   H5834     1.0  0.82755  0.82639  0.92626  1.0000
  H   H5835     1.0  0.85689  0.81357  0.93109  1.0000
  C   C3715     1.0  0.91328  0.83503  0.85052  1.0000
  C   C3716     1.0  0.90875  0.84511  0.83548  1.0000
  C   C3717     1.0  0.91547  0.85963  0.82720  1.0000
  C   C3718     1.0  0.92693  0.86409  0.83381  1.0000
  C   C3719     1.0  0.93142  0.85403  0.84893  1.0000
  C   C3720     1.0  0.92456  0.83959  0.85732  1.0000
  H   H5836     1.0  0.90009  0.84166  0.83010  1.0000
  H   H5837     1.0  0.91208  0.86711  0.81549  1.0000
  H   H5838     1.0  0.94032  0.85740  0.85408  1.0000
  H   H5839     1.0  0.92828  0.83181  0.86880  1.0000
  H   H5840     1.0  0.51521  0.64783  0.89565  1.0000
  H   H5841     1.0  0.83122  0.52039  0.84357  1.0000
  S   S1524     1.0  0.65241  0.98150  0.87382  1.0000
  H   H5842     1.0  0.73744  0.52241  0.90444  1.0000
  H   H5843     1.0  0.54432  0.74809  0.98037  1.0000
  H   H5844     1.0  0.73010  0.54341  0.87956  1.0000
  H   H5845     1.0  0.58739  0.50995  0.85517  1.0000
  N   N360      1.0  0.88842  0.70975  0.96508  1.0000
  H   H5846     1.0  0.60189  0.68335  0.94842  1.0000
  H   H5847     1.0  0.64356  0.61794  0.96982  1.0000
  H   H5848     1.0  0.95286  0.72498  0.94775  1.0000
  H   H5849     1.0  0.62275  0.68004  0.95268  1.0000
  S   S1525     1.0  0.54763  0.81655  0.95288  1.0000
  H   H5850     1.0  0.98341  0.59391  0.88796  1.0000
  H   H5851     1.0  0.53150  0.76922  0.97832  1.0000
  C   C3721     1.0  0.87819  0.84725  0.88891  1.0000
  H   H5852     1.0  0.54799  0.78629  0.94242  1.0000
  H   H5853     1.0  0.60839  0.52236  0.88223  1.0000
  H   H5854     1.0  0.49945  0.67853  0.92021  1.0000
  H   H5855     1.0  0.97174  0.93758  0.77115  1.0000
  C   C3722     1.0  0.87811  0.96177  0.82558  1.0000
  C   C3723     1.0  0.93497  0.67387  0.97050  1.0000
  C   C3724     1.0  0.98306  0.70625  0.95400  1.0000
  H   H5856     1.0  0.96159  0.92847  0.81819  1.0000
  H   H5857     1.0  0.72219  0.51083  0.91872  1.0000
  H   H5858     1.0  0.89946  0.58055  0.88151  1.0000
  C   C3725     1.0  0.54523  0.92436  0.75113  1.0000
  H   H5859     1.0  0.81220  0.50383  0.96025  1.0000
  H   H5860     1.0  0.62454  0.93512  0.79373  1.0000
  C   C3726     1.0  0.86556  0.59495  0.88865  1.0000
  H   H5861     1.0  0.89246  0.84435  0.88542  1.0000
  H   H5862     1.0  0.89641  0.61736  0.88071  1.0000
  H   H5863     1.0  0.70922  0.54733  0.87500  1.0000
  H   H5864     1.0  0.71823  0.50143  0.89550  1.0000
  H   H5865     1.0  0.98126  0.72798  0.97332  1.0000
  H   H5866     1.0  0.53941  0.56078  0.76322  1.0000
  H   H5867     1.0  0.83383  0.93270  0.95497  1.0000
  C   C3727     1.0  0.68603  0.98879  0.90623  1.0000
  C   C3728     1.0  0.61063  0.94081  0.79457  1.0000
  H   H5868     1.0  0.77295  0.85304  0.88638  1.0000
  S   S1526     1.0  0.93707  0.95907  0.77164  1.0000
  H   H5869     1.0  0.97725  0.70048  0.94709  1.0000
  H   H5870     1.0  0.99669  0.55229  0.85087  1.0000
  C   C3729     1.0  0.84523  0.63921  0.98485  1.0000
  H   H5871     1.0  0.58405  0.96522  0.78585  1.0000
  H   H5872     1.0  0.73489  0.86182  0.92083  1.0000
  H   H5873     1.0  0.51515  0.93367  0.78640  1.0000
  H   H5874     1.0  0.63201  0.62630  0.81394  1.0000
  H   H5875     1.0  0.60486  0.88424  0.97336  1.0000
  H   H5876     1.0  0.99356  0.80997  0.89011  1.0000
  H   H5877     1.0  0.62697  0.64923  0.95547  1.0000
  N   N361      1.0  0.58059  0.61363  0.91004  1.0000
  C   C3730     1.0  0.57249  0.59969  0.92119  1.0000
  C   C3731     1.0  0.57240  0.62942  0.91626  1.0000
  C   C3732     1.0  0.57832  0.61614  0.89265  1.0000
  C   C3733     1.0  0.59910  0.60930  0.91001  1.0000
  H   H5878     1.0  0.57837  0.58760  0.91681  1.0000
  H   H5879     1.0  0.55850  0.60262  0.92149  1.0000
  H   H5880     1.0  0.57397  0.59750  0.93444  1.0000
  H   H5881     1.0  0.57866  0.64007  0.90852  1.0000
  H   H5882     1.0  0.55859  0.63351  0.91574  1.0000
  H   H5883     1.0  0.57314  0.62787  0.92957  1.0000
  H   H5884     1.0  0.58452  0.60460  0.88735  1.0000
  H   H5885     1.0  0.58406  0.62678  0.88403  1.0000
  H   H5886     1.0  0.56450  0.61927  0.89223  1.0000
  H   H5887     1.0  0.60595  0.59824  0.90414  1.0000
  H   H5888     1.0  0.60138  0.60600  0.92305  1.0000
  H   H5889     1.0  0.60534  0.62010  0.90276  1.0000
  H   H5890     1.0  0.68700  0.53259  0.89551  1.0000
  H   H5891     1.0  0.96165  0.62359  0.86711  1.0000
  C   C3734     1.0  0.75956  0.85734  0.89324  1.0000
  C   C3735     1.0  0.89192  0.59530  0.76002  1.0000
  H   H5892     1.0  0.76928  0.86359  0.92750  1.0000
  C   C3736     1.0  0.71903  0.51414  0.88711  1.0000
  H   H5893     1.0  0.57684  0.52618  0.77082  1.0000
  H   H5894     1.0  0.80401  0.50201  0.86753  1.0000
  H   H5895     1.0  0.59278  0.91994  0.98064  1.0000
  H   H5896     1.0  0.64436  0.61662  0.79655  1.0000
  C   C3737     1.0  0.69506  0.52913  0.90505  1.0000
  N   N362      1.0  0.75908  0.86715  0.90557  1.0000
  H   H5897     1.0  0.60419  0.69125  0.96529  1.0000
  C   C3738     1.0  0.83756  0.94363  0.98089  1.0000
  H   H5898     1.0  0.91527  0.70436  0.95340  1.0000
  C   C3739     1.0  0.76912  0.85643  0.91818  1.0000
  C   C3740     1.0  0.97457  0.49198  0.80143  1.0000
  C   C3741     1.0  0.54086  0.54991  0.75742  1.0000
  H   H5899     1.0  0.79484  0.51528  0.97354  1.0000
  C   C3742     1.0  0.83489  0.49119  0.83395  1.0000
  H   H5900     1.0  0.56351  0.53525  0.87637  1.0000
  H   H5901     1.0  0.85828  0.59525  0.76855  1.0000
  H   H5902     1.0  0.51079  0.57919  0.74362  1.0000
  Fe  Fe766     1.0  0.51025  0.68427  0.94709  1.0000
  H   H5903     1.0  0.73325  0.88133  0.90521  1.0000
  H   H5904     1.0  0.78275  0.85189  0.91208  1.0000
  H   H5905     1.0  0.76379  0.84510  0.92543  1.0000
  C   C3743     1.0  0.66551  0.64229  0.97830  1.0000
  H   H5906     1.0  0.97307  0.49922  0.78851  1.0000
  C   C3744     1.0  0.56750  0.61956  0.75713  1.0000
  H   H5907     1.0  0.53694  0.55510  0.74507  1.0000
  N   N363      1.0  0.97992  0.83484  0.87997  1.0000
  H   H5908     1.0  0.89019  0.60183  0.89922  1.0000
  N   N364      1.0  0.82831  0.49449  0.85122  1.0000
  H   H5909     1.0  0.88262  0.69044  0.95650  1.0000
  H   H5910     1.0  0.99230  0.92856  0.81489  1.0000
  C   C3745     1.0  0.98485  0.84103  0.97942  1.0000
  H   H5911     1.0  0.87302  0.87175  0.90579  1.0000
  H   H5912     1.0  0.97093  0.50134  0.83927  1.0000
  H   H5913     1.0  0.84945  0.50522  0.85014  1.0000
  H   H5914     1.0  0.56285  0.49419  0.85781  1.0000
  H   H5915     1.0  0.58378  0.54297  0.74074  1.0000
  H   H5916     1.0  0.90125  0.70905  0.93923  1.0000
  H   H5917     1.0  0.84530  0.94899  0.96847  1.0000
  C   C3746     1.0  0.86711  0.58270  0.77137  1.0000
  H   H5918     1.0  0.96204  0.81965  0.89589  1.0000
  H   H5919     1.0  0.88947  0.98343  0.79703  1.0000
  H   H5920     1.0  0.60629  0.65247  0.95099  1.0000
  H   H5921     1.0  0.80088  0.55089  0.95508  1.0000
  H   H5922     1.0  0.86020  0.91931  0.96613  1.0000
  C   C3747     1.0  0.58650  0.60458  0.98254  1.0000
  H   H5923     1.0  0.87513  0.62118  0.89349  1.0000
  C   C3748     1.0  0.56376  0.53445  0.77173  1.0000
  H   H5924     1.0  0.85428  0.60445  0.89344  1.0000
  H   H5925     1.0  0.63033  0.95394  0.76536  1.0000
  H   H5926     1.0  0.62437  0.92577  0.76795  1.0000
  H   H5927     1.0  0.95503  0.74448  0.95115  1.0000
  S   S1527     1.0  0.54124  0.91804  0.83768  1.0000
  C   C3749     1.0  0.87364  0.61617  0.86390  1.0000
  C   C3750     1.0  0.98066  0.84213  0.89381  1.0000
  H   H5928     1.0  0.84738  0.86503  0.90196  1.0000
  C   C3751     1.0  0.89250  0.71172  0.98037  1.0000
  N   N365      1.0  0.60632  0.94657  0.77771  1.0000
  H   H5929     1.0  0.72197  0.63516  0.94319  1.0000
  N   N366      1.0  0.62051  0.86517  0.88952  1.0000
  C   C3752     1.0  0.63748  0.86376  0.87774  1.0000
  C   C3753     1.0  0.60723  0.86604  0.88048  1.0000
  C   C3754     1.0  0.61663  0.88068  0.89620  1.0000
  C   C3755     1.0  0.62073  0.85020  0.90371  1.0000
  H   H5930     1.0  0.64099  0.85210  0.87257  1.0000
  H   H5931     1.0  0.64773  0.86335  0.88413  1.0000
  H   H5932     1.0  0.63769  0.87485  0.86681  1.0000
  H   H5933     1.0  0.60641  0.87734  0.86987  1.0000
  H   H5934     1.0  0.60996  0.85464  0.87503  1.0000
  H   H5935     1.0  0.59434  0.86663  0.88912  1.0000
  H   H5936     1.0  0.60367  0.88256  0.90461  1.0000
  H   H5937     1.0  0.61731  0.89218  0.88582  1.0000
  H   H5938     1.0  0.62599  0.88003  0.90375  1.0000
  H   H5939     1.0  0.62357  0.83820  0.89925  1.0000
  H   H5940     1.0  0.60811  0.85095  0.91285  1.0000
  H   H5941     1.0  0.63050  0.84912  0.91097  1.0000
  H   H5942     1.0  0.83047  0.51116  0.86557  1.0000
  H   H5943     1.0  0.86864  0.61058  0.85615  1.0000
  H   H5944     1.0  0.69070  0.60916  0.94793  1.0000
  H   H5945     1.0  0.63057  0.53473  0.97967  1.0000
  H   H5946     1.0  0.89509  0.58999  0.74849  1.0000
  H   H5947     1.0  0.55475  0.52726  0.78147  1.0000
  H   H5948     1.0  0.86300  0.62628  0.86864  1.0000
  H   H5949     1.0  0.91402  0.97758  0.82550  1.0000
  C   C3756     1.0  0.77669  0.49764  0.89720  1.0000
  C   C3757     1.0  0.70780  0.96300  0.90939  1.0000
  H   H5950     1.0  0.98088  0.84274  0.85319  1.0000
  H   H5951     1.0  0.98254  0.86749  0.95327  1.0000
  C   C3758     1.0  0.56904  0.63285  0.97538  1.0000
  H   H5952     1.0  0.74257  0.61429  0.92677  1.0000
  C   C3759     1.0  0.98300  0.93168  0.77709  1.0000
  C   C3760     1.0  0.61307  0.65034  0.96136  1.0000
  H   H5953     1.0  0.57650  0.53097  0.84724  1.0000
  H   H5954     1.0  0.98285  0.74616  0.95621  1.0000
  H   H5955     1.0  0.97197  0.95538  0.80688  1.0000
  H   H5956     1.0  0.87905  0.61370  0.96430  1.0000
  H   H5957     1.0  0.68238  0.98791  0.92015  1.0000
  C   C3761     1.0  0.95346  0.51347  0.81449  1.0000
  H   H5958     1.0  0.60315  0.92208  0.77730  1.0000
  H   H5959     1.0  0.71108  0.51646  0.87767  1.0000
  N   N367      1.0  0.81684  0.52669  0.96336  1.0000
  H   H5960     1.0  0.92278  0.79484  0.96656  1.0000
  C   C3762     1.0  0.97360  0.49319  0.83002  1.0000
  C   C3763     1.0  0.98336  0.51490  0.80662  1.0000
  C   C3764     1.0  0.56237  0.76871  0.98346  1.0000
  H   H5961     1.0  0.84316  0.60815  0.98340  1.0000
  H   H5962     1.0  0.63705  0.63929  0.79313  1.0000
  H   H5963     1.0  0.63027  0.61589  0.77420  1.0000
  H   H5964     1.0  0.99691  0.50774  0.80551  1.0000
  C   C3765     1.0  0.98217  0.79871  0.93512  1.0000
  N   N368      1.0  0.71564  0.61482  0.93683  1.0000
  C   C3766     1.0  0.71355  0.62584  0.94860  1.0000
  C   C3767     1.0  0.70435  0.60257  0.94462  1.0000
  C   C3768     1.0  0.73368  0.60552  0.93322  1.0000
  C   C3769     1.0  0.71095  0.62537  0.92088  1.0000
  H   H5965     1.0  0.61338  0.97052  0.77282  1.0000
  H   H5966     1.0  0.99581  0.61785  0.74269  1.0000
  H   H5967     1.0  0.70008  0.63316  0.95142  1.0000
  H   H5968     1.0  0.96431  0.87172  0.98151  1.0000
  H   H5969     1.0  0.88398  0.60833  0.75716  1.0000
  H   H5970     1.0  0.70515  0.59439  0.93590  1.0000
  H   H5971     1.0  0.73552  0.59678  0.92476  1.0000
  H   H5972     1.0  0.88412  0.62235  0.85536  1.0000
  H   H5973     1.0  0.99232  0.58180  0.87171  1.0000
  H   H5974     1.0  0.98115  0.52380  0.81506  1.0000
  H   H5975     1.0  0.71227  0.61748  0.91174  1.0000
  H   H5976     1.0  0.92292  0.82740  0.97588  1.0000
  N   N369      1.0  0.59061  0.52908  0.86589  1.0000
  C   C3770     1.0  0.59206  0.54700  0.86042  1.0000
  C   C3771     1.0  0.57560  0.52745  0.88011  1.0000
  C   C3772     1.0  0.60634  0.51850  0.87142  1.0000
  C   C3773     1.0  0.58839  0.52346  0.85158  1.0000
  H   H5977     1.0  0.58033  0.55524  0.85627  1.0000
  H   H5978     1.0  0.60317  0.54886  0.84964  1.0000
  C   C3774     1.0  0.60894  0.68045  0.95874  1.0000
  H   H5979     1.0  0.86002  0.57460  0.78237  1.0000
  H   H5980     1.0  0.98656  0.54670  0.82819  1.0000
  H   H5981     1.0  0.97784  0.63589  0.85828  1.0000
  H   H5982     1.0  0.61790  0.51942  0.86099  1.0000
  H   H5983     1.0  0.60563  0.50487  0.87564  1.0000
  C   C3775     1.0  0.87842  0.59231  0.78976  1.0000
  H   H5984     1.0  0.59937  0.52473  0.84056  1.0000
  C   C3776     1.0  0.98691  0.60771  0.84548  1.0000
  H   H5985     1.0  0.89002  0.59397  0.79276  1.0000
  N   N370      1.0  0.87105  0.86551  0.88336  1.0000
  C   C3777     1.0  0.87676  0.87066  0.86479  1.0000
  C   C3778     1.0  0.87715  0.87536  0.89176  1.0000
  H   H5986     1.0  0.89096  0.86913  0.86089  1.0000
  H   H5987     1.0  0.87308  0.86291  0.85809  1.0000
  H   H5988     1.0  0.87098  0.88416  0.86003  1.0000
  H   H5989     1.0  0.87377  0.83939  0.88292  1.0000
  H   H5990     1.0  0.89139  0.87329  0.88851  1.0000
  H   H5991     1.0  0.87192  0.88921  0.88792  1.0000
  S   S1528     1.0  0.54192  0.86112  0.91886  1.0000
  H   H5992     1.0  0.81353  0.93719  0.96924  1.0000
  H   H5993     1.0  0.50317  0.94060  0.76081  1.0000
  H   H5994     1.0  0.71168  0.55446  0.89223  1.0000
  C   C3779     1.0  0.64870  0.62343  0.97702  1.0000
  C   C3780     1.0  0.58338  0.91362  0.97894  1.0000
  H   H5995     1.0  0.87937  0.95121  0.81943  1.0000
  H   H5996     1.0  0.70469  0.96141  0.92339  1.0000
  C   C3781     1.0  0.61628  0.95931  0.76705  1.0000
  H   H5997     1.0  0.52420  0.92213  0.74205  1.0000
  S   S1529     1.0  0.92720  0.90188  0.74107  1.0000
  H   H5998     1.0  0.99824  0.91260  0.80261  1.0000
  H   H5999     1.0  0.68620  0.98035  0.87764  1.0000
  C   C3782     1.0  0.53647  0.92570  0.73852  1.0000
  H   H6000     1.0  0.57687  0.53154  0.89112  1.0000
  H   H6001     1.0  0.70768  0.98087  0.87766  1.0000
  H   H6002     1.0  0.99391  0.93740  0.76886  1.0000
  C   C3783     1.0  0.74112  0.87274  0.91427  1.0000
  H   H6003     1.0  0.58398  0.95858  0.76714  1.0000
  H   H6004     1.0  0.59109  0.63891  0.79922  1.0000
  H   H6005     1.0  0.69742  0.63259  0.92311  1.0000
  H   H6006     1.0  0.70778  0.59408  0.95645  1.0000
  H   H6007     1.0  0.92505  0.95594  0.80784  1.0000
  H   H6008     1.0  0.99831  0.72713  0.92751  1.0000
  C   C3784     1.0  0.88546  0.69251  0.96788  1.0000
  H   H6009     1.0  0.75201  0.86511  0.88362  1.0000
  C   C3785     1.0  0.90292  0.71237  0.95051  1.0000
  H   H6010     1.0  0.74037  0.87978  0.92399  1.0000
  N   N371      1.0  0.56175  0.91520  0.88868  1.0000
  C   C3786     1.0  0.55961  0.89959  0.90173  1.0000
  C   C3787     1.0  0.57957  0.91734  0.88519  1.0000
  C   C3788     1.0  0.54983  0.93000  0.89480  1.0000
  C   C3789     1.0  0.55792  0.91394  0.87297  1.0000
  H   H6011     1.0  0.56798  0.88808  0.89739  1.0000
  H   H6012     1.0  0.54618  0.89777  0.90489  1.0000
  H   H6013     1.0  0.56263  0.89988  0.91371  1.0000
  H   H6014     1.0  0.58884  0.90679  0.87986  1.0000
  H   H6015     1.0  0.58143  0.92930  0.87575  1.0000
  H   H6016     1.0  0.58313  0.91790  0.89685  1.0000
  H   H6017     1.0  0.55098  0.94198  0.88516  1.0000
  H   H6018     1.0  0.55246  0.93142  0.90657  1.0000
  H   H6019     1.0  0.53625  0.92876  0.89765  1.0000
  H   H6020     1.0  0.55940  0.92551  0.86281  1.0000
  H   H6021     1.0  0.54454  0.91236  0.87514  1.0000
  H   H6022     1.0  0.56658  0.90286  0.86796  1.0000
  C   C3790     1.0  0.85210  0.86879  0.88803  1.0000
  N   N372      1.0  0.97925  0.93442  0.79448  1.0000
  H   H6023     1.0  0.86937  0.72124  0.95015  1.0000
  H   H6024     1.0  0.62488  0.49756  0.95475  1.0000
  Fe  Fe767     1.0  0.52904  0.50038  0.80305  1.0000
  H   H6025     1.0  0.99492  0.83208  0.97243  1.0000
  H   H6026     1.0  0.87181  0.58435  0.80131  1.0000
  N   N373      1.0  0.88293  0.58447  0.77494  1.0000
  N   N374      1.0  0.85939  0.62413  0.98366  1.0000
  H   H6027     1.0  0.95422  0.72609  0.96828  1.0000
  H   H6028     1.0  0.99517  0.79664  0.93653  1.0000
  H   H6029     1.0  0.89511  0.72449  0.97859  1.0000
  H   H6030     1.0  0.99015  0.61903  0.83577  1.0000
  S   S1530     1.0  0.55232  0.64941  0.98173  1.0000
  H   H6031     1.0  0.55052  0.51696  0.75739  1.0000
  H   H6032     1.0  0.62681  0.98694  0.90452  1.0000
  H   H6033     1.0  0.87454  0.69011  0.97872  1.0000
  C   C3791     1.0  0.50146  0.93792  0.78737  1.0000
  C   C3792     1.0  0.96344  0.82949  0.88392  1.0000
  C   C3793     1.0  0.56142  0.61318  0.74660  1.0000
  H   H6034     1.0  0.95291  0.93250  0.79977  1.0000
  H   H6035     1.0  0.61138  0.63789  0.96989  1.0000
  H   H6036     1.0  0.57393  0.51415  0.88453  1.0000
  H   H6037     1.0  0.57017  0.56159  0.74766  1.0000
  H   H6038     1.0  0.96241  0.82398  0.87370  1.0000
  H   H6039     1.0  0.58660  0.91283  0.96540  1.0000
  H   H6040     1.0  0.98701  0.77616  0.92550  1.0000
  H   H6041     1.0  0.75411  0.84588  0.89960  1.0000
  H   H6042     1.0  0.53697  0.88747  0.86056  1.0000
  C   C3794     1.0  0.99455  0.92652  0.80185  1.0000
  C   C3795     1.0  0.71624  0.54390  0.88539  1.0000
  H   H6043     1.0  0.86976  0.60505  0.78758  1.0000
  H   H6044     1.0  0.87360  0.63638  0.96023  1.0000
  H   H6045     1.0  0.90411  0.70216  0.98349  1.0000
  H   H6046     1.0  0.78020  0.87842  0.89011  1.0000
  H   H6047     1.0  0.56366  0.54555  0.77662  1.0000
  H   H6048     1.0  0.76618  0.88996  0.90546  1.0000
  H   H6049     1.0  0.60118  0.63945  0.81538  1.0000
  H   H6050     1.0  0.97466  0.62510  0.88018  1.0000
  C   C3796     1.0  0.86818  0.62480  0.96573  1.0000
  H   H6051     1.0  0.84404  0.97221  0.83271  1.0000
  C   C3797     1.0  0.72353  0.52330  0.91009  1.0000
  N   N375      1.0  0.60648  0.66425  0.97062  1.0000
  C   C3798     1.0  0.92903  0.97424  0.78432  1.0000
  H   H6052     1.0  0.73782  0.59771  0.94498  1.0000
  C   C3799     1.0  0.55226  0.60027  0.75362  1.0000
  H   H6053     1.0  0.79375  0.89808  0.96733  1.0000
  N   N376      1.0  0.83506  0.92673  0.98126  1.0000
  H   H6054     1.0  0.83365  0.52481  0.97953  1.0000
  Fe  Fe768     1.0  0.55588  0.82296  0.97324  1.0000
  H   H6055     1.0  0.60720  0.95144  0.80126  1.0000
  S   S1531     1.0  0.52032  0.69015  0.96641  1.0000
  H   H6056     1.0  0.95111  0.52113  0.80195  1.0000
  H   H6057     1.0  0.59378  0.55176  0.87083  1.0000
  H   H6058     1.0  0.98542  0.95906  0.78604  1.0000
  C   C3800     1.0  0.99388  0.86506  0.95890  1.0000
  C   C3801     1.0  0.89413  0.59023  0.87119  1.0000
  H   H6059     1.0  0.52691  0.76927  0.94514  1.0000
  H   H6060     1.0  0.55632  0.52846  0.73615  1.0000
  C   C3802     1.0  0.97477  0.95282  0.79400  1.0000
  H   H6061     1.0  0.71669  0.61830  0.96089  1.0000
  N   N377      1.0  0.71346  0.52761  0.89691  1.0000
  H   H6062     1.0  0.97300  0.84326  0.97464  1.0000
  H   H6063     1.0  0.82507  0.95280  0.98319  1.0000
  C   C3803     1.0  0.83518  0.50843  0.85264  1.0000
  H   H6064     1.0  0.83926  0.53594  0.94827  1.0000
  C   C3804     1.0  0.92397  0.96923  0.80190  1.0000
  C   C3805     1.0  0.78400  0.92203  0.97497  1.0000
  H   H6065     1.0  0.87194  0.95793  0.83917  1.0000
  H   H6066     1.0  0.86160  0.72083  0.97237  1.0000
  H   H6067     1.0  0.97004  0.59223  0.87531  1.0000
  H   H6068     1.0  0.71294  0.95014  0.90660  1.0000
  H   H6069     1.0  0.60614  0.65220  0.79445  1.0000
  H   H6070     1.0  0.79906  0.52309  0.95091  1.0000
  C   C3806     1.0  0.98414  0.73123  0.93150  1.0000
  H   H6071     1.0  0.87456  0.73559  0.95927  1.0000
  H   H6072     1.0  0.97393  0.60675  0.84502  1.0000
  S   S1532     1.0  0.95313  0.59283  0.73836  1.0000
  H   H6073     1.0  0.97824  0.72639  0.92390  1.0000
  C   C3807     1.0  0.54033  0.76320  0.94425  1.0000
  H   H6074     1.0  0.93183  0.56792  0.75257  1.0000
  C   C3808     1.0  0.67910  0.96184  0.90931  1.0000
  H   H6075     1.0  0.85047  0.96536  0.81309  1.0000
  C   C3809     1.0  0.76655  0.88213  0.89659  1.0000
  H   H6076     1.0  0.57998  0.94496  0.78748  1.0000
  H   H6077     1.0  0.71927  0.63470  0.91459  1.0000
  H   H6078     1.0  0.87431  0.84294  0.90287  1.0000
  H   H6079     1.0  0.99619  0.59632  0.84162  1.0000
  H   H6080     1.0  0.84632  0.88253  0.88415  1.0000
  C   C3810     1.0  0.53927  0.87571  0.88621  1.0000
  H   H6081     1.0  0.57267  0.51646  0.74759  1.0000
  H   H6082     1.0  0.97866  0.70107  0.96774  1.0000
  H   H6083     1.0  0.95051  0.52246  0.82300  1.0000
  C   C3811     1.0  0.88561  0.61122  0.88832  1.0000
  C   C3812     1.0  0.80519  0.51685  0.96192  1.0000
  H   H6084     1.0  0.82475  0.53508  0.93642  1.0000
  H   H6085     1.0  0.87707  0.97122  0.79274  1.0000
  N   N378      1.0  0.97808  0.72498  0.94985  1.0000
  N   N379      1.0  0.87974  0.60313  0.87802  1.0000
  N   N380      1.0  0.97124  0.50339  0.81314  1.0000
  S   S1533     1.0  0.94410  0.68937  0.97312  1.0000
  H   H6086     1.0  0.95233  0.84036  0.88545  1.0000
  H   H6087     1.0  0.97964  0.83275  0.90609  1.0000
  H   H6088     1.0  0.84695  0.86164  0.88193  1.0000
  S   S1534     1.0  0.97649  0.82889  0.94443  1.0000
  H   H6089     1.0  0.53973  0.91971  0.76429  1.0000
  N   N381      1.0  0.89677  0.76743  0.85972  1.0000
  C   C3813     1.0  0.89262  0.75095  0.86123  1.0000
  C   C3814     1.0  0.91524  0.76487  0.85916  1.0000
  C   C3815     1.0  0.88656  0.77470  0.87446  1.0000
  C   C3816     1.0  0.89269  0.77926  0.84405  1.0000
  H   H6090     1.0  0.90031  0.74488  0.85049  1.0000
  H   H6091     1.0  0.87881  0.75238  0.86153  1.0000
  H   H6092     1.0  0.89531  0.74185  0.87308  1.0000
  H   H6093     1.0  0.91875  0.77706  0.85824  1.0000
  H   H6094     1.0  0.91883  0.75587  0.87071  1.0000
  H   H6095     1.0  0.92335  0.75956  0.84808  1.0000
  H   H6096     1.0  0.88966  0.76638  0.88646  1.0000
  H   H6097     1.0  0.87255  0.77639  0.87560  1.0000
  H   H6098     1.0  0.88908  0.78731  0.87356  1.0000
  H   H6099     1.0  0.89578  0.79178  0.84261  1.0000
  H   H6100     1.0  0.87882  0.78161  0.84408  1.0000
  H   H6101     1.0  0.90015  0.77420  0.83263  1.0000
  N   N382      1.0  0.61747  0.62557  0.79668  1.0000
  C   C3817     1.0  0.61316  0.60919  0.80647  1.0000
  C   C3818     1.0  0.61984  0.62639  0.77842  1.0000
  C   C3819     1.0  0.63344  0.62702  0.80020  1.0000
  C   C3820     1.0  0.60337  0.63965  0.80167  1.0000
  H   H6102     1.0  0.61111  0.60814  0.82032  1.0000
  H   H6103     1.0  0.62354  0.59826  0.80314  1.0000
  H   H6104     1.0  0.60125  0.60761  0.80399  1.0000
  H   H6105     1.0  0.60791  0.62536  0.77545  1.0000
  H   H6106     1.0  0.62308  0.63859  0.77060  1.0000
  H   H6107     1.0  0.84235  0.98749  0.81318  1.0000
  H   H6108     1.0  0.90433  0.72579  0.94683  1.0000
  H   H6109     1.0  0.98157  0.60506  0.74282  1.0000
  C   C3821     1.0  0.98140  0.84775  0.86396  1.0000
  H   H6110     1.0  0.69052  0.53914  0.91264  1.0000
  H   H6111     1.0  0.96332  0.95921  0.78849  1.0000
  H   H6112     1.0  0.55790  0.77987  0.97377  1.0000
  C   C3822     1.0  0.98595  0.73203  0.95942  1.0000
  H   H6113     1.0  0.70207  0.96100  0.88003  1.0000
  H   H6114     1.0  0.98205  0.52275  0.79385  1.0000
  C   C3823     1.0  0.79001  0.90443  0.97779  1.0000
  H   H6115     1.0  0.83226  0.50479  0.97656  1.0000
  C   C3824     1.0  0.55962  0.52481  0.74881  1.0000
  H   H6116     1.0  0.89129  0.96294  0.82492  1.0000
  H   H6117     1.0  0.68349  0.94902  0.90627  1.0000
  H   H6118     1.0  0.83805  0.51582  0.94538  1.0000
  C   C3825     1.0  0.83034  0.52841  0.94770  1.0000
  C   C3826     1.0  0.57031  0.55032  0.74302  1.0000
  H   H6119     1.0  0.85925  0.62502  0.95788  1.0000
  H   H6120     1.0  0.83572  0.63977  0.97752  1.0000
  H   H6121     1.0  0.58052  0.66768  0.96832  1.0000
  H   H6122     1.0  0.83155  0.50275  0.82418  1.0000
  C   C3827     1.0  0.85044  0.97565  0.81913  1.0000
  C   C3828     1.0  0.91777  0.98147  0.81188  1.0000
  H   H6123     1.0  0.91428  0.81588  0.95572  1.0000
  H   H6124     1.0  0.62983  0.66035  0.97890  1.0000
  C   C3829     1.0  0.98314  0.59352  0.87492  1.0000
  H   H6125     1.0  0.95650  0.93615  0.74298  1.0000
  H   H6126     1.0  0.89311  0.83603  0.97136  1.0000
  C   C3830     1.0  0.99424  0.81996  0.87823  1.0000
  C   C3831     1.0  0.91868  0.65166  0.98183  1.0000
  H   H6127     1.0  0.85011  0.65114  0.97995  1.0000
  N   N383      1.0  0.98746  0.60887  0.86255  1.0000
  S   S1535     1.0  0.75989  0.49088  0.89389  1.0000
  H   H6128     1.0  0.90105  0.80062  0.96375  1.0000
  H   H6129     1.0  0.85048  0.90198  0.97897  1.0000
  C   C3832     1.0  0.87622  0.98164  0.79899  1.0000
  C   C3833     1.0  0.58802  0.66525  0.97818  1.0000
  H   H6130     1.0  0.57045  0.92206  0.98139  1.0000
  H   H6131     1.0  0.99378  0.85196  0.86065  1.0000
  H   H6132     1.0  0.50587  0.61758  0.73835  1.0000
  C   C3834     1.0  0.91113  0.80528  0.96649  1.0000
  H   H6133     1.0  0.89694  0.68269  0.97068  1.0000
  H   H6134     1.0  0.82371  0.91570  0.96788  1.0000
  C   C3835     1.0  0.92646  0.66341  0.98439  1.0000
  C   C3836     1.0  0.89001  0.82509  0.98174  1.0000
  S   S1536     1.0  0.54430  0.59200  0.74095  1.0000
  H   H6135     1.0  0.50350  0.62718  0.84990  1.0000
  H   H6136     1.0  0.99725  0.70174  0.95056  1.0000
  C   C3837     1.0  0.99741  0.55263  0.82496  1.0000
  C   C3838     1.0  0.85192  0.91489  0.97858  1.0000
  C   C3839     1.0  0.80701  0.54372  0.96590  1.0000
  C   C3840     1.0  0.61589  0.66094  0.98417  1.0000
  H   H6137     1.0  0.81547  0.55149  0.96695  1.0000
  H   H6138     1.0  0.50462  0.60276  0.75820  1.0000
  H   H6139     1.0  0.86142  0.98911  0.83877  1.0000
  H   H6140     1.0  0.87935  0.82123  0.97910  1.0000
  H   H6141     1.0  0.52710  0.96222  0.73596  1.0000
  N   N384      1.0  0.90515  0.81091  0.98270  1.0000
  H   H6142     1.0  0.79677  0.54294  0.97769  1.0000
  H   H6143     1.0  0.97995  0.88081  0.98507  1.0000
  H   H6144     1.0  0.58252  0.67561  0.98527  1.0000
