data_image0
_chemical_formula_structural       FeS2FeHSFeCHCS2HCFeCHCHCHNSH7CSH2SH5CHSH4C6SHFeH3CHC3SCHNH2CH2CHC2H2C2H2SHFeH3SH3CH2C3HCH2C2HCH5SCH2CH2NH3CHC4HCNH2SH2CHFeHCNH4CH5CSCSFeHFeS2FeCFeHS2HC3H3CSC3HNCH2CH3CH3C3HFeS2FeS2FeSFeHS2NC3H2CH3C2HC4HCHCHCH2C3H6CH2CH3NCH2CH6CHCHC2HC2HCHC2HSHSHCH2CH2C2FeS2H2NH2NHSH3FeCH4SCHCFeSHCHCFe2S2FeS3HNH2CH2NC3H4C6H9CH4CFeH5C2HSHFeC2SFeH2SHSHC2H3C3HC2H2NH2C2S2HS2CH5CFeS2FeHFeHSCSHS2FeCH2SH2CH2C2H4C6H3SC3HNCHC2H2CH5CH3SCH3CHCFeH2C2NSFeS2FeS2FeSFeS3CHC3SCHCHNC6H3CHCHCH3NHCH2CHCHSC2H2CH6C3HCH6CH5NHC2HCHC2H3SFeSHC2H2CHCH2C2H2CSHCHSHNFeH3C3FeCH2NCSHSCH2CSHCH3C2H6SC3HC2H2CHCH2CFeSFeSNFe2SHCHCHCH5CSH6C2HCHCH2SH3SHFeSCFeHFeSHSHC2H2CHCH2CHSCHNHCHCH2SH6CHCFeN2CH5C2HSC2H2CH3NHCHCHC2HC2H2CSHS2FeSCFe2SH2CH3SHCH2FeSHC3HCH3SH7SCH2CNHCH5FeSCHSH2SHCFeC4SHS3H2C4H2FeC2HC6H4NH2C4H3NH2FeHCHC2H3SCSHFeCH8CH2CH2SHSHNC3HCHFeCSH2NH2Fe2SC3H4FeSCFeS2FeSFeS3CH3CHNH3C2H2C6HCH2SCHSHC2H2C2HSH2CH2C2H3CH4SHCH6CH3FeSHFeSHFeHFeS3HSHCHFeSH2C2HC3SHNHC6H5C2H3SH4FeHSC4HFeNHCH2C2HCH3CHCHSHC2SHCH2SH9C2FeSFeS2FeSFeHS3H6C7H3C3H2CNH5C3H2CH2CH2SCH2FeCH6C2HNCHCNCHSH3CH5C3NH2SH3SH2SH5FeS2FeS2FeSFeS2HC2HC2H3C2H2C10H12CNHCH3CHC2H2FeH5CHCFe2S2FeSCFeSFeS3H2SC2SH2NHSHC7H2CHC3H2CH16CH3CH2C3HSCFeH2C5H2SNH2CHFeHCNHSC2FeH6CH2C2HSH3FeS2FeS2FeCFeCS2H5CH4CHCHC4HCSHC2H2CS2H2NHCH2CH2CHSH3CH2C3NCH2SC2HCH2CHNHCHFeS3H2C4HCH3CFeH3CSHSFeS2HSC2S2CHCH3FeCFeHC6H5CHCHNH3CHCHNSHC2HC2FeH3SH6C2H6FeC2H5CNH2CSNCHC
_chemical_formula_sum              "Fe96 S192 H768 C480 N48"
_cell_length_a       37.3851
_cell_length_b       38.7375
_cell_length_c       36.4808
_cell_angle_alpha    90.3423
_cell_angle_beta     90.1101
_cell_angle_gamma    89.8958

_space_group_name_H-M_alt    "P 1"
_space_group_IT_number       1

loop_
  _space_group_symop_operation_xyz
  'x, y, z'

loop_
  _atom_site_type_symbol
  _atom_site_label
  _atom_site_symmetry_multiplicity
  _atom_site_fract_x
  _atom_site_fract_y
  _atom_site_fract_z
  _atom_site_occupancy
  Fe  Fe1       1.0  0.27426  0.20658  0.40988  1.0000
  S   S1        1.0  0.31376  0.22469  0.45185  1.0000
  S   S2        1.0  0.23163  0.24103  0.38677  1.0000
  Fe  Fe2       1.0  0.30535  0.13418  0.40808  1.0000
  H   H1        1.0  0.44688  0.21362  0.06959  1.0000
  S   S3        1.0  0.30588  0.08030  0.38596  1.0000
  Fe  Fe3       1.0  0.30264  0.17406  0.47887  1.0000
  C   C1        1.0  0.16382  0.20526  0.45779  1.0000
  H   H2        1.0  0.25289  0.22116  0.49399  1.0000
  C   C2        1.0  0.22820  0.25646  0.53191  1.0000
  S   S4        1.0  0.25999  0.15788  0.43932  1.0000
  S   S5        1.0  0.31475  0.18098  0.37381  1.0000
  H   H3        1.0  0.18236  0.26982  0.44435  1.0000
  C   C3        1.0  0.24752  0.22667  0.52241  1.0000
  Fe  Fe4       1.0  0.35351  0.19547  0.41812  1.0000
  C   C4        1.0  0.32647  0.26824  0.32830  1.0000
  H   H4        1.0  0.11903  0.20781  0.40003  1.0000
  C   C5        1.0  0.13138  0.23273  0.40843  1.0000
  H   H5        1.0  0.09167  0.20515  0.46187  1.0000
  C   C6        1.0  0.35104  0.07107  0.37808  1.0000
  H   H6        1.0  0.18942  0.20721  0.44235  1.0000
  N   N1        1.0  0.13909  0.23367  0.44821  1.0000
  S   S6        1.0  0.28924  0.17034  0.53862  1.0000
  H   H7        1.0  0.29656  0.24320  0.26673  1.0000
  H   H8        1.0  0.35779  0.11259  0.33987  1.0000
  H   H9        1.0  0.53911  0.22925  0.24176  1.0000
  H   H10       1.0  0.32008  0.03852  0.32037  1.0000
  H   H11       1.0  0.15206  0.17959  0.45123  1.0000
  H   H12       1.0  0.21998  0.27414  0.51079  1.0000
  H   H13       1.0  0.33888  0.24334  0.31965  1.0000
  C   C7        1.0  0.37066  0.09126  0.35366  1.0000
  S   S7        1.0  0.40404  0.22129  0.40041  1.0000
  H   H14       1.0  0.26279  0.26302  0.29491  1.0000
  H   H15       1.0  0.08624  0.25116  0.46242  1.0000
  S   S8        1.0  0.34745  0.14655  0.44996  1.0000
  H   H16       1.0  0.11005  0.23034  0.49894  1.0000
  H   H17       1.0  0.15618  0.23603  0.39201  1.0000
  H   H18       1.0  0.15992  0.26954  0.48794  1.0000
  H   H19       1.0  0.46670  0.14640  0.43129  1.0000
  H   H20       1.0  0.54535  0.19498  0.29820  1.0000
  C   C8        1.0  0.10531  0.22986  0.46881  1.0000
  H   H21       1.0  0.39864  0.15484  0.28623  1.0000
  S   S9        1.0  0.46547  0.04104  0.34969  1.0000
  H   H22       1.0  0.38958  0.16352  0.35303  1.0000
  H   H23       1.0  0.35651  0.27014  0.26150  1.0000
  H   H24       1.0  0.42092  0.09773  0.32571  1.0000
  H   H25       1.0  0.53238  0.13776  0.42434  1.0000
  C   C9        1.0  0.42235  0.05425  0.36233  1.0000
  C   C10       1.0  0.15584  0.26703  0.45782  1.0000
  C   C11       1.0  0.40382  0.17979  0.29864  1.0000
  C   C12       1.0  0.26053  0.20470  0.54975  1.0000
  C   C13       1.0  0.39879  0.18463  0.33639  1.0000
  C   C14       1.0  0.41645  0.20694  0.27717  1.0000
  S   S10       1.0  0.49745  0.24123  0.16220  1.0000
  H   H26       1.0  0.51465  0.14692  0.32495  1.0000
  Fe  Fe5       1.0  0.45542  0.24462  0.20612  1.0000
  H   H27       1.0  0.17077  0.20569  0.48750  1.0000
  H   H28       1.0  0.11265  0.25383  0.40041  1.0000
  H   H29       1.0  0.43952  0.15263  0.39164  1.0000
  C   C15       1.0  0.40635  0.08287  0.34572  1.0000
  H   H30       1.0  0.30399  0.26182  0.34700  1.0000
  C   C16       1.0  0.46397  0.13942  0.40179  1.0000
  C   C17       1.0  0.42210  0.23932  0.29333  1.0000
  C   C18       1.0  0.41861  0.24375  0.33128  1.0000
  S   S11       1.0  0.42662  0.19967  0.23081  1.0000
  C   C19       1.0  0.40725  0.21625  0.35287  1.0000
  H   H31       1.0  0.50471  0.19531  0.41304  1.0000
  N   N2        1.0  0.49591  0.14954  0.38058  1.0000
  H   H32       1.0  0.47827  0.20183  0.37272  1.0000
  H   H33       1.0  0.42878  0.26110  0.27667  1.0000
  C   C20       1.0  0.50145  0.18721  0.38392  1.0000
  H   H34       1.0  0.45898  0.11113  0.39991  1.0000
  H   H35       1.0  0.48575  0.11214  0.33803  1.0000
  C   C21       1.0  0.40297  0.03470  0.38755  1.0000
  H   H36       1.0  0.52410  0.10268  0.39287  1.0000
  C   C22       1.0  0.36724  0.04290  0.39519  1.0000
  C   C23       1.0  0.49077  0.14025  0.34157  1.0000
  H   H37       1.0  0.52572  0.19562  0.36874  1.0000
  H   H38       1.0  0.46752  0.15413  0.32955  1.0000
  C   C24       1.0  0.52758  0.13118  0.39500  1.0000
  C   C25       1.0  0.28603  0.26846  0.27672  1.0000
  H   H39       1.0  0.42413  0.26857  0.34379  1.0000
  H   H40       1.0  0.54537  0.03425  0.35794  1.0000
  S   S12       1.0  0.48674  0.28124  0.24105  1.0000
  H   H41       1.0  0.55220  0.13825  0.37962  1.0000
  Fe  Fe6       1.0  0.52591  0.28179  0.19516  1.0000
  H   H42       1.0  0.34680  0.28270  0.34457  1.0000
  H   H43       1.0  0.29272  0.28092  0.41348  1.0000
  H   H44       1.0  0.27578  0.28292  0.25255  1.0000
  S   S13       1.0  0.21745  0.20118  0.72776  1.0000
  H   H45       1.0  0.34244  0.21411  0.69056  1.0000
  H   H46       1.0  0.27554  0.11224  0.69916  1.0000
  H   H47       1.0  0.07886  0.26531  0.79466  1.0000
  C   C26       1.0  0.31418  0.06349  0.76288  1.0000
  H   H48       1.0  0.30376  0.15970  0.63985  1.0000
  H   H49       1.0  0.31407  0.08324  0.74212  1.0000
  C   C27       1.0  0.26310  0.19069  0.72871  1.0000
  C   C28       1.0  0.27583  0.16647  0.75389  1.0000
  C   C29       1.0  0.31271  0.16036  0.75715  1.0000
  H   H50       1.0  0.47699  0.15289  0.99590  1.0000
  C   C30       1.0  0.28712  0.20704  0.70522  1.0000
  H   H51       1.0  0.25731  0.15304  0.77154  1.0000
  H   H52       1.0  0.27743  0.22425  0.68435  1.0000
  C   C31       1.0  0.25140  0.21095  0.58629  1.0000
  C   C32       1.0  0.26887  0.10712  0.60637  1.0000
  H   H53       1.0  0.35917  0.23106  0.83590  1.0000
  C   C33       1.0  0.30486  0.07226  0.64680  1.0000
  H   H54       1.0  0.26074  0.19395  0.60759  1.0000
  H   H55       1.0  0.25522  0.13230  0.60198  1.0000
  H   H56       1.0  0.12530  0.21113  0.72527  1.0000
  H   H57       1.0  0.11884  0.17807  0.78197  1.0000
  H   H58       1.0  0.12611  0.25111  0.75035  1.0000
  S   S14       1.0  0.36186  0.14577  0.84184  1.0000
  C   C34       1.0  0.05807  0.19322  0.74546  1.0000
  H   H59       1.0  0.32468  0.06676  0.62482  1.0000
  H   H60       1.0  0.28538  0.21722  0.80561  1.0000
  C   C35       1.0  0.23101  0.24001  0.59562  1.0000
  H   H61       1.0  0.28462  0.05119  0.64628  1.0000
  H   H62       1.0  0.22385  0.24423  0.62380  1.0000
  N   N3        1.0  0.31564  0.26297  0.81749  1.0000
  H   H63       1.0  0.35512  0.08821  0.79443  1.0000
  H   H64       1.0  0.37181  0.26476  0.80476  1.0000
  H   H65       1.0  0.33500  0.13023  0.61967  1.0000
  C   C36       1.0  0.32392  0.20082  0.70836  1.0000
  H   H66       1.0  0.24873  0.13827  0.66925  1.0000
  C   C37       1.0  0.33744  0.06640  0.79279  1.0000
  C   C38       1.0  0.26210  0.11269  0.67194  1.0000
  C   C39       1.0  0.33685  0.17806  0.73489  1.0000
  C   C40       1.0  0.38033  0.27595  0.93858  1.0000
  H   H67       1.0  0.50757  0.22613  0.99037  1.0000
  C   C41       1.0  0.31568  0.13352  0.64262  1.0000
  N   N4        1.0  0.28788  0.10642  0.64193  1.0000
  H   H68       1.0  0.24098  0.09248  0.67255  1.0000
  H   H69       1.0  0.40826  0.22207  0.99649  1.0000
  S   S15       1.0  0.16224  0.26722  0.67067  1.0000
  H   H70       1.0  0.32231  0.14184  0.77676  1.0000
  H   H71       1.0  0.31895  0.07056  0.67367  1.0000
  C   C42       1.0  0.45944  0.17442  0.98678  1.0000
  H   H72       1.0  0.30145  0.26185  0.76026  1.0000
  Fe  Fe7       1.0  0.20830  0.25519  0.70761  1.0000
  H   H73       1.0  0.41914  0.18195  0.04747  1.0000
  C   C43       1.0  0.49688  0.21681  0.01694  1.0000
  N   N5        1.0  0.45996  0.20358  0.01313  1.0000
  H   H74       1.0  0.43186  0.16411  0.98300  1.0000
  H   H75       1.0  0.09398  0.24493  0.71445  1.0000
  H   H76       1.0  0.12090  0.21745  0.80801  1.0000
  H   H77       1.0  0.29663  0.22294  0.85308  1.0000
  C   C44       1.0  0.53960  0.16308  0.87632  1.0000
  H   H78       1.0  0.49836  0.06378  0.81779  1.0000
  H   H79       1.0  0.24821  0.08653  0.60460  1.0000
  H   H80       1.0  0.49817  0.23873  0.03681  1.0000
  H   H81       1.0  0.51548  0.19645  0.02690  1.0000
  H   H82       1.0  0.33109  0.13317  0.66879  1.0000
  C   C45       1.0  0.29180  0.03485  0.75950  1.0000
  S   S16       1.0  0.38321  0.17333  0.74054  1.0000
  C   C46       1.0  0.28871  0.23687  0.82768  1.0000
  S   S17       1.0  0.36640  0.04624  0.85812  1.0000
  Fe  Fe8       1.0  0.40047  0.15394  0.79578  1.0000
  H   H83       1.0  0.28763  0.10340  0.58297  1.0000
  Fe  Fe9       1.0  0.46466  0.13348  0.84255  1.0000
  S   S18       1.0  0.43082  0.12193  0.89147  1.0000
  S   S19       1.0  0.52408  0.12852  0.84921  1.0000
  Fe  Fe10      1.0  0.39357  0.09735  0.85094  1.0000
  C   C47       1.0  0.10806  0.23174  0.73736  1.0000
  Fe  Fe11      1.0  0.40321  0.17137  0.87687  1.0000
  H   H84       1.0  0.46877  0.18257  0.95919  1.0000
  S   S20       1.0  0.43018  0.10406  0.80291  1.0000
  S   S21       1.0  0.43918  0.18435  0.82998  1.0000
  H   H85       1.0  0.44514  0.24069  0.97224  1.0000
  C   C48       1.0  0.52761  0.21403  0.91354  1.0000
  C   C49       1.0  0.51529  0.18578  0.89294  1.0000
  C   C50       1.0  0.35047  0.24580  0.81133  1.0000
  H   H86       1.0  0.50856  0.23174  0.92551  1.0000
  H   H87       1.0  0.48694  0.18170  0.88986  1.0000
  H   H88       1.0  0.42160  0.24517  0.86235  1.0000
  C   C51       1.0  0.43632  0.23126  0.99950  1.0000
  S   S22       1.0  0.38800  0.20777  0.92224  1.0000
  C   C52       1.0  0.41069  0.26336  0.88165  1.0000
  C   C53       1.0  0.33777  0.04127  0.82013  1.0000
  C   C54       1.0  0.39341  0.25186  0.91326  1.0000
  H   H89       1.0  0.34911  0.22714  0.78811  1.0000
  N   N6        1.0  0.08246  0.21766  0.76416  1.0000
  C   C55       1.0  0.22077  0.26366  0.56873  1.0000
  H   H90       1.0  0.43552  0.25357  0.01865  1.0000
  H   H91       1.0  0.26204  0.24888  0.83247  1.0000
  C   C56       1.0  0.10235  0.19957  0.79338  1.0000
  H   H92       1.0  0.07294  0.17123  0.73294  1.0000
  H   H93       1.0  0.36720  0.26735  0.96331  1.0000
  H   H94       1.0  0.08387  0.18846  0.81407  1.0000
  C   C57       1.0  0.49723  0.04529  0.84102  1.0000
  H   H95       1.0  0.47375  0.05252  0.85816  1.0000
  H   H96       1.0  0.52176  0.04961  0.85779  1.0000
  H   H97       1.0  0.32781  0.27617  0.87351  1.0000
  C   C58       1.0  0.06138  0.24619  0.78043  1.0000
  C   C59       1.0  0.30415  0.28045  0.78350  1.0000
  C   C60       1.0  0.44699  0.19195  0.04927  1.0000
  H   H98       1.0  0.46419  0.17109  0.06059  1.0000
  Fe  Fe12      1.0  0.16945  0.42805  0.29810  1.0000
  S   S23       1.0  0.18985  0.46256  0.34292  1.0000
  S   S24       1.0  0.11078  0.41566  0.29561  1.0000
  Fe  Fe13      1.0  0.24340  0.41856  0.26421  1.0000
  S   S25       1.0  0.26954  0.45252  0.30628  1.0000
  S   S26       1.0  0.27330  0.39088  0.21933  1.0000
  Fe  Fe14      1.0  0.23491  0.42431  0.34621  1.0000
  S   S27       1.0  0.25829  0.40155  0.39756  1.0000
  Fe  Fe15      1.0  0.22198  0.48709  0.29806  1.0000
  H   H99       1.0  0.27899  0.43605  0.15840  1.0000
  S   S28       1.0  0.21207  0.38781  0.30445  1.0000
  S   S29       1.0  0.19816  0.45516  0.25280  1.0000
  N   N7        1.0  0.32461  0.46848  0.14867  1.0000
  C   C61       1.0  0.11606  0.35912  0.38824  1.0000
  C   C62       1.0  0.12453  0.38173  0.35965  1.0000
  C   C63       1.0  0.09917  0.38940  0.33276  1.0000
  H   H100      1.0  0.52035  0.39212  0.25377  1.0000
  H   H101      1.0  0.16970  0.42070  0.47190  1.0000
  C   C64       1.0  0.23932  0.28546  0.39175  1.0000
  H   H102      1.0  0.15066  0.39334  0.35821  1.0000
  H   H103      1.0  0.29048  0.51236  0.27078  1.0000
  H   H104      1.0  0.24936  0.36495  0.48085  1.0000
  C   C65       1.0  0.06474  0.37556  0.33528  1.0000
  C   C66       1.0  0.27163  0.29829  0.40569  1.0000
  H   H105      1.0  0.13609  0.35266  0.40844  1.0000
  C   C67       1.0  0.21258  0.30849  0.38093  1.0000
  C   C68       1.0  0.30130  0.43913  0.13857  1.0000
  C   C69       1.0  0.31904  0.38391  0.22729  1.0000
  C   C70       1.0  0.33521  0.39408  0.26023  1.0000
  H   H106      1.0  0.16294  0.33784  0.52244  1.0000
  C   C71       1.0  0.50521  0.35523  0.31377  1.0000
  H   H107      1.0  0.13894  0.37598  0.50909  1.0000
  C   C72       1.0  0.33977  0.36836  0.19988  1.0000
  H   H108      1.0  0.31945  0.40545  0.28181  1.0000
  C   C73       1.0  0.39274  0.37371  0.23806  1.0000
  H   H109      1.0  0.20650  0.37614  0.55435  1.0000
  H   H110      1.0  0.32746  0.36031  0.17434  1.0000
  C   C74       1.0  0.27733  0.33402  0.40829  1.0000
  C   C75       1.0  0.25086  0.35694  0.39648  1.0000
  C   C76       1.0  0.21839  0.34407  0.38340  1.0000
  H   H111      1.0  0.30257  0.34384  0.41850  1.0000
  H   H112      1.0  0.19764  0.36163  0.37521  1.0000
  H   H113      1.0  0.35756  0.43814  0.18456  1.0000
  H   H114      1.0  0.27552  0.31769  0.32742  1.0000
  H   H115      1.0  0.36579  0.30989  0.28530  1.0000
  H   H116      1.0  0.48887  0.37920  0.31127  1.0000
  C   C77       1.0  0.16090  0.35808  0.50097  1.0000
  H   H117      1.0  0.52116  0.34731  0.24255  1.0000
  H   H118      1.0  0.05801  0.39744  0.24452  1.0000
  C   C78       1.0  0.22383  0.35161  0.48755  1.0000
  H   H119      1.0  0.38439  0.39713  0.29107  1.0000
  H   H120      1.0  0.15250  0.34534  0.47496  1.0000
  H   H121      1.0  0.28904  0.33733  0.28540  1.0000
  N   N8        1.0  0.19516  0.37659  0.49654  1.0000
  C   C79       1.0  0.34104  0.46207  0.18488  1.0000
  H   H122      1.0  0.18608  0.38910  0.43986  1.0000
  H   H123      1.0  0.36987  0.44855  0.11908  1.0000
  C   C80       1.0  0.38909  0.36906  0.09798  1.0000
  H   H124      1.0  0.21684  0.41700  0.46302  1.0000
  H   H125      1.0  0.28229  0.49910  0.17213  1.0000
  H   H126      1.0  0.38021  0.38390  0.12145  1.0000
  H   H127      1.0  0.48948  0.33425  0.30041  1.0000
  H   H128      1.0  0.42878  0.34100  0.12835  1.0000
  H   H129      1.0  0.35885  0.48368  0.19330  1.0000
  C   C81       1.0  0.37655  0.36340  0.20522  1.0000
  H   H130      1.0  0.22938  0.33406  0.51095  1.0000
  C   C82       1.0  0.35307  0.47226  0.12092  1.0000
  H   H131      1.0  0.28940  0.44246  0.11083  1.0000
  C   C83       1.0  0.06155  0.46254  0.21926  1.0000
  C   C84       1.0  0.08171  0.34500  0.39066  1.0000
  H   H132      1.0  0.50756  0.34887  0.34337  1.0000
  C   C85       1.0  0.37205  0.38920  0.26552  1.0000
  C   C86       1.0  0.19172  0.40198  0.46662  1.0000
  H   H133      1.0  0.21660  0.33533  0.46346  1.0000
  C   C87       1.0  0.30307  0.50047  0.15032  1.0000
  H   H134      1.0  0.32010  0.52333  0.15650  1.0000
  C   C88       1.0  0.20428  0.39465  0.53112  1.0000
  C   C89       1.0  0.42727  0.32445  0.07193  1.0000
  H   H135      1.0  0.07302  0.45665  0.19181  1.0000
  S   S30       1.0  0.07185  0.31641  0.42648  1.0000
  H   H136      1.0  0.08270  0.45689  0.23989  1.0000
  S   S31       1.0  0.45952  0.29198  0.07759  1.0000
  H   H137      1.0  0.32031  0.45893  0.20653  1.0000
  C   C90       1.0  0.41632  0.34443  0.10197  1.0000
  H   H138      1.0  0.31884  0.33733  0.32410  1.0000
  H   H139      1.0  0.39244  0.35217  0.18360  1.0000
  C   C91       1.0  0.29874  0.32160  0.30890  1.0000
  H   H140      1.0  0.28928  0.50545  0.12383  1.0000
  H   H141      1.0  0.31649  0.41439  0.13793  1.0000
  C   C92       1.0  0.05593  0.35358  0.36436  1.0000
  C   C93       1.0  0.53603  0.36788  0.25732  1.0000
  Fe  Fe16      1.0  0.45817  0.32264  0.21049  1.0000
  S   S32       1.0  0.43852  0.36653  0.24540  1.0000
  S   S33       1.0  0.50054  0.32705  0.16749  1.0000
  H   H142      1.0  0.05599  0.49075  0.22075  1.0000
  H   H143      1.0  0.18744  0.29891  0.37019  1.0000
  N   N9        1.0  0.54070  0.35922  0.29645  1.0000
  H   H144      1.0  0.23039  0.40826  0.52891  1.0000
  H   H145      1.0  0.34161  0.47656  0.09311  1.0000
  N   N10       1.0  0.31393  0.28828  0.29637  1.0000
  H   H146      1.0  0.33572  0.30953  0.24693  1.0000
  S   S34       1.0  0.42359  0.28587  0.17877  1.0000
  H   H147      1.0  0.34005  0.53049  0.23059  1.0000
  H   H148      1.0  0.54596  0.41229  0.31300  1.0000
  H   H149      1.0  0.37099  0.49436  0.12752  1.0000
  Fe  Fe17      1.0  0.46859  0.28658  0.13801  1.0000
  C   C94       1.0  0.34433  0.29472  0.27146  1.0000
  H   H150      1.0  0.54645  0.30474  0.28652  1.0000
  H   H151      1.0  0.13890  0.28901  0.44879  1.0000
  H   H152      1.0  0.18357  0.41410  0.53859  1.0000
  H   H153      1.0  0.11350  0.41060  0.91775  1.0000
  S   S35       1.0  0.18530  0.34931  0.67838  1.0000
  C   C95       1.0  0.41196  0.33012  0.03750  1.0000
  H   H154      1.0  0.15508  0.42754  0.93499  1.0000
  C   C96       1.0  0.13932  0.42252  0.90960  1.0000
  Fe  Fe18      1.0  0.22911  0.33026  0.71541  1.0000
  S   S36       1.0  0.27184  0.36104  0.74328  1.0000
  H   H155      1.0  0.37440  0.32956  0.95195  1.0000
  C   C97       1.0  0.32491  0.50154  0.79954  1.0000
  H   H156      1.0  0.47980  0.29921  0.99557  1.0000
  C   C98       1.0  0.16864  0.47026  0.87969  1.0000
  Fe  Fe19      1.0  0.33356  0.41521  0.99827  1.0000
  Fe  Fe20      1.0  0.28659  0.41813  0.93062  1.0000
  S   S37       1.0  0.33144  0.43809  0.89608  1.0000
  S   S38       1.0  0.23367  0.40763  0.90334  1.0000
  Fe  Fe21      1.0  0.34346  0.47208  0.94413  1.0000
  S   S39       1.0  0.33965  0.40525  0.05825  1.0000
  S   S40       1.0  0.31894  0.37574  0.95548  1.0000
  S   S41       1.0  0.29597  0.45545  0.97698  1.0000
  H   H157      1.0  0.37389  0.35993  0.00678  1.0000
  N   N11       1.0  0.30581  0.47196  0.78290  1.0000
  H   H158      1.0  0.15430  0.40274  0.89361  1.0000
  H   H159      1.0  0.28570  0.49708  0.91604  1.0000
  C   C99       1.0  0.49278  0.31152  0.92449  1.0000
  H   H160      1.0  0.46859  0.29567  0.92984  1.0000
  H   H161      1.0  0.32047  0.48566  0.72793  1.0000
  N   N12       1.0  0.13368  0.45443  0.88825  1.0000
  C   C100      1.0  0.10500  0.35116  0.82901  1.0000
  C   C101      1.0  0.08565  0.33526  0.76749  1.0000
  C   C102      1.0  0.31918  0.28859  0.84749  1.0000
  H   H162      1.0  0.41980  0.31458  0.01424  1.0000
  H   H163      1.0  0.12620  0.35523  0.84877  1.0000
  H   H164      1.0  0.18442  0.47554  0.90504  1.0000
  H   H165      1.0  0.31626  0.41884  0.76948  1.0000
  C   C103      1.0  0.25968  0.36876  0.78875  1.0000
  C   C104      1.0  0.22413  0.37590  0.79795  1.0000
  C   C105      1.0  0.21557  0.38625  0.83381  1.0000
  C   C106      1.0  0.24251  0.38886  0.86044  1.0000
  C   C107      1.0  0.27743  0.37889  0.85171  1.0000
  C   C108      1.0  0.28616  0.36952  0.81578  1.0000
  H   H166      1.0  0.20351  0.37498  0.77709  1.0000
  H   H167      1.0  0.18834  0.39301  0.84041  1.0000
  H   H168      1.0  0.29791  0.37873  0.87255  1.0000
  H   H169      1.0  0.31357  0.36329  0.80887  1.0000
  H   H170      1.0  0.10704  0.50332  0.89484  1.0000
  H   H171      1.0  0.48746  0.32664  0.89916  1.0000
  H   H172      1.0  0.51064  0.32990  0.01399  1.0000
  H   H173      1.0  0.23904  0.51132  0.87096  1.0000
  H   H174      1.0  0.42682  0.30757  0.85005  1.0000
  C   C109      1.0  0.32916  0.44114  0.78354  1.0000
  H   H175      1.0  0.18524  0.45286  0.86231  1.0000
  H   H176      1.0  0.12550  0.48573  0.93632  1.0000
  H   H177      1.0  0.16548  0.49506  0.86475  1.0000
  H   H178      1.0  0.27878  0.45850  0.83290  1.0000
  C   C110      1.0  0.11195  0.47894  0.91006  1.0000
  Fe  Fe22      1.0  0.15164  0.31129  0.70899  1.0000
  H   H179      1.0  0.14071  0.33663  0.78517  1.0000
  H   H180      1.0  0.46928  0.37684  0.93636  1.0000
  H   H181      1.0  0.25475  0.48803  0.80409  1.0000
  H   H182      1.0  0.08762  0.43528  0.85920  1.0000
  H   H183      1.0  0.33071  0.49707  0.82912  1.0000
  C   C111      1.0  0.37364  0.37452  0.06359  1.0000
  C   C112      1.0  0.39997  0.32281  0.89977  1.0000
  H   H184      1.0  0.33941  0.30868  0.84086  1.0000
  S   S42       1.0  0.09415  0.32095  0.72267  1.0000
  H   H185      1.0  0.47661  0.37674  0.98514  1.0000
  Fe  Fe23      1.0  0.36491  0.39849  0.92442  1.0000
  C   C113      1.0  0.11466  0.44606  0.85374  1.0000
  C   C114      1.0  0.11319  0.34050  0.79304  1.0000
  S   S43       1.0  0.38212  0.43482  0.96904  1.0000
  Fe  Fe24      1.0  0.19977  0.30363  0.64319  1.0000
  H   H186      1.0  0.52683  0.29424  0.98691  1.0000
  H   H187      1.0  0.25757  0.44314  0.79180  1.0000
  S   S44       1.0  0.19417  0.29581  0.74894  1.0000
  H   H188      1.0  0.27839  0.50316  0.74319  1.0000
  S   S45       1.0  0.40371  0.36702  0.89097  1.0000
  H   H189      1.0  0.35081  0.50651  0.78560  1.0000
  C   C115      1.0  0.27278  0.46510  0.80385  1.0000
  C   C116      1.0  0.47205  0.35989  0.96077  1.0000
  H   H190      1.0  0.29338  0.30206  0.85292  1.0000
  H   H191      1.0  0.11098  0.46933  0.83641  1.0000
  H   H192      1.0  0.35496  0.44589  0.76931  1.0000
  C   C117      1.0  0.38384  0.31130  0.93192  1.0000
  C   C118      1.0  0.29626  0.48012  0.74457  1.0000
  C   C119      1.0  0.38559  0.35551  0.03330  1.0000
  H   H193      1.0  0.33544  0.43318  0.81212  1.0000
  C   C120      1.0  0.41379  0.29880  0.87477  1.0000
  C   C121      1.0  0.50481  0.31349  0.98953  1.0000
  H   H194      1.0  0.12945  0.42643  0.83728  1.0000
  H   H195      1.0  0.08535  0.46771  0.91690  1.0000
  N   N13       1.0  0.50117  0.33437  0.95593  1.0000
  H   H196      1.0  0.30877  0.52561  0.79755  1.0000
  H   H197      1.0  0.44573  0.34705  0.96449  1.0000
  C   C122      1.0  0.06933  0.35696  0.83910  1.0000
  C   C123      1.0  0.28942  0.51893  0.89841  1.0000
  S   S46       1.0  0.05812  0.37236  0.88291  1.0000
  S   S47       1.0  0.20018  0.30270  0.58152  1.0000
  H   H198      1.0  0.28192  0.45816  0.73122  1.0000
  S   S48       1.0  0.24721  0.28847  0.67741  1.0000
  S   S49       1.0  0.35410  0.52758  0.93192  1.0000
  C   C124      1.0  0.26286  0.52702  0.87288  1.0000
  H   H199      1.0  0.54228  0.37018  0.97186  1.0000
  H   H200      1.0  0.27774  0.29338  0.78699  1.0000
  H   H201      1.0  0.32361  0.30060  0.77503  1.0000
  H   H202      1.0  0.53354  0.36815  0.92336  1.0000
  H   H203      1.0  0.51530  0.29352  0.91840  1.0000
  C   C125      1.0  0.53518  0.35252  0.94883  1.0000
  Fe  Fe25      1.0  0.29029  0.70356  0.17619  1.0000
  S   S50       1.0  0.32783  0.68176  0.21811  1.0000
  S   S51       1.0  0.23319  0.71798  0.18637  1.0000
  Fe  Fe26      1.0  0.34616  0.70298  0.11661  1.0000
  H   H204      1.0  0.28113  0.62148  0.20140  1.0000
  Fe  Fe27      1.0  0.36803  0.71789  0.19448  1.0000
  H   H205      1.0  0.12581  0.65920  0.25346  1.0000
  S   S52       1.0  0.30360  0.66525  0.13226  1.0000
  C   C126      1.0  0.11940  0.63536  0.32161  1.0000
  S   S53       1.0  0.32889  0.74360  0.15689  1.0000
  H   H206      1.0  0.33903  0.73522  0.32913  1.0000
  S   S54       1.0  0.21546  0.72455  0.35782  1.0000
  S   S55       1.0  0.40788  0.74419  0.23125  1.0000
  Fe  Fe28      1.0  0.34384  0.64583  0.17272  1.0000
  C   C127      1.0  0.30937  0.77018  0.27355  1.0000
  H   H207      1.0  0.09345  0.63622  0.30657  1.0000
  H   H208      1.0  0.12234  0.66063  0.33606  1.0000
  S   S56       1.0  0.34882  0.58918  0.18379  1.0000
  H   H209      1.0  0.10931  0.71698  0.30373  1.0000
  H   H210      1.0  0.15616  0.68219  0.28255  1.0000
  C   C128      1.0  0.31620  0.54615  0.23258  1.0000
  H   H211      1.0  0.47265  0.77157  0.20202  1.0000
  H   H212      1.0  0.14378  0.57365  0.29698  1.0000
  C   C129      1.0  0.31540  0.75145  0.33625  1.0000
  C   C130      1.0  0.08838  0.73594  0.30678  1.0000
  H   H213      1.0  0.36435  0.77488  0.10159  1.0000
  H   H214      1.0  0.17343  0.65263  0.24914  1.0000
  H   H215      1.0  0.11890  0.59528  0.26145  1.0000
  H   H216      1.0  0.18362  0.60605  0.33739  1.0000
  C   C131      1.0  0.22452  0.71652  0.23350  1.0000
  C   C132      1.0  0.24276  0.69318  0.25594  1.0000
  C   C133      1.0  0.23925  0.69520  0.29413  1.0000
  C   C134      1.0  0.21693  0.72016  0.30994  1.0000
  C   C135      1.0  0.19660  0.74162  0.28731  1.0000
  C   C136      1.0  0.20052  0.73998  0.24915  1.0000
  H   H217      1.0  0.25950  0.67349  0.24392  1.0000
  H   H218      1.0  0.25432  0.67775  0.31138  1.0000
  H   H219      1.0  0.44238  0.76351  0.12313  1.0000
  S   S57       1.0  0.38813  0.67978  0.15274  1.0000
  C   C137      1.0  0.31386  0.57703  0.21308  1.0000
  C   C138      1.0  0.25558  0.58790  0.24019  1.0000
  C   C139      1.0  0.28342  0.59784  0.21679  1.0000
  H   H220      1.0  0.23220  0.60412  0.24277  1.0000
  N   N14       1.0  0.14963  0.62888  0.29641  1.0000
  C   C140      1.0  0.14436  0.59552  0.27730  1.0000
  H   H221      1.0  0.18760  0.65216  0.33344  1.0000
  C   C141      1.0  0.15133  0.65686  0.26911  1.0000
  C   C142      1.0  0.18336  0.62782  0.31762  1.0000
  H   H222      1.0  0.18547  0.75742  0.23188  1.0000
  H   H223      1.0  0.16661  0.59010  0.25783  1.0000
  C   C143      1.0  0.25784  0.55685  0.25957  1.0000
  H   H224      1.0  0.11742  0.61491  0.34277  1.0000
  H   H225      1.0  0.20691  0.62410  0.29941  1.0000
  H   H226      1.0  0.49089  0.74634  0.16525  1.0000
  H   H227      1.0  0.28514  0.75397  0.26941  1.0000
  H   H228      1.0  0.12336  0.77370  0.33046  1.0000
  C   C144      1.0  0.28813  0.53593  0.25549  1.0000
  H   H229      1.0  0.17736  0.75910  0.29896  1.0000
  H   H230      1.0  0.29127  0.73480  0.33394  1.0000
  H   H231      1.0  0.51771  0.77855  0.18775  1.0000
  S   S58       1.0  0.22278  0.54456  0.28882  1.0000
  C   C145      1.0  0.09639  0.76822  0.32195  1.0000
  H   H232      1.0  0.33297  0.75454  0.26496  1.0000
  H   H233      1.0  0.31779  0.75929  0.36555  1.0000
  H   H234      1.0  0.23765  0.71451  0.09279  1.0000
  C   C146      1.0  0.36780  0.78132  0.07324  1.0000
  H   H235      1.0  0.28916  0.75107  0.07581  1.0000
  C   C147      1.0  0.49032  0.77265  0.17761  1.0000
  Fe  Fe29      1.0  0.19495  0.77645  0.37649  1.0000
  H   H236      1.0  0.50548  0.77503  0.10588  1.0000
  H   H237      1.0  0.20703  0.74712  0.07779  1.0000
  C   C148      1.0  0.22306  0.72452  0.06832  1.0000
  C   C149      1.0  0.05348  0.72818  0.29585  1.0000
  N   N15       1.0  0.31264  0.78183  0.31208  1.0000
  S   S59       1.0  0.14403  0.78346  0.40795  1.0000
  Fe  Fe30      1.0  0.22422  0.62198  0.82330  1.0000
  S   S60       1.0  0.19640  0.64136  0.87384  1.0000
  S   S61       1.0  0.23403  0.56513  0.81790  1.0000
  Fe  Fe31      1.0  0.23287  0.69368  0.79142  1.0000
  S   S62       1.0  0.20661  0.71924  0.83967  1.0000
  S   S63       1.0  0.25697  0.72189  0.74381  1.0000
  Fe  Fe32      1.0  0.23848  0.68250  0.87386  1.0000
  S   S64       1.0  0.26672  0.70170  0.92470  1.0000
  Fe  Fe33      1.0  0.16729  0.67575  0.83458  1.0000
  S   S65       1.0  0.10829  0.68571  0.83549  1.0000
  S   S66       1.0  0.26849  0.66071  0.82590  1.0000
  S   S67       1.0  0.19139  0.65252  0.78386  1.0000
  C   C150      1.0  0.09957  0.71518  0.80027  1.0000
  H   H238      1.0  0.25059  0.68324  0.01465  1.0000
  C   C151      1.0  0.19149  0.75491  0.64809  1.0000
  C   C152      1.0  0.12058  0.74962  0.74928  1.0000
  C   C153      1.0  0.12723  0.72586  0.77723  1.0000
  S   S68       1.0  0.41263  0.76324  0.86828  1.0000
  C   C154      1.0  0.32680  0.62506  0.95375  1.0000
  H   H239      1.0  0.15383  0.71584  0.78085  1.0000
  C   C155      1.0  0.35022  0.62911  0.01533  1.0000
  H   H240      1.0  0.21673  0.76972  0.64469  1.0000
  N   N16       1.0  0.35848  0.63412  0.97611  1.0000
  C   C156      1.0  0.30796  0.71830  0.91049  1.0000
  C   C157      1.0  0.32930  0.69955  0.88599  1.0000
  C   C158      1.0  0.36644  0.75551  0.04620  1.0000
  C   C159      1.0  0.08614  0.76254  0.74398  1.0000
  C   C160      1.0  0.35138  0.76471  0.90982  1.0000
  C   C161      1.0  0.31928  0.75072  0.92285  1.0000
  H   H241      1.0  0.32131  0.67409  0.87718  1.0000
  H   H242      1.0  0.28291  0.69141  0.05032  1.0000
  H   H243      1.0  0.12961  0.72761  0.62200  1.0000
  C   C162      1.0  0.22773  0.74769  0.00703  1.0000
  H   H244      1.0  0.34889  0.58268  0.87957  1.0000
  C   C163      1.0  0.32460  0.56759  0.87830  1.0000
  H   H245      1.0  0.27860  0.77516  0.69519  1.0000
  C   C164      1.0  0.29783  0.57589  0.85289  1.0000
  H   H246      1.0  0.41360  0.61878  0.98087  1.0000
  H   H247      1.0  0.30181  0.59710  0.83435  1.0000
  H   H248      1.0  0.37800  0.69871  0.85444  1.0000
  N   N17       1.0  0.16069  0.77346  0.63200  1.0000
  H   H249      1.0  0.34512  0.68808  0.97554  1.0000
  C   C165      1.0  0.32031  0.53912  0.90116  1.0000
  H   H250      1.0  0.14211  0.75772  0.73165  1.0000
  H   H251      1.0  0.20877  0.72812  0.99582  1.0000
  C   C166      1.0  0.37183  0.76426  0.00957  1.0000
  H   H252      1.0  0.19538  0.72914  0.63508  1.0000
  C   C167      1.0  0.36809  0.67059  0.96978  1.0000
  H   H253      1.0  0.12318  0.74684  0.66629  1.0000
  S   S69       1.0  0.35675  0.71243  0.05701  1.0000
  C   C168      1.0  0.24020  0.76362  0.73720  1.0000
  C   C169      1.0  0.12790  0.75271  0.63686  1.0000
  H   H254      1.0  0.37088  0.74471  0.98838  1.0000
  H   H255      1.0  0.33182  0.62930  0.92409  1.0000
  C   C170      1.0  0.37270  0.74598  0.88532  1.0000
  H   H256      1.0  0.28864  0.70998  0.00569  1.0000
  H   H257      1.0  0.19841  0.75981  0.77730  1.0000
  H   H258      1.0  0.17016  0.75417  0.57733  1.0000
  H   H259      1.0  0.38310  0.58409  0.97149  1.0000
  H   H260      1.0  0.32758  0.64581  0.02420  1.0000
  H   H261      1.0  0.30285  0.76546  0.94165  1.0000
  C   C171      1.0  0.26695  0.55561  0.85026  1.0000
  C   C172      1.0  0.38886  0.61170  0.96561  1.0000
  C   C173      1.0  0.36162  0.71333  0.87345  1.0000
  H   H262      1.0  0.39469  0.61348  0.93576  1.0000
  C   C174      1.0  0.06507  0.72818  0.79501  1.0000
  H   H263      1.0  0.30317  0.64113  0.96122  1.0000
  H   H264      1.0  0.37640  0.67497  0.94092  1.0000
  H   H265      1.0  0.34286  0.60183  0.02108  1.0000
  H   H266      1.0  0.39058  0.67898  0.98779  1.0000
  H   H267      1.0  0.31933  0.59743  0.95711  1.0000
  H   H268      1.0  0.37350  0.63591  0.03306  1.0000
  C   C175      1.0  0.21098  0.77594  0.75720  1.0000
  H   H269      1.0  0.10376  0.76666  0.62679  1.0000
  H   H270      1.0  0.31737  0.75873  0.76904  1.0000
  H   H271      1.0  0.24594  0.75477  0.98411  1.0000
  H   H272      1.0  0.20403  0.70412  0.05921  1.0000
  H   H273      1.0  0.28999  0.78141  0.80156  1.0000
  N   N18       1.0  0.24801  0.73406  0.03865  1.0000
  H   H274      1.0  0.32912  0.75855  0.81664  1.0000
  C   C176      1.0  0.05836  0.75168  0.76672  1.0000
  C   C177      1.0  0.26841  0.70324  0.02686  1.0000
  H   H275      1.0  0.21203  0.77106  0.01466  1.0000
  C   C178      1.0  0.31813  0.77494  0.79430  1.0000
  H   H276      1.0  0.18777  0.75069  0.67804  1.0000
  C   C179      1.0  0.27304  0.76073  0.05228  1.0000
  C   C180      1.0  0.16703  0.77901  0.59246  1.0000
  H   H277      1.0  0.37599  0.78251  0.75019  1.0000
  H   H278      1.0  0.29220  0.76867  0.03057  1.0000
  H   H279      1.0  0.38882  0.77801  0.79726  1.0000
  S   S70       1.0  0.16130  0.86736  0.40679  1.0000
  Fe  Fe34      1.0  0.21150  0.85290  0.37670  1.0000
  S   S71       1.0  0.25235  0.88744  0.35155  1.0000
  H   H280      1.0  0.21521  0.87175  0.46730  1.0000
  C   C181      1.0  0.29231  0.88645  0.37643  1.0000
  C   C182      1.0  0.32466  0.88543  0.35746  1.0000
  H   H281      1.0  0.25014  0.92142  0.49095  1.0000
  H   H282      1.0  0.46644  0.85324  0.15007  1.0000
  C   C183      1.0  0.29230  0.88915  0.41467  1.0000
  H   H283      1.0  0.32488  0.88244  0.32798  1.0000
  C   C184      1.0  0.21372  0.87857  0.49598  1.0000
  H   H284      1.0  0.26723  0.88994  0.42938  1.0000
  H   H285      1.0  0.32453  0.89678  0.46297  1.0000
  C   C185      1.0  0.44192  0.78902  0.13736  1.0000
  C   C186      1.0  0.35693  0.88892  0.37640  1.0000
  H   H286      1.0  0.35582  0.85999  0.21631  1.0000
  H   H287      1.0  0.05700  0.90294  0.43928  1.0000
  C   C187      1.0  0.35713  0.89400  0.41438  1.0000
  S   S72       1.0  0.39753  0.90417  0.43659  1.0000
  H   H288      1.0  0.45205  0.78960  0.27253  1.0000
  C   C188      1.0  0.19047  0.86846  0.55686  1.0000
  H   H289      1.0  0.33466  0.94894  0.55675  1.0000
  S   S73       1.0  0.08057  0.83363  0.34474  1.0000
  H   H290      1.0  0.34816  0.81281  0.34503  1.0000
  N   N19       1.0  0.35896  0.89856  0.55477  1.0000
  Fe  Fe35      1.0  0.13482  0.82818  0.37035  1.0000
  H   H291      1.0  0.32922  0.01705  0.27788  1.0000
  H   H292      1.0  0.38160  0.88831  0.36128  1.0000
  H   H293      1.0  0.37403  0.87531  0.50347  1.0000
  C   C189      1.0  0.35374  0.93362  0.53980  1.0000
  C   C190      1.0  0.32852  0.01349  0.30809  1.0000
  C   C191      1.0  0.06976  0.79332  0.32561  1.0000
  Fe  Fe36      1.0  0.17489  0.82156  0.44180  1.0000
  C   C192      1.0  0.32478  0.89307  0.43369  1.0000
  H   H294      1.0  0.07752  0.87331  0.40795  1.0000
  H   H295      1.0  0.41042  0.89355  0.52884  1.0000
  N   N20       1.0  0.30397  0.98539  0.31862  1.0000
  C   C193      1.0  0.05331  0.87777  0.42498  1.0000
  S   S74       1.0  0.18361  0.81872  0.33658  1.0000
  H   H296      1.0  0.08710  0.86879  0.48926  1.0000
  S   S75       1.0  0.22729  0.81000  0.41435  1.0000
  C   C194      1.0  0.23353  0.90666  0.50936  1.0000
  H   H297      1.0  0.34122  0.94452  0.30635  1.0000
  H   H298      1.0  0.31375  0.95726  0.26849  1.0000
  C   C195      1.0  0.37686  0.84460  0.22848  1.0000
  S   S76       1.0  0.16753  0.82425  0.50293  1.0000
  H   H299      1.0  0.25585  0.78671  0.31959  1.0000
  C   C196      1.0  0.40234  0.86035  0.25128  1.0000
  H   H300      1.0  0.10384  0.83820  0.45656  1.0000
  H   H301      1.0  0.35638  0.00826  0.31745  1.0000
  H   H302      1.0  0.29972  0.00341  0.37435  1.0000
  C   C197      1.0  0.23216  0.91536  0.54658  1.0000
  C   C198      1.0  0.19221  0.85943  0.51970  1.0000
  H   H303      1.0  0.51945  0.82404  0.24540  1.0000
  H   H304      1.0  0.37550  0.83571  0.08443  1.0000
  H   H305      1.0  0.34276  0.93277  0.51144  1.0000
  H   H306      1.0  0.37934  0.94816  0.53869  1.0000
  H   H307      1.0  0.50245  0.84105  0.17997  1.0000
  H   H308      1.0  0.33374  0.97139  0.36695  1.0000
  S   S77       1.0  0.41025  0.95601  0.34961  1.0000
  C   C199      1.0  0.26685  0.99511  0.30916  1.0000
  C   C200      1.0  0.50308  0.80043  0.12006  1.0000
  C   C201      1.0  0.54001  0.84173  0.25454  1.0000
  H   H309      1.0  0.54292  0.03128  0.30911  1.0000
  C   C202      1.0  0.43090  0.80482  0.26028  1.0000
  C   C203      1.0  0.38471  0.87935  0.53167  1.0000
  H   H310      1.0  0.29487  0.93222  0.30469  1.0000
  H   H311      1.0  0.42232  0.78707  0.16017  1.0000
  C   C204      1.0  0.37827  0.80884  0.22185  1.0000
  H   H312      1.0  0.39074  0.85345  0.54315  1.0000
  C   C205      1.0  0.31389  0.95347  0.29869  1.0000
  H   H313      1.0  0.53035  0.80797  0.12958  1.0000
  H   H314      1.0  0.30715  0.79245  0.25456  1.0000
  C   C206      1.0  0.42967  0.84046  0.26655  1.0000
  Fe  Fe37      1.0  0.46288  0.98320  0.35052  1.0000
  S   S78       1.0  0.48555  0.95172  0.39633  1.0000
  Fe  Fe38      1.0  0.43476  0.92012  0.30867  1.0000
  S   S79       1.0  0.45589  0.88327  0.35080  1.0000
  N   N21       1.0  0.47777  0.79875  0.15108  1.0000
  Fe  Fe39      1.0  0.43450  0.92128  0.39172  1.0000
  Fe  Fe40      1.0  0.50438  0.91715  0.35066  1.0000
  S   S80       1.0  0.48528  0.95098  0.30494  1.0000
  H   H315      1.0  0.07714  0.82362  0.49398  1.0000
  C   C207      1.0  0.53638  0.85887  0.28829  1.0000
  H   H316      1.0  0.51305  0.85431  0.30496  1.0000
  C   C208      1.0  0.47583  0.83292  0.16926  1.0000
  H   H317      1.0  0.34399  0.82638  0.29830  1.0000
  C   C209      1.0  0.34503  0.80333  0.31633  1.0000
  H   H318      1.0  0.45027  0.85259  0.28272  1.0000
  H   H319      1.0  0.06363  0.80871  0.41411  1.0000
  H   H320      1.0  0.27759  0.82542  0.30452  1.0000
  H   H321      1.0  0.45703  0.83267  0.19284  1.0000
  H   H322      1.0  0.28758  0.95902  0.36752  1.0000
  C   C210      1.0  0.08028  0.84483  0.47380  1.0000
  S   S81       1.0  0.39954  0.90464  0.26113  1.0000
  H   H323      1.0  0.28230  0.81167  0.35107  1.0000
  H   H324      1.0  0.41549  0.01310  0.40120  1.0000
  H   H325      1.0  0.24770  0.97428  0.31673  1.0000
  H   H326      1.0  0.35845  0.79680  0.20446  1.0000
  H   H327      1.0  0.49434  0.81976  0.09939  1.0000
  H   H328      1.0  0.43148  0.80837  0.11760  1.0000
  C   C211      1.0  0.30639  0.97955  0.35858  1.0000
  C   C212      1.0  0.32442  0.88004  0.55499  1.0000
  H   H329      1.0  0.31219  0.87892  0.52715  1.0000
  C   C213      1.0  0.28072  0.80229  0.32222  1.0000
  H   H330      1.0  0.36963  0.78858  0.30910  1.0000
  C   C214      1.0  0.40513  0.78891  0.23812  1.0000
  H   H331      1.0  0.26390  0.99994  0.27928  1.0000
  H   H332      1.0  0.35227  0.02755  0.41450  1.0000
  S   S82       1.0  0.25850  0.94920  0.56358  1.0000
  H   H333      1.0  0.32750  0.85315  0.56501  1.0000
  H   H334      1.0  0.25849  0.01900  0.32408  1.0000
  H   H335      1.0  0.43723  0.00992  0.82325  1.0000
  S   S83       1.0  0.27720  0.92957  0.72829  1.0000
  H   H336      1.0  0.06864  0.94415  0.74344  1.0000
  Fe  Fe41      1.0  0.26373  0.94315  0.62415  1.0000
  S   S84       1.0  0.22087  0.95663  0.66451  1.0000
  C   C215      1.0  0.08664  0.92689  0.75939  1.0000
  Fe  Fe42      1.0  0.26619  0.97841  0.69754  1.0000
  H   H337      1.0  0.35823  0.84996  0.82021  1.0000
  Fe  Fe43      1.0  0.23580  0.90652  0.69110  1.0000
  S   S85       1.0  0.19469  0.87075  0.71467  1.0000
  H   H338      1.0  0.35265  0.95260  0.73697  1.0000
  S   S86       1.0  0.27481  0.89099  0.64745  1.0000
  H   H339      1.0  0.25486  0.83359  0.68395  1.0000
  C   C216      1.0  0.15636  0.80718  0.65067  1.0000
  C   C217      1.0  0.34821  0.95466  0.90723  1.0000
  H   H340      1.0  0.13303  0.82172  0.63972  1.0000
  H   H341      1.0  0.18050  0.82369  0.64741  1.0000
  C   C218      1.0  0.38495  0.90647  0.73445  1.0000
  H   H342      1.0  0.35490  0.81052  0.84545  1.0000
  C   C219      1.0  0.21306  0.83005  0.72413  1.0000
  H   H343      1.0  0.31229  0.99449  0.95555  1.0000
  H   H344      1.0  0.33504  0.93738  0.97696  1.0000
  C   C220      1.0  0.52602  0.00131  0.80438  1.0000
  H   H345      1.0  0.27494  0.98714  0.78398  1.0000
  S   S87       1.0  0.30812  0.96908  0.65477  1.0000
  C   C221      1.0  0.10854  0.86886  0.76813  1.0000
  H   H346      1.0  0.07727  0.90509  0.68963  1.0000
  N   N22       1.0  0.33997  0.80625  0.78879  1.0000
  H   H347      1.0  0.49307  0.95821  0.85031  1.0000
  C   C222      1.0  0.19713  0.80895  0.75039  1.0000
  H   H348      1.0  0.07884  0.92901  0.78875  1.0000
  C   C223      1.0  0.32345  0.82799  0.76018  1.0000
  H   H349      1.0  0.35426  0.91595  0.61070  1.0000
  H   H350      1.0  0.20919  0.90316  0.59906  1.0000
  S   S88       1.0  0.36842  0.89302  0.69169  1.0000
  H   H351      1.0  0.35155  0.97127  0.88267  1.0000
  H   H352      1.0  0.51876  0.98867  0.87666  1.0000
  H   H353      1.0  0.09454  0.86238  0.69646  1.0000
  H   H354      1.0  0.38336  0.80500  0.97186  1.0000
  H   H355      1.0  0.12307  0.89884  0.70346  1.0000
  H   H356      1.0  0.17402  0.81795  0.76546  1.0000
  C   C224      1.0  0.37888  0.79846  0.00007  1.0000
  H   H357      1.0  0.10074  0.86867  0.79753  1.0000
  C   C225      1.0  0.37635  0.79595  0.77723  1.0000
  Fe  Fe44      1.0  0.31521  0.91815  0.68236  1.0000
  N   N23       1.0  0.36268  0.97169  0.94043  1.0000
  N   N24       1.0  0.08437  0.89083  0.74613  1.0000
  C   C226      1.0  0.49434  0.98568  0.85941  1.0000
  H   H358      1.0  0.37654  0.87537  0.60530  1.0000
  H   H359      1.0  0.52499  0.97427  0.79386  1.0000
  H   H360      1.0  0.32267  0.81441  0.73325  1.0000
  H   H361      1.0  0.37267  0.96874  0.79944  1.0000
  H   H362      1.0  0.15186  0.80394  0.68063  1.0000
  C   C227      1.0  0.40665  0.92424  0.80576  1.0000
  C   C228      1.0  0.31508  0.01265  0.81695  1.0000
  H   H363      1.0  0.31502  0.83372  0.83327  1.0000
  S   S89       1.0  0.26325  0.03155  0.72153  1.0000
  C   C229      1.0  0.24272  0.81790  0.70462  1.0000
  C   C230      1.0  0.36246  0.94705  0.97123  1.0000
  H   H364      1.0  0.41171  0.99586  0.95787  1.0000
  H   H365      1.0  0.37304  0.95891  0.99689  1.0000
  C   C231      1.0  0.34038  0.00206  0.94966  1.0000
  H   H366      1.0  0.36245  0.93006  0.90123  1.0000
  H   H367      1.0  0.13675  0.87790  0.76646  1.0000
  H   H368      1.0  0.31931  0.94857  0.91007  1.0000
  N   N25       1.0  0.49476  0.00929  0.82774  1.0000
  H   H369      1.0  0.37945  0.92407  0.96516  1.0000
  C   C232      1.0  0.09523  0.88930  0.70720  1.0000
  H   H370      1.0  0.10828  0.84162  0.75826  1.0000
  C   C233      1.0  0.29247  0.00919  0.78635  1.0000
  H   H371      1.0  0.45905  0.97827  0.79509  1.0000
  C   C234      1.0  0.37156  0.93633  0.75127  1.0000
  C   C235      1.0  0.39977  0.98302  0.93341  1.0000
  H   H372      1.0  0.41715  0.96082  0.92586  1.0000
  C   C236      1.0  0.38035  0.82422  0.02687  1.0000
  C   C237      1.0  0.38286  0.94547  0.78666  1.0000
  H   H373      1.0  0.35093  0.01602  0.97411  1.0000
  H   H374      1.0  0.40090  0.00149  0.91016  1.0000
  C   C238      1.0  0.25609  0.78468  0.71092  1.0000
  S   S90       1.0  0.45561  0.81454  0.95023  1.0000
  H   H375      1.0  0.31488  0.99314  0.83787  1.0000
  S   S91       1.0  0.39077  0.85592  0.90681  1.0000
  S   S92       1.0  0.41918  0.93554  0.85056  1.0000
  Fe  Fe45      1.0  0.43389  0.89008  0.88507  1.0000
  S   S93       1.0  0.47036  0.84696  0.86830  1.0000
  C   C239      1.0  0.41018  0.88617  0.75282  1.0000
  Fe  Fe46      1.0  0.49257  0.85290  0.92509  1.0000
  Fe  Fe47      1.0  0.42947  0.81301  0.89497  1.0000
  S   S94       1.0  0.45943  0.89899  0.93991  1.0000
  H   H376      1.0  0.17331  0.85431  0.57516  1.0000
  H   H377      1.0  0.39917  0.91467  0.59358  1.0000
  C   C240      1.0  0.42050  0.89465  0.78877  1.0000
  H   H378      1.0  0.42123  0.86356  0.73946  1.0000
  H   H379      1.0  0.43961  0.87862  0.80300  1.0000
  H   H380      1.0  0.52697  0.90052  0.88340  1.0000
  S   S95       1.0  0.07825  0.79234  0.70895  1.0000
  H   H381      1.0  0.47063  0.99046  0.87712  1.0000
  C   C241      1.0  0.37431  0.81579  0.06355  1.0000
  H   H382      1.0  0.39429  0.81863  0.77500  1.0000
  H   H383      1.0  0.19176  0.79431  0.58768  1.0000
  Fe  Fe48      1.0  0.42004  0.86027  0.96025  1.0000
  S   S96       1.0  0.39167  0.86629  0.01404  1.0000
  H   H384      1.0  0.33868  0.85232  0.75616  1.0000
  C   C242      1.0  0.46148  0.00499  0.80619  1.0000
  C   C243      1.0  0.34207  0.82603  0.82348  1.0000
  C   C244      1.0  0.37290  0.90123  0.59265  1.0000
  H   H385      1.0  0.11439  0.93708  0.75681  1.0000
  C   C245      1.0  0.21069  0.89622  0.57036  1.0000
  H   H386      1.0  0.33959  0.02074  0.92654  1.0000
  H   H387      1.0  0.29548  0.83525  0.76736  1.0000
  H   H388      1.0  0.14448  0.79328  0.57945  1.0000
  S   S97       1.0  0.55064  0.85263  0.93916  1.0000
  H   H389      1.0  0.55159  0.00424  0.81986  1.0000
  H   H390      1.0  0.46039  0.02307  0.78262  1.0000
  H   H391      1.0  0.30478  0.89317  0.57311  1.0000
  H   H392      1.0  0.35927  0.79021  0.91823  1.0000
  H   H393      1.0  0.52725  0.01875  0.78028  1.0000
  H   H394      1.0  0.25863  0.78429  0.06177  1.0000
  H   H395      1.0  0.64923  0.23896  0.31662  1.0000
  S   S98       1.0  0.60344  0.18830  0.34967  1.0000
  C   C246      1.0  0.65353  0.20811  0.18541  1.0000
  H   H396      1.0  0.87258  0.22796  0.32859  1.0000
  H   H397      1.0  0.69371  0.25410  0.21852  1.0000
  C   C247      1.0  0.62510  0.23696  0.30049  1.0000
  N   N26       1.0  0.67680  0.23328  0.16673  1.0000
  H   H398      1.0  0.62731  0.21983  0.19279  1.0000
  C   C248      1.0  0.59769  0.21469  0.31129  1.0000
  H   H399      1.0  0.78315  0.19526  0.55324  1.0000
  H   H400      1.0  0.70688  0.19437  0.13773  1.0000
  H   H401      1.0  0.66603  0.19869  0.21127  1.0000
  H   H402      1.0  0.87921  0.27347  0.37730  1.0000
  H   H403      1.0  0.65501  0.22461  0.11280  1.0000
  Fe  Fe49      1.0  0.66122  0.17291  0.34924  1.0000
  S   S99       1.0  0.70874  0.20822  0.35307  1.0000
  C   C249      1.0  0.68375  0.26288  0.19147  1.0000
  H   H404      1.0  0.72505  0.20647  0.18172  1.0000
  S   S100      1.0  0.67883  0.14667  0.29742  1.0000
  H   H405      1.0  0.64806  0.18530  0.16763  1.0000
  H   H406      1.0  0.72754  0.25624  0.29795  1.0000
  S   S101      1.0  0.68398  0.13290  0.38677  1.0000
  H   H407      1.0  0.79461  0.05400  0.42757  1.0000
  C   C250      1.0  0.56637  0.21254  0.29044  1.0000
  Fe  Fe50      1.0  0.70540  0.10930  0.33507  1.0000
  C   C251      1.0  0.56093  0.03843  0.33233  1.0000
  C   C252      1.0  0.88008  0.06320  0.45817  1.0000
  C   C253      1.0  0.65883  0.24578  0.13321  1.0000
  C   C254      1.0  0.85324  0.08508  0.40277  1.0000
  S   S102      1.0  0.75679  0.19937  0.25470  1.0000
  H   H408      1.0  0.91867  0.27182  0.32302  1.0000
  S   S103      1.0  0.76664  0.17726  0.43619  1.0000
  S   S104      1.0  0.75682  0.13853  0.33690  1.0000
  S   S105      1.0  0.92612  0.21593  0.39696  1.0000
  H   H409      1.0  0.87586  0.05511  0.48708  1.0000
  H   H410      1.0  0.85091  0.12722  0.46097  1.0000
  C   C255      1.0  0.80678  0.21047  0.56246  1.0000
  C   C256      1.0  0.77528  0.05216  0.32349  1.0000
  C   C257      1.0  0.90806  0.20098  0.54739  1.0000
  C   C258      1.0  0.85302  0.24542  0.31500  1.0000
  H   H411      1.0  0.83047  0.19305  0.56087  1.0000
  H   H412      1.0  0.77261  0.07533  0.30749  1.0000
  Fe  Fe51      1.0  0.73366  0.16553  0.38574  1.0000
  C   C259      1.0  0.56271  0.23226  0.25859  1.0000
  C   C260      1.0  0.75900  0.24435  0.25011  1.0000
  H   H413      1.0  0.86457  0.06320  0.38659  1.0000
  C   C261      1.0  0.81141  0.18718  0.42609  1.0000
  C   C262      1.0  0.82775  0.17390  0.39460  1.0000
  C   C263      1.0  0.86338  0.18182  0.38665  1.0000
  C   C264      1.0  0.88279  0.20369  0.40982  1.0000
  C   C265      1.0  0.86698  0.21611  0.44204  1.0000
  C   C266      1.0  0.83138  0.20769  0.45028  1.0000
  H   H414      1.0  0.81333  0.15701  0.37658  1.0000
  H   H415      1.0  0.87571  0.17147  0.36210  1.0000
  H   H416      1.0  0.88218  0.23190  0.46076  1.0000
  H   H417      1.0  0.81916  0.21757  0.47503  1.0000
  N   N27       1.0  0.84632  0.07495  0.44110  1.0000
  H   H418      1.0  0.89157  0.04068  0.44305  1.0000
  H   H419      1.0  0.80620  0.11391  0.44991  1.0000
  C   C267      1.0  0.77660  0.25803  0.21969  1.0000
  C   C268      1.0  0.80940  0.03910  0.33118  1.0000
  C   C269      1.0  0.83209  0.10495  0.46168  1.0000
  C   C270      1.0  0.74180  0.26657  0.27483  1.0000
  H   H420      1.0  0.81107  0.23152  0.54232  1.0000
  H   H421      1.0  0.56667  0.06652  0.33024  1.0000
  H   H422      1.0  0.90055  0.08407  0.45831  1.0000
  N   N28       1.0  0.86209  0.28204  0.32179  1.0000
  H   H423      1.0  0.62460  0.05526  0.36256  1.0000
  H   H424      1.0  0.83291  0.05286  0.32210  1.0000
  Fe  Fe52      1.0  0.72833  0.17861  0.30406  1.0000
  H   H425      1.0  0.82733  0.09862  0.49097  1.0000
  C   C271      1.0  0.71102  0.21640  0.15698  1.0000
  H   H426      1.0  0.92086  0.24387  0.51268  1.0000
  C   C272      1.0  0.92368  0.23301  0.53964  1.0000
  C   C273      1.0  0.74478  0.03462  0.33529  1.0000
  H   H427      1.0  0.85314  0.23914  0.28517  1.0000
  H   H428      1.0  0.78945  0.24096  0.20011  1.0000
  H   H429      1.0  0.89276  0.18761  0.52649  1.0000
  S   S106      1.0  0.99330  0.26229  0.46549  1.0000
  C   C274      1.0  0.62099  0.25746  0.26926  1.0000
  S   S107      1.0  0.70223  0.05184  0.32695  1.0000
  H   H430      1.0  0.70405  0.28074  0.17990  1.0000
  Fe  Fe53      1.0  0.94710  0.26293  0.42629  1.0000
  C   C275      1.0  0.81991  0.04658  0.44171  1.0000
  H   H431      1.0  0.65906  0.27817  0.19655  1.0000
  H   H432      1.0  0.82593  0.23898  0.32562  1.0000
  H   H433      1.0  0.72952  0.23458  0.14320  1.0000
  H   H434      1.0  0.82822  0.09352  0.38881  1.0000
  H   H435      1.0  0.87266  0.10679  0.40132  1.0000
  H   H436      1.0  0.79388  0.04091  0.24838  1.0000
  H   H437      1.0  0.77972  0.04253  0.20140  1.0000
  H   H438      1.0  0.81313  0.03904  0.47024  1.0000
  C   C276      1.0  0.58973  0.25515  0.24831  1.0000
  H   H439      1.0  0.67488  0.26617  0.11962  1.0000
  H   H440      1.0  0.63210  0.25709  0.13953  1.0000
  C   C277      1.0  0.75775  0.26607  0.06606  1.0000
  H   H441      1.0  0.64185  0.27538  0.26179  1.0000
  H   H442      1.0  0.62184  0.05170  0.29529  1.0000
  S   S108      1.0  0.58400  0.28172  0.21006  1.0000
  H   H443      1.0  0.04601  0.26042  0.75912  1.0000
  S   S109      1.0  0.66818  0.20745  0.96975  1.0000
  H   H444      1.0  0.74266  0.09332  0.87138  1.0000
  N   N29       1.0  0.69169  0.06991  0.86002  1.0000
  C   C278      1.0  0.69777  0.04176  0.88642  1.0000
  C   C279      1.0  0.57635  0.16825  0.88119  1.0000
  C   C280      1.0  0.58871  0.19635  0.90214  1.0000
  H   H445      1.0  0.59527  0.15084  0.86839  1.0000
  C   C281      1.0  0.91128  0.18698  0.58249  1.0000
  H   H446      1.0  0.98778  0.27680  0.68037  1.0000
  Fe  Fe54      1.0  0.70332  0.24675  0.99712  1.0000
  C   C282      1.0  0.83367  0.24480  0.61056  1.0000
  S   S110      1.0  0.57956  0.25477  0.94429  1.0000
  H   H447      1.0  0.79415  0.20486  0.65462  1.0000
  H   H448      1.0  0.80555  0.26980  0.78669  1.0000
  N   N30       1.0  0.80192  0.22430  0.60001  1.0000
  H   H449      1.0  0.61712  0.20029  0.90545  1.0000
  H   H450      1.0  0.78292  0.24663  0.01708  1.0000
  Fe  Fe55      1.0  0.70501  0.21327  0.92154  1.0000
  Fe  Fe56      1.0  0.63982  0.25329  0.94606  1.0000
  S   S111      1.0  0.67392  0.25629  0.89567  1.0000
  C   C283      1.0  0.73219  0.20743  0.82815  1.0000
  C   C284      1.0  0.78570  0.26314  0.04083  1.0000
  C   C285      1.0  0.96463  0.27573  0.78255  1.0000
  H   H451      1.0  0.86775  0.03500  0.66865  1.0000
  H   H452      1.0  0.98505  0.26405  0.79939  1.0000
  H   H453      1.0  0.88337  0.26002  0.80917  1.0000
  H   H454      1.0  0.71023  0.22227  0.83910  1.0000
  Fe  Fe57      1.0  0.83992  0.17553  0.72182  1.0000
  S   S112      1.0  0.88169  0.15920  0.76237  1.0000
  C   C286      1.0  0.85277  0.07358  0.80750  1.0000
  Fe  Fe58      1.0  0.88381  0.15134  0.65625  1.0000
  S   S113      1.0  0.92918  0.13298  0.69109  1.0000
  S   S114      1.0  0.88604  0.15080  0.59483  1.0000
  Fe  Fe59      1.0  0.88572  0.11179  0.72676  1.0000
  S   S115      1.0  0.88889  0.05649  0.74420  1.0000
  Fe  Fe60      1.0  0.92060  0.18205  0.72279  1.0000
  S   S116      1.0  0.96536  0.21577  0.74316  1.0000
  S   S117      1.0  0.84063  0.12636  0.68911  1.0000
  S   S118      1.0  0.87838  0.20211  0.68507  1.0000
  C   C287      1.0  0.94648  0.23651  0.60161  1.0000
  H   H455      1.0  0.79354  0.24711  0.84974  1.0000
  H   H456      1.0  0.91199  0.25944  0.70871  1.0000
  H   H457      1.0  0.04181  0.23642  0.80081  1.0000
  C   C288      1.0  0.76979  0.24657  0.60118  1.0000
  H   H458      1.0  0.78506  0.13850  0.84791  1.0000
  N   N31       1.0  0.83648  0.28123  0.83503  1.0000
  H   H459      1.0  0.80876  0.15226  0.78652  1.0000
  H   H460      1.0  0.86201  0.09963  0.80356  1.0000
  H   H461      1.0  0.64403  0.08884  0.88644  1.0000
  C   C289      1.0  0.83207  0.06562  0.83841  1.0000
  C   C290      1.0  0.74600  0.21557  0.79355  1.0000
  H   H462      1.0  0.82522  0.08561  0.85801  1.0000
  H   H463      1.0  0.74533  0.23194  0.59327  1.0000
  C   C291      1.0  0.67162  0.05642  0.82808  1.0000
  C   C292      1.0  0.77380  0.19587  0.77852  1.0000
  C   C293      1.0  0.78774  0.16800  0.79814  1.0000
  C   C294      1.0  0.77400  0.15996  0.83278  1.0000
  C   C295      1.0  0.67097  0.09784  0.87787  1.0000
  C   C296      1.0  0.94936  0.25722  0.75357  1.0000
  H   H464      1.0  0.68499  0.10779  0.90274  1.0000
  C   C297      1.0  0.74611  0.17959  0.84783  1.0000
  H   H465      1.0  0.84772  0.22969  0.81587  1.0000
  H   H466      1.0  0.74297  0.06314  0.83405  1.0000
  S   S119      1.0  0.79115  0.20672  0.73548  1.0000
  C   C298      1.0  0.93159  0.20420  0.60911  1.0000
  H   H467      1.0  0.83107  0.25550  0.63883  1.0000
  S   S120      1.0  0.74316  0.24789  0.95130  1.0000
  H   H468      1.0  0.93558  0.19282  0.63574  1.0000
  C   C299      1.0  0.92274  0.27273  0.73217  1.0000
  C   C300      1.0  0.86163  0.25237  0.82832  1.0000
  H   H469      1.0  0.77231  0.26876  0.58211  1.0000
  H   H470      1.0  0.66729  0.12027  0.85924  1.0000
  C   C301      1.0  0.72659  0.08347  0.84778  1.0000
  C   C302      1.0  0.80817  0.27000  0.86059  1.0000
  H   H471      1.0  0.04268  0.20613  0.72321  1.0000
  S   S121      1.0  0.72829  0.16824  0.89060  1.0000
  H   H472      1.0  0.82111  0.17796  0.62555  1.0000
  H   H473      1.0  0.77364  0.17946  0.61901  1.0000
  C   C303      1.0  0.86221  0.04755  0.78250  1.0000
  H   H474      1.0  0.96148  0.24983  0.62264  1.0000
  H   H475      1.0  0.73494  0.23700  0.77836  1.0000
  C   C304      1.0  0.56435  0.21939  0.91820  1.0000
  C   C305      1.0  0.81767  0.28128  0.04653  1.0000
  H   H476      1.0  0.83913  0.27925  0.02676  1.0000
  H   H477      1.0  0.72319  0.10515  0.82822  1.0000
  H   H478      1.0  0.76533  0.25719  0.62928  1.0000
  C   C306      1.0  0.79745  0.19541  0.62590  1.0000
  H   H479      1.0  0.85831  0.22872  0.61000  1.0000
  H   H480      1.0  0.66629  0.07709  0.80772  1.0000
  H   H481      1.0  0.83816  0.26669  0.59149  1.0000
  H   H482      1.0  0.64545  0.04529  0.83649  1.0000
  S   S122      1.0  0.71632  0.24649  0.05740  1.0000
  H   H483      1.0  0.03796  0.18245  0.76478  1.0000
  C   C307      1.0  0.94200  0.25128  0.56704  1.0000
  H   H484      1.0  0.71296  0.05094  0.91089  1.0000
  H   H485      1.0  0.81941  0.26283  0.88778  1.0000
  H   H486      1.0  0.87444  0.24364  0.85422  1.0000
  H   H487      1.0  0.68670  0.03541  0.81395  1.0000
  H   H488      1.0  0.03504  0.44397  0.28476  1.0000
  H   H489      1.0  0.85230  0.52254  0.38799  1.0000
  C   C308      1.0  0.01504  0.45042  0.26312  1.0000
  H   H490      1.0  0.84617  0.53140  0.34007  1.0000
  H   H491      1.0  0.73641  0.35848  0.08475  1.0000
  H   H492      1.0  0.80857  0.29959  0.31077  1.0000
  Fe  Fe61      1.0  0.80921  0.37666  0.19827  1.0000
  S   S123      1.0  0.85451  0.33952  0.18923  1.0000
  H   H493      1.0  0.97635  0.43602  0.20302  1.0000
  Fe  Fe62      1.0  0.84721  0.43482  0.15798  1.0000
  S   S124      1.0  0.89464  0.40176  0.14496  1.0000
  H   H494      1.0  0.86649  0.31707  0.36766  1.0000
  Fe  Fe63      1.0  0.85416  0.36114  0.13243  1.0000
  H   H495      1.0  0.90153  0.48251  0.40787  1.0000
  Fe  Fe64      1.0  0.88951  0.38442  0.20307  1.0000
  S   S125      1.0  0.93862  0.38097  0.23804  1.0000
  S   S126      1.0  0.80647  0.39566  0.14016  1.0000
  S   S127      1.0  0.84437  0.42007  0.21710  1.0000
  H   H496      1.0  0.00838  0.47836  0.26590  1.0000
  S   S128      1.0  0.98370  0.34716  0.47097  1.0000
  H   H497      1.0  0.93985  0.48172  0.24104  1.0000
  C   C309      1.0  0.92392  0.49923  0.22477  1.0000
  H   H498      1.0  0.84234  0.33210  0.30634  1.0000
  Fe  Fe65      1.0  0.93910  0.34059  0.43035  1.0000
  S   S129      1.0  0.90452  0.38234  0.40684  1.0000
  H   H499      1.0  0.02947  0.34273  0.36587  1.0000
  H   H500      1.0  0.01349  0.38870  0.22917  1.0000
  C   C310      1.0  0.90270  0.48629  0.19634  1.0000
  C   C311      1.0  0.00152  0.45068  0.19836  1.0000
  H   H501      1.0  0.92796  0.46096  0.37360  1.0000
  C   C312      1.0  0.91843  0.46001  0.06590  1.0000
  C   C313      1.0  0.91632  0.52805  0.35535  1.0000
  C   C314      1.0  0.76218  0.28643  0.09757  1.0000
  S   S130      1.0  0.76209  0.36090  0.23253  1.0000
  H   H502      1.0  0.88518  0.50344  0.29406  1.0000
  N   N32       1.0  0.89111  0.49879  0.35246  1.0000
  H   H503      1.0  0.90464  0.46111  0.09291  1.0000
  C   C315      1.0  0.92891  0.38298  0.28488  1.0000
  C   C316      1.0  0.89373  0.38713  0.29714  1.0000
  C   C317      1.0  0.88637  0.38819  0.33476  1.0000
  C   C318      1.0  0.91414  0.38433  0.36011  1.0000
  C   C319      1.0  0.94935  0.38060  0.34792  1.0000
  C   C320      1.0  0.95670  0.37986  0.31031  1.0000
  H   H504      1.0  0.87204  0.38853  0.27779  1.0000
  H   H505      1.0  0.85905  0.39076  0.34417  1.0000
  H   H506      1.0  0.97096  0.37815  0.36751  1.0000
  H   H507      1.0  0.98384  0.37616  0.30094  1.0000
  H   H508      1.0  0.90318  0.45905  0.19063  1.0000
  C   C321      1.0  0.89261  0.48393  0.31506  1.0000
  C   C322      1.0  0.76035  0.31605  0.23883  1.0000
  H   H509      1.0  0.87406  0.46167  0.31186  1.0000
  H   H510      1.0  0.88165  0.45029  0.37906  1.0000
  H   H511      1.0  0.78977  0.30386  0.18984  1.0000
  S   S131      1.0  0.85902  0.32936  0.08154  1.0000
  H   H512      1.0  0.56452  0.38167  0.34465  1.0000
  H   H513      1.0  0.79688  0.32121  0.12689  1.0000
  H   H514      1.0  0.01087  0.44424  0.17022  1.0000
  H   H515      1.0  0.58750  0.32825  0.28579  1.0000
  Fe  Fe66      1.0  0.96058  0.30025  0.49766  1.0000
  H   H516      1.0  0.94408  0.52004  0.34816  1.0000
  S   S132      1.0  0.85118  0.49080  0.14335  1.0000
  C   C323      1.0  0.85441  0.51117  0.35999  1.0000
  C   C324      1.0  0.82152  0.30267  0.07728  1.0000
  C   C325      1.0  0.79398  0.30481  0.10307  1.0000
  C   C326      1.0  0.74231  0.30239  0.26907  1.0000
  H   H517      1.0  0.75470  0.41909  0.07097  1.0000
  Fe  Fe67      1.0  0.01276  0.30893  0.43544  1.0000
  N   N33       1.0  0.02890  0.44212  0.22617  1.0000
  H   H518      1.0  0.58748  0.39090  0.30259  1.0000
  C   C327      1.0  0.88063  0.50832  0.17610  1.0000
  H   H519      1.0  0.72896  0.31954  0.28818  1.0000
  H   H520      1.0  0.90703  0.31586  0.31449  1.0000
  C   C328      1.0  0.89889  0.28875  0.30888  1.0000
  C   C329      1.0  0.56102  0.32658  0.29961  1.0000
  H   H521      1.0  0.99029  0.43555  0.26907  1.0000
  C   C330      1.0  0.90103  0.47206  0.37940  1.0000
  H   H522      1.0  0.04803  0.39758  0.19645  1.0000
  H   H523      1.0  0.83467  0.48974  0.35791  1.0000
  H   H524      1.0  0.99464  0.47866  0.19909  1.0000
  C   C331      1.0  0.85997  0.28957  0.36153  1.0000
  H   H525      1.0  0.56219  0.37087  0.24317  1.0000
  C   C332      1.0  0.77709  0.29373  0.21398  1.0000
  H   H526      1.0  0.91999  0.47455  0.30826  1.0000
  S   S133      1.0  0.96976  0.30564  0.39256  1.0000
  H   H527      1.0  0.74059  0.28924  0.11699  1.0000
  C   C333      1.0  0.83657  0.30427  0.30180  1.0000
  C   C334      1.0  0.56056  0.38728  0.31502  1.0000
  S   S134      1.0  0.91268  0.29767  0.46062  1.0000
  H   H528      1.0  0.04509  0.38147  0.31454  1.0000
  C   C335      1.0  0.03748  0.40487  0.22390  1.0000
  H   H529      1.0  0.83759  0.29943  0.27168  1.0000
  H   H530      1.0  0.56576  0.31945  0.32873  1.0000
  S   S135      1.0  0.95845  0.29286  0.55855  1.0000
  H   H531      1.0  0.93901  0.43925  0.06733  1.0000
  H   H532      1.0  0.86050  0.41877  0.06763  1.0000
  H   H533      1.0  0.83279  0.28427  0.37251  1.0000
  H   H534      1.0  0.90145  0.28422  0.27883  1.0000
  H   H535      1.0  0.01603  0.33757  0.60678  1.0000
  H   H536      1.0  0.00912  0.38266  0.65633  1.0000
  H   H537      1.0  0.02834  0.29599  0.69695  1.0000
  H   H538      1.0  0.93244  0.48507  0.06230  1.0000
  H   H539      1.0  0.98634  0.30951  0.71543  1.0000
  C   C336      1.0  0.74260  0.41594  0.04321  1.0000
  C   C337      1.0  0.78154  0.36800  0.02921  1.0000
  Fe  Fe68      1.0  0.00112  0.39090  0.87971  1.0000
  S   S136      1.0  0.98651  0.42271  0.83071  1.0000
  Fe  Fe69      1.0  0.92583  0.39511  0.91115  1.0000
  S   S137      1.0  0.90542  0.42681  0.86443  1.0000
  S   S138      1.0  0.89056  0.37673  0.95667  1.0000
  Fe  Fe70      1.0  0.93695  0.39010  0.82936  1.0000
  S   S139      1.0  0.91295  0.36747  0.77782  1.0000
  Fe  Fe71      1.0  0.95708  0.45563  0.87120  1.0000
  H   H540      1.0  0.69906  0.38467  0.99409  1.0000
  S   S140      1.0  0.95344  0.35604  0.87593  1.0000
  S   S141      1.0  0.97545  0.42646  0.92061  1.0000
  S   S142      1.0  0.96378  0.51312  0.87329  1.0000
  H   H541      1.0  0.74198  0.39215  0.97345  1.0000
  H   H542      1.0  0.92622  0.47808  0.99561  1.0000
  H   H543      1.0  0.87749  0.50692  0.03076  1.0000
  H   H544      1.0  0.75750  0.43298  0.02410  1.0000
  H   H545      1.0  0.90511  0.48317  0.91385  1.0000
  H   H546      1.0  0.55772  0.33385  0.94529  1.0000
  C   C338      1.0  0.77797  0.34818  0.91876  1.0000
  C   C339      1.0  0.79556  0.32847  0.94527  1.0000
  C   C340      1.0  0.83028  0.33719  0.95653  1.0000
  C   C341      1.0  0.84768  0.36554  0.94120  1.0000
  C   C342      1.0  0.83014  0.38532  0.91471  1.0000
  C   C343      1.0  0.79532  0.37669  0.90357  1.0000
  C   C344      1.0  0.88391  0.52422  0.94737  1.0000
  H   H547      1.0  0.84366  0.32209  0.97735  1.0000
  H   H548      1.0  0.84295  0.40780  0.90343  1.0000
  H   H549      1.0  0.78175  0.39229  0.88331  1.0000
  C   C345      1.0  0.92678  0.32499  0.76887  1.0000
  C   C346      1.0  0.95338  0.30948  0.79007  1.0000
  C   C347      1.0  0.91134  0.30649  0.73990  1.0000
  H   H550      1.0  0.96579  0.32353  0.81197  1.0000
  H   H551      1.0  0.89094  0.31845  0.72312  1.0000
  C   C348      1.0  0.72406  0.35770  0.05694  1.0000
  N   N34       1.0  0.74391  0.37955  0.03089  1.0000
  H   H552      1.0  0.04777  0.31651  0.63649  1.0000
  H   H553      1.0  0.94250  0.34079  0.67447  1.0000
  H   H554      1.0  0.79713  0.38295  0.00881  1.0000
  H   H555      1.0  0.89523  0.39815  0.04150  1.0000
  H   H556      1.0  0.93210  0.43205  0.99912  1.0000
  C   C349      1.0  0.95939  0.33287  0.65073  1.0000
  C   C350      1.0  0.01073  0.36161  0.67687  1.0000
  C   C351      1.0  0.90801  0.50976  0.92210  1.0000
  H   H557      1.0  0.85629  0.41369  0.01866  1.0000
  H   H558      1.0  0.72831  0.34917  0.98415  1.0000
  C   C352      1.0  0.86535  0.48108  0.03560  1.0000
  H   H559      1.0  0.79516  0.37062  0.05623  1.0000
  H   H560      1.0  0.01029  0.29311  0.61816  1.0000
  C   C353      1.0  0.87535  0.41967  0.04125  1.0000
  H   H561      1.0  0.99506  0.36987  0.70139  1.0000
  H   H562      1.0  0.86212  0.50892  0.95784  1.0000
  S   S143      1.0  0.73389  0.33870  0.90524  1.0000
  C   C354      1.0  0.91201  0.45330  0.00042  1.0000
  H   H563      1.0  0.02869  0.33658  0.75854  1.0000
  H   H564      1.0  0.95634  0.35268  0.62896  1.0000
  Fe  Fe72      1.0  0.70949  0.29077  0.92925  1.0000
  C   C355      1.0  0.05016  0.34066  0.77791  1.0000
  H   H565      1.0  0.01474  0.35570  0.82127  1.0000
  H   H566      1.0  0.78228  0.30704  0.95794  1.0000
  H   H567      1.0  0.69570  0.36606  0.05956  1.0000
  H   H568      1.0  0.83790  0.33327  0.85581  1.0000
  H   H569      1.0  0.89331  0.44922  0.97700  1.0000
  H   H570      1.0  0.87789  0.31975  0.83287  1.0000
  C   C356      1.0  0.01885  0.31857  0.62939  1.0000
  C   C357      1.0  0.04214  0.35152  0.81352  1.0000
  H   H571      1.0  0.03918  0.35932  0.68565  1.0000
  N   N35       1.0  0.99725  0.32863  0.66164  1.0000
  C   C358      1.0  0.00003  0.30150  0.68978  1.0000
  H   H572      1.0  0.71457  0.42559  0.04465  1.0000
  C   C359      1.0  0.85600  0.31084  0.85117  1.0000
  N   N36       1.0  0.89277  0.45351  0.03579  1.0000
  C   C360      1.0  0.72755  0.37638  0.99412  1.0000
  H   H573      1.0  0.94816  0.30844  0.63945  1.0000
  S   S144      1.0  0.67210  0.29244  0.97723  1.0000
  H   H574      1.0  0.78339  0.34035  0.02105  1.0000
  H   H575      1.0  0.84521  0.47672  0.01358  1.0000
  H   H576      1.0  0.86822  0.30421  0.87809  1.0000
  C   C361      1.0  0.93494  0.53013  0.90671  1.0000
  H   H577      1.0  0.85083  0.48249  0.06220  1.0000
  H   H578      1.0  0.72382  0.33020  0.04774  1.0000
  H   H579      1.0  0.80052  0.31310  0.80397  1.0000
  H   H580      1.0  0.78806  0.29081  0.86536  1.0000
  H   H581      1.0  0.84068  0.30082  0.78021  1.0000
  C   C362      1.0  0.82007  0.29171  0.79991  1.0000
  C   C363      1.0  0.85326  0.75318  0.48073  1.0000
  C   C364      1.0  0.91449  0.77217  0.48604  1.0000
  N   N37       1.0  0.88279  0.76042  0.50663  1.0000
  H   H582      1.0  0.91424  0.73344  0.54672  1.0000
  H   H583      1.0  0.86145  0.62685  0.16190  1.0000
  S   S145      1.0  0.72498  0.73617  0.24324  1.0000
  H   H584      1.0  0.60552  0.77880  0.33321  1.0000
  H   H585      1.0  0.85081  0.74878  0.39332  1.0000
  H   H586      1.0  0.92267  0.75300  0.46474  1.0000
  S   S146      1.0  0.66769  0.77572  0.15979  1.0000
  H   H587      1.0  0.90103  0.59555  0.11743  1.0000
  H   H588      1.0  0.87107  0.74596  0.26921  1.0000
  S   S147      1.0  0.04471  0.68720  0.27709  1.0000
  H   H589      1.0  0.91689  0.53921  0.38351  1.0000
  H   H590      1.0  0.90880  0.54926  0.33631  1.0000
  H   H591      1.0  0.87497  0.68786  0.11329  1.0000
  H   H592      1.0  0.82872  0.74462  0.49527  1.0000
  H   H593      1.0  0.88964  0.76472  0.31003  1.0000
  Fe  Fe73      1.0  0.94355  0.60676  0.27593  1.0000
  S   S148      1.0  0.96412  0.64069  0.23136  1.0000
  S   S149      1.0  0.94899  0.54935  0.27017  1.0000
  Fe  Fe74      1.0  0.91922  0.66735  0.32283  1.0000
  S   S150      1.0  0.93866  0.70617  0.28235  1.0000
  S   S151      1.0  0.88977  0.68819  0.37175  1.0000
  Fe  Fe75      1.0  0.91379  0.67112  0.24071  1.0000
  S   S152      1.0  0.88119  0.69414  0.19512  1.0000
  Fe  Fe76      1.0  0.98684  0.67199  0.27771  1.0000
  S   S153      1.0  0.89101  0.63409  0.28142  1.0000
  S   S154      1.0  0.96958  0.63585  0.32206  1.0000
  H   H594      1.0  0.86874  0.71901  0.54285  1.0000
  C   C365      1.0  0.88110  0.54382  0.18348  1.0000
  C   C366      1.0  0.90281  0.55696  0.21182  1.0000
  H   H595      1.0  0.84613  0.77658  0.46463  1.0000
  C   C367      1.0  0.88129  0.60175  0.09553  1.0000
  C   C368      1.0  0.84277  0.63136  0.13858  1.0000
  H   H596      1.0  0.86383  0.56087  0.16820  1.0000
  H   H597      1.0  0.90264  0.58429  0.21791  1.0000
  H   H598      1.0  0.82281  0.66697  0.07819  1.0000
  C   C369      1.0  0.90359  0.73082  0.37926  1.0000
  C   C370      1.0  0.87860  0.75584  0.38991  1.0000
  H   H599      1.0  0.93781  0.77623  0.50457  1.0000
  H   H600      1.0  0.90862  0.65818  0.12812  1.0000
  C   C371      1.0  0.95002  0.77454  0.37931  1.0000
  C   C372      1.0  0.92384  0.53447  0.23278  1.0000
  C   C373      1.0  0.93923  0.74027  0.37355  1.0000
  C   C374      1.0  0.76711  0.72219  0.22834  1.0000
  C   C375      1.0  0.77963  0.73035  0.19330  1.0000
  C   C376      1.0  0.81455  0.72114  0.18294  1.0000
  C   C377      1.0  0.83703  0.70406  0.20771  1.0000
  C   C378      1.0  0.82425  0.69567  0.24252  1.0000
  C   C379      1.0  0.78931  0.70446  0.25272  1.0000
  C   C380      1.0  0.02655  0.75311  0.29989  1.0000
  H   H601      1.0  0.82424  0.72768  0.15591  1.0000
  H   H602      1.0  0.84139  0.68301  0.26198  1.0000
  H   H603      1.0  0.77977  0.69825  0.27988  1.0000
  H   H604      1.0  0.90076  0.70768  0.50795  1.0000
  H   H605      1.0  0.84658  0.78031  0.54752  1.0000
  H   H606      1.0  0.82768  0.65544  0.14502  1.0000
  H   H607      1.0  0.76246  0.74378  0.17418  1.0000
  H   H608      1.0  0.90280  0.66692  0.07997  1.0000
  H   H609      1.0  0.66712  0.76460  0.34915  1.0000
  H   H610      1.0  0.95863  0.72109  0.36494  1.0000
  H   H611      1.0  0.82326  0.60972  0.13784  1.0000
  H   H612      1.0  0.84499  0.74768  0.31043  1.0000
  C   C381      1.0  0.88840  0.66296  0.10628  1.0000
  N   N38       1.0  0.86229  0.63443  0.10357  1.0000
  H   H613      1.0  0.99965  0.74755  0.29113  1.0000
  C   C382      1.0  0.89198  0.72867  0.52691  1.0000
  H   H614      1.0  0.86231  0.57968  0.09338  1.0000
  H   H615      1.0  0.81598  0.62127  0.07129  1.0000
  H   H616      1.0  0.89595  0.60317  0.06901  1.0000
  C   C383      1.0  0.83666  0.64177  0.07376  1.0000
  H   H617      1.0  0.86070  0.73241  0.46088  1.0000
  C   C384      1.0  0.86464  0.76219  0.29360  1.0000
  C   C385      1.0  0.81729  0.77905  0.09174  1.0000
  H   H618      1.0  0.97766  0.78163  0.37495  1.0000
  H   H619      1.0  0.79652  0.77810  0.27758  1.0000
  Fe  Fe77      1.0  0.70425  0.77915  0.20847  1.0000
  H   H620      1.0  0.82207  0.77652  0.23603  1.0000
  H   H621      1.0  0.83995  0.78289  0.10981  1.0000
  H   H622      1.0  0.86847  0.76284  0.84624  1.0000
  H   H623      1.0  0.88981  0.78094  0.78501  1.0000
  H   H624      1.0  0.00992  0.57459  0.86574  1.0000
  C   C386      1.0  0.84051  0.76747  0.83689  1.0000
  H   H625      1.0  0.98679  0.73330  0.84031  1.0000
  C   C387      1.0  0.96028  0.61847  0.83821  1.0000
  Fe  Fe78      1.0  0.94722  0.76516  0.70583  1.0000
  Fe  Fe79      1.0  0.89802  0.68789  0.93012  1.0000
  S   S155      1.0  0.85697  0.64974  0.91108  1.0000
  S   S156      1.0  0.94668  0.70147  0.89748  1.0000
  Fe  Fe80      1.0  0.85645  0.70617  0.99903  1.0000
  S   S157      1.0  0.81111  0.67042  0.98491  1.0000
  C   C388      1.0  0.00424  0.59540  0.79636  1.0000
  Fe  Fe81      1.0  0.85513  0.63367  0.96998  1.0000
  S   S158      1.0  0.85578  0.57816  0.98697  1.0000
  Fe  Fe82      1.0  0.81769  0.69066  0.92768  1.0000
  S   S159      1.0  0.77481  0.70908  0.88904  1.0000
  S   S160      1.0  0.90003  0.66813  0.98768  1.0000
  S   S161      1.0  0.85912  0.72996  0.94331  1.0000
  H   H626      1.0  0.73708  0.76622  0.02576  1.0000
  H   H627      1.0  0.60190  0.77912  0.96407  1.0000
  S   S162      1.0  0.99209  0.75633  0.66613  1.0000
  C   C389      1.0  0.79071  0.75113  0.03899  1.0000
  C   C390      1.0  0.76344  0.75087  0.90304  1.0000
  S   S163      1.0  0.91364  0.72281  0.72941  1.0000
  H   H628      1.0  0.03306  0.59383  0.78888  1.0000
  H   H629      1.0  0.79256  0.73312  0.01663  1.0000
  N   N39       1.0  0.99887  0.61688  0.82951  1.0000
  H   H630      1.0  0.97535  0.73896  0.77369  1.0000
  S   S164      1.0  0.86044  0.73563  0.05207  1.0000
  H   H631      1.0  0.03183  0.76161  0.76286  1.0000
  C   C391      1.0  0.75924  0.76991  0.04430  1.0000
  C   C392      1.0  0.93668  0.70819  0.85107  1.0000
  C   C393      1.0  0.90447  0.69657  0.83586  1.0000
  C   C394      1.0  0.89784  0.70025  0.79826  1.0000
  C   C395      1.0  0.92320  0.71608  0.77585  1.0000
  C   C396      1.0  0.95530  0.72778  0.79105  1.0000
  C   C397      1.0  0.96192  0.72412  0.82864  1.0000
  H   H632      1.0  0.88468  0.68450  0.85282  1.0000
  H   H633      1.0  0.87288  0.69117  0.78663  1.0000
  C   C398      1.0  0.01864  0.60161  0.86059  1.0000
  H   H634      1.0  0.01429  0.61677  0.88626  1.0000
  C   C399      1.0  0.88698  0.55896  0.95746  1.0000
  C   C400      1.0  0.91446  0.57898  0.94278  1.0000
  C   C401      1.0  0.93850  0.56455  0.91771  1.0000
  H   H635      1.0  0.91725  0.60572  0.95058  1.0000
  H   H636      1.0  0.95974  0.58021  0.90693  1.0000
  C   C402      1.0  0.77102  0.76093  0.93888  1.0000
  H   H637      1.0  0.78982  0.77417  0.78613  1.0000
  H   H638      1.0  0.82989  0.74233  0.82662  1.0000
  H   H639      1.0  0.99439  0.56857  0.80067  1.0000
  H   H640      1.0  0.67506  0.77142  0.03240  1.0000
  H   H641      1.0  0.98954  0.60624  0.77246  1.0000
  H   H642      1.0  0.95529  0.63344  0.86385  1.0000
  H   H643      1.0  0.74300  0.76696  0.85064  1.0000
  H   H644      1.0  0.94885  0.59219  0.84207  1.0000
  H   H645      1.0  0.78133  0.74221  0.95784  1.0000
  H   H646      1.0  0.65759  0.74524  0.95424  1.0000
  H   H647      1.0  0.94480  0.63125  0.81598  1.0000
  H   H648      1.0  0.04370  0.72036  0.81295  1.0000
  H   H649      1.0  0.82443  0.77471  0.86138  1.0000
  H   H650      1.0  0.67885  0.78066  0.93134  1.0000
  H   H651      1.0  0.04146  0.65186  0.81600  1.0000
  H   H652      1.0  0.63271  0.75450  0.01772  1.0000
  C   C403      1.0  0.64913  0.77836  0.01942  1.0000
  H   H653      1.0  0.85227  0.75907  0.76485  1.0000
  H   H654      1.0  0.00919  0.66881  0.84761  1.0000
  H   H655      1.0  0.99812  0.66466  0.79977  1.0000
  C   C404      1.0  0.01245  0.65207  0.82288  1.0000
  H   H656      1.0  0.85057  0.64317  0.04693  1.0000
  H   H657      1.0  0.69962  0.76149  0.97056  1.0000
  C   C405      1.0  0.67340  0.76919  0.95871  1.0000
  C   C406      1.0  0.74929  0.77488  0.87840  1.0000
  C   C407      1.0  0.81988  0.75599  0.06221  1.0000
  H   H658      1.0  0.04797  0.60119  0.85532  1.0000
  S   S165      1.0  0.66825  0.86158  0.16047  1.0000
  C   C408      1.0  0.01710  0.85766  0.47507  1.0000
  Fe  Fe83      1.0  0.70182  0.81852  0.13779  1.0000
  H   H659      1.0  0.73947  0.83341  0.26774  1.0000
  H   H660      1.0  0.82167  0.02262  0.21327  1.0000
  C   C409      1.0  0.87150  0.78756  0.53287  1.0000
  C   C410      1.0  0.57093  0.84636  0.23360  1.0000
  C   C411      1.0  0.59750  0.86910  0.24587  1.0000
  C   C412      1.0  0.59413  0.88578  0.27985  1.0000
  C   C413      1.0  0.79341  0.02613  0.22212  1.0000
  H   H661      1.0  0.62084  0.87377  0.22921  1.0000
  H   H662      1.0  0.61507  0.90285  0.28939  1.0000
  S   S166      1.0  0.57793  0.82175  0.19379  1.0000
  N   N40       1.0  0.64483  0.81587  0.35107  1.0000
  H   H663      1.0  0.60278  0.02309  0.39010  1.0000
  H   H664      1.0  0.01731  0.82013  0.41164  1.0000
  C   C414      1.0  0.61350  0.80606  0.32853  1.0000
  H   H665      1.0  0.61899  0.80892  0.29872  1.0000
  Fe  Fe84      1.0  0.63734  0.81893  0.18664  1.0000
  H   H666      1.0  0.89230  0.79217  0.55415  1.0000
  C   C415      1.0  0.87764  0.81387  0.25978  1.0000
  N   N41       1.0  0.59419  0.01770  0.33199  1.0000
  H   H667      1.0  0.73632  0.01355  0.26399  1.0000
  S   S167      1.0  0.67050  0.81798  0.23759  1.0000
  C   C416      1.0  0.78552  0.79769  0.09740  1.0000
  C   C417      1.0  0.61680  0.02753  0.36366  1.0000
  Fe  Fe85      1.0  0.70415  0.85709  0.20934  1.0000
  H   H668      1.0  0.68337  0.79303  0.31442  1.0000
  H   H669      1.0  0.90921  0.79702  0.47177  1.0000
  H   H670      1.0  0.01279  0.83707  0.49576  1.0000
  H   H671      1.0  0.82275  0.96873  0.24818  1.0000
  H   H672      1.0  0.63920  0.00865  0.29662  1.0000
  H   H673      1.0  0.78386  0.81618  0.11957  1.0000
  C   C418      1.0  0.65585  0.85146  0.34208  1.0000
  H   H674      1.0  0.65830  0.82156  0.40810  1.0000
  H   H675      1.0  0.83093  0.84255  0.30857  1.0000
  C   C419      1.0  0.67473  0.79182  0.34359  1.0000
  C   C420      1.0  0.73656  0.88663  0.28517  1.0000
  H   H676      1.0  0.86844  0.82293  0.33115  1.0000
  S   S168      1.0  0.74116  0.81833  0.18435  1.0000
  H   H677      1.0  0.78213  0.94590  0.25734  1.0000
  H   H678      1.0  0.64214  0.01232  0.36415  1.0000
  H   H679      1.0  0.79209  0.98452  0.28207  1.0000
  Fe  Fe86      1.0  0.85384  0.94478  0.39521  1.0000
  S   S169      1.0  0.81160  0.93502  0.43770  1.0000
  S   S170      1.0  0.85581  0.99255  0.36068  1.0000
  Fe  Fe87      1.0  0.89296  0.87743  0.41109  1.0000
  S   S171      1.0  0.85387  0.86211  0.45427  1.0000
  S   S172      1.0  0.93904  0.84218  0.39823  1.0000
  Fe  Fe88      1.0  0.81250  0.88090  0.41504  1.0000
  C   C421      1.0  0.75659  0.79329  0.07340  1.0000
  Fe  Fe89      1.0  0.85782  0.91750  0.47222  1.0000
  C   C422      1.0  0.74197  0.85124  0.29046  1.0000
  S   S173      1.0  0.85130  0.89211  0.36999  1.0000
  S   S174      1.0  0.90010  0.93164  0.43159  1.0000
  H   H680      1.0  0.75543  0.81144  0.32917  1.0000
  H   H681      1.0  0.01401  0.80517  0.31739  1.0000
  H   H682      1.0  0.80577  0.81708  0.25297  1.0000
  H   H683      1.0  0.67936  0.85969  0.35869  1.0000
  H   H684      1.0  0.88373  0.79856  0.23457  1.0000
  C   C423      1.0  0.73769  0.99868  0.23791  1.0000
  H   H685      1.0  0.56972  0.97489  0.35971  1.0000
  H   H686      1.0  0.66330  0.85385  0.31267  1.0000
  H   H687      1.0  0.83037  0.02310  0.42762  1.0000
  H   H688      1.0  0.75308  0.91478  0.37208  1.0000
  C   C424      1.0  0.93894  0.85187  0.52710  1.0000
  H   H689      1.0  0.91530  0.88709  0.48938  1.0000
  C   C425      1.0  0.81307  0.00819  0.35038  1.0000
  H   H690      1.0  0.73648  0.93697  0.31063  1.0000
  C   C426      1.0  0.74842  0.00306  0.35328  1.0000
  C   C427      1.0  0.92510  0.79955  0.39024  1.0000
  C   C428      1.0  0.75510  0.86178  0.35457  1.0000
  C   C429      1.0  0.75029  0.89716  0.34918  1.0000
  H   H691      1.0  0.86819  0.83983  0.25113  1.0000
  C   C430      1.0  0.89907  0.89847  0.54473  1.0000
  S   S175      1.0  0.76731  0.84666  0.39777  1.0000
  H   H692      1.0  0.03021  0.88031  0.40578  1.0000
  C   C431      1.0  0.88929  0.79020  0.39514  1.0000
  C   C432      1.0  0.78259  0.98995  0.36088  1.0000
  H   H693      1.0  0.78536  0.96562  0.37461  1.0000
  H   H694      1.0  0.03385  0.79538  0.44968  1.0000
  C   C433      1.0  0.91770  0.88011  0.51774  1.0000
  S   S176      1.0  0.56085  0.89878  0.34506  1.0000
  S   S177      1.0  0.86747  0.92948  0.53162  1.0000
  H   H695      1.0  0.86655  0.81263  0.51894  1.0000
  H   H696      1.0  0.95137  0.83673  0.50578  1.0000
  N   N42       1.0  0.04778  0.84930  0.45117  1.0000
  H   H697      1.0  0.62660  0.78785  0.39814  1.0000
  C   C434      1.0  0.74087  0.90962  0.31452  1.0000
  H   H698      1.0  0.76180  0.98834  0.16924  1.0000
  H   H699      1.0  0.56823  0.97215  0.31071  1.0000
  C   C435      1.0  0.94298  0.84261  0.56371  1.0000
  H   H700      1.0  0.60938  0.96407  0.33449  1.0000
  H   H701      1.0  0.72249  0.01343  0.21694  1.0000
  C   C436      1.0  0.75105  0.83878  0.32521  1.0000
  H   H702      1.0  0.02133  0.88227  0.49033  1.0000
  S   S178      1.0  0.72375  0.90205  0.24213  1.0000
  H   H703      1.0  0.72328  0.97399  0.24248  1.0000
  H   H704      1.0  0.61281  0.83235  0.39682  1.0000
  H   H705      1.0  0.69842  0.79797  0.36098  1.0000
  C   C437      1.0  0.63521  0.81428  0.39031  1.0000
  H   H706      1.0  0.72493  0.98897  0.36181  1.0000
  H   H707      1.0  0.76143  0.94829  0.19363  1.0000
  C   C438      1.0  0.58504  0.98068  0.33432  1.0000
  C   C439      1.0  0.04028  0.81695  0.43087  1.0000
  C   C440      1.0  0.79389  0.97208  0.25467  1.0000
  N   N43       1.0  0.77512  0.99260  0.22649  1.0000
  C   C441      1.0  0.84338  0.81735  0.31572  1.0000
  H   H708      1.0  0.63393  0.87025  0.34756  1.0000
  H   H709      1.0  0.86969  0.80944  0.40265  1.0000
  S   S179      1.0  0.71737  0.81743  0.07865  1.0000
  C   C442      1.0  0.03474  0.78582  0.31454  1.0000
  C   C443      1.0  0.77549  0.97354  0.19126  1.0000
  H   H710      1.0  0.82481  0.80395  0.33474  1.0000
  C   C444      1.0  0.61401  0.02406  0.29767  1.0000
  H   H711      1.0  0.80329  0.96802  0.18208  1.0000
  H   H712      1.0  0.58991  0.82253  0.33504  1.0000
  C   C445      1.0  0.81730  0.79185  0.26142  1.0000
  H   H713      1.0  0.99202  0.86046  0.45872  1.0000
  N   N44       1.0  0.85069  0.79632  0.28265  1.0000
  H   H714      1.0  0.90331  0.81737  0.27496  1.0000
  C   C446      1.0  0.56376  0.88031  0.30127  1.0000
  H   H715      1.0  0.59774  0.01708  0.27314  1.0000
  Fe  Fe90      1.0  0.69155  0.94740  0.85356  1.0000
  S   S180      1.0  0.63448  0.96484  0.84924  1.0000
  S   S181      1.0  0.70784  0.89220  0.84554  1.0000
  S   S182      1.0  0.79362  0.02143  0.88157  1.0000
  H   H716      1.0  0.85201  0.84802  0.80270  1.0000
  H   H717      1.0  0.70294  0.82040  0.99778  1.0000
  C   C447      1.0  0.61029  0.93496  0.87513  1.0000
  C   C448      1.0  0.62793  0.91537  0.90170  1.0000
  C   C449      1.0  0.60926  0.89068  0.92181  1.0000
  C   C450      1.0  0.57295  0.88505  0.91508  1.0000
  H   H718      1.0  0.73487  0.82817  0.87003  1.0000
  C   C451      1.0  0.57377  0.92983  0.86877  1.0000
  H   H719      1.0  0.65603  0.91914  0.90688  1.0000
  H   H720      1.0  0.62310  0.87599  0.94252  1.0000
  H   H721      1.0  0.86323  0.81155  0.03640  1.0000
  C   C452      1.0  0.80147  0.79895  0.79603  1.0000
  Fe  Fe91      1.0  0.01960  0.79769  0.69855  1.0000
  H   H722      1.0  0.67216  0.03019  0.89582  1.0000
  H   H723      1.0  0.83077  0.88770  0.95862  1.0000
  H   H724      1.0  0.90751  0.00745  0.62310  1.0000
  C   C453      1.0  0.85226  0.82738  0.82373  1.0000
  S   S183      1.0  0.72235  0.95414  0.90582  1.0000
  H   H725      1.0  0.79121  0.84528  0.01252  1.0000
  S   S184      1.0  0.73420  0.96839  0.81713  1.0000
  Fe  Fe92      1.0  0.95357  0.84322  0.70305  1.0000
  S   S185      1.0  0.93504  0.89365  0.72709  1.0000
  S   S186      1.0  0.99997  0.84152  0.66447  1.0000
  H   H726      1.0  0.88942  0.90390  0.60255  1.0000
  S   S187      1.0  0.74957  0.86263  0.94009  1.0000
  C   C454      1.0  0.90704  0.98107  0.69151  1.0000
  C   C455      1.0  0.85754  0.94784  0.66777  1.0000
  S   S188      1.0  0.77013  0.88710  0.76214  1.0000
  S   S189      1.0  0.79061  0.91851  0.86296  1.0000
  C   C456      1.0  0.87591  0.87671  0.01688  1.0000
  H   H727      1.0  0.88216  0.81104  0.99130  1.0000
  C   C457      1.0  0.85043  0.01375  0.78815  1.0000
  H   H728      1.0  0.81981  0.98006  0.82265  1.0000
  H   H729      1.0  0.66286  0.84465  0.00566  1.0000
  H   H730      1.0  0.67919  0.83884  0.95981  1.0000
  Fe  Fe93      1.0  0.76638  0.97136  0.86894  1.0000
  C   C458      1.0  0.92638  0.86242  0.59111  1.0000
  Fe  Fe94      1.0  0.74282  0.90077  0.89456  1.0000
  H   H731      1.0  0.92987  0.85599  0.61954  1.0000
  C   C459      1.0  0.81554  0.89088  0.75153  1.0000
  C   C460      1.0  0.83801  0.91268  0.77172  1.0000
  C   C461      1.0  0.87476  0.91384  0.76400  1.0000
  C   C462      1.0  0.88905  0.89285  0.73630  1.0000
  C   C463      1.0  0.86634  0.87172  0.71563  1.0000
  C   C464      1.0  0.82969  0.87077  0.72313  1.0000
  H   H732      1.0  0.82709  0.92846  0.79337  1.0000
  H   H733      1.0  0.89209  0.93064  0.77982  1.0000
  H   H734      1.0  0.87669  0.85693  0.69301  1.0000
  H   H735      1.0  0.81228  0.85427  0.70704  1.0000
  H   H736      1.0  0.81672  0.85517  0.05260  1.0000
  C   C465      1.0  0.75310  0.81958  0.92530  1.0000
  H   H737      1.0  0.79955  0.81780  0.77320  1.0000
  C   C466      1.0  0.89286  0.98274  0.62694  1.0000
  H   H738      1.0  0.60458  0.82156  0.98381  1.0000
  N   N45       1.0  0.84721  0.85417  0.00251  1.0000
  H   H739      1.0  0.91202  0.96130  0.62143  1.0000
  H   H740      1.0  0.85749  0.99349  0.76904  1.0000
  H   H741      1.0  0.83079  0.01015  0.65106  1.0000
  C   C467      1.0  0.82019  0.03180  0.84378  1.0000
  H   H742      1.0  0.80523  0.88855  0.02034  1.0000
  C   C468      1.0  0.84165  0.86126  0.96313  1.0000
  H   H743      1.0  0.02812  0.89393  0.73313  1.0000
  N   N46       1.0  0.87771  0.98041  0.66426  1.0000
  S   S190      1.0  0.92028  0.80513  0.67146  1.0000
  H   H744      1.0  0.03792  0.87945  0.77876  1.0000
  C   C469      1.0  0.55502  0.90488  0.88879  1.0000
  C   C470      1.0  0.82908  0.00605  0.81847  1.0000
  H   H745      1.0  0.71391  0.02082  0.87377  1.0000
  C   C471      1.0  0.85766  0.81763  0.00716  1.0000
  C   C472      1.0  0.85340  0.00992  0.67091  1.0000
  Fe  Fe95      1.0  0.75412  0.91388  0.81426  1.0000
  H   H746      1.0  0.87161  0.98116  0.60553  1.0000
  H   H747      1.0  0.83542  0.83648  0.84701  1.0000
  H   H748      1.0  0.88029  0.82479  0.83368  1.0000
  S   S191      1.0  0.97648  0.80376  0.74078  1.0000
  H   H749      1.0  0.89665  0.97868  0.71995  1.0000
  H   H750      1.0  0.84497  0.94570  0.69532  1.0000
  H   H751      1.0  0.86045  0.80363  0.75464  1.0000
  H   H752      1.0  0.86694  0.85870  0.94732  1.0000
  H   H753      1.0  0.87538  0.92506  0.66411  1.0000
  H   H754      1.0  0.88048  0.87228  0.04666  1.0000
  C   C473      1.0  0.81377  0.86114  0.02294  1.0000
  C   C474      1.0  0.74474  0.80949  0.88937  1.0000
  H   H755      1.0  0.82224  0.84287  0.95080  1.0000
  H   H756      1.0  0.86911  0.90448  0.01320  1.0000
  H   H757      1.0  0.77105  0.80221  0.97803  1.0000
  H   H758      1.0  0.92618  0.95940  0.68714  1.0000
  H   H759      1.0  0.84188  0.00910  0.69907  1.0000
  H   H760      1.0  0.90171  0.87175  0.00256  1.0000
  Fe  Fe96      1.0  0.96847  0.80072  0.63540  1.0000
  C   C475      1.0  0.90394  0.89004  0.58158  1.0000
  C   C476      1.0  0.67575  0.82580  0.98669  1.0000
  H   H761      1.0  0.83581  0.94586  0.64697  1.0000
  H   H762      1.0  0.83614  0.79981  0.99773  1.0000
  H   H763      1.0  0.92226  0.00572  0.69043  1.0000
  H   H764      1.0  0.62202  0.81344  0.93880  1.0000
  H   H765      1.0  0.56041  0.94423  0.84756  1.0000
  C   C477      1.0  0.76534  0.79496  0.95014  1.0000
  N   N47       1.0  0.83886  0.79445  0.80840  1.0000
  H   H766      1.0  0.78416  0.80896  0.81845  1.0000
  H   H767      1.0  0.63557  0.79672  0.03850  1.0000
  C   C478      1.0  0.61925  0.80229  0.96674  1.0000
  S   S192      1.0  0.96596  0.80452  0.57439  1.0000
  N   N48       1.0  0.65442  0.79387  0.98290  1.0000
  C   C479      1.0  0.04717  0.87836  0.74980  1.0000
  H   H768      1.0  0.04471  0.85108  0.74054  1.0000
  C   C480      1.0  0.86128  0.78409  0.77687  1.0000
