data_image0
_chemical_formula_structural       FeHSH4SCFeCSCHSH5CFeNCH3CHCHSC2H3SHCHNC6HCHCFeH6C2HC3NHCHCHSCH6NCH2NHCH5FeH4CHCH2FeH2SCHSCSHFeSC2H2SH3C3HCHSHC2H2CNHSCSC3HS2FeSFeSFeS2FeSCFeCFeS3CH4C7H2CHC2H2CHSFeHCH3CHSH3CH3FeCH4CH3C4H3C2NH2NSCH3CHSH2C4SH4C2H4CHCHNH4CFeS2FeSNFeNFeSHSH4CHFeCH3CHC4H4C3HCH6C2H3SCH2CH2FeHC5HC2H2NHCH5CNHSC2H2SHCSH8CSCHSFeSCH2S2H6C3HFeH2C5HC2HNH2CHCH2CSCH5CFeS2H2CHNH2S2H5CHC2HCH5CFeCHCHCHCHC5SHSHC2SH4C3NH2C2HCHC3H2CHC2NHCHCHCH4C2HCH7C2Fe2HC2SCHFeH6SFeS2FeSFeSCSCHC3H2CH3NHSHCSCSH3C2H2SH2SHSH5C2Fe2H3SHCSC2H2SH2SHC2H3CSHFeCH3NSFeSHCHCHS2H2SFeHCFeH3C2HFeS2FeS2FeCFeHS2CSH2C2HCHCH3CH3C3H2CH4CHCHC2HS2HC3H2NCHCFeHCH2CH9CH4C2H2CH3SCH2CH7C3H2FeS2FeS2FeSFeS5FeHFeSCH3C7H4C2HC2H2FeSCH2CH3NC3HC3H4FeCHS2CHC2H4SCH2CH4SN2H4CHCH2CH8CHFeSHFeSFeSFeHS2C3H2SH3S2C2FeS2FeS2FeSFeS3CH3C2HC3H2C7NH3CH5CH4C5H3CHC2NCH2C2NH4CH4CHCHCHCHCH2CH2CNHCFeHSFeH3SH2CH2SH2CSC3FeSCFeHC5SHCHCH7C2HNH2SFeHSFeHSH2NHS2HNHCHC2SH6CHSH4C3HSH4CNHCHCHCHC3SHFeH2CH4FeHC2H4C2NC2SH2CHCSHC2HC3H6CSH2CHSH3NCHSH2CHFeH2C2NCHCH2C2HCH2FeH2CSH2SHSC2HCH3C2H3C2H2SCHC2FeHCHCHFeS2FeSFeCHSH3CSC2NCH7CH3CHCHFeHCSH2FeHCHFeCHFeH2S2NCFeSC2HFeS2FeSFeS4HCHC2HC4H3CHC3HCH5C2H3FeC2HC2H4CHSH7CFeHCHFeH3CH2S2CHCH2C2H2CHSNCH4CHSH3CNCH2CHCHCH2CH3CSCHNH2SHCFeSHFeS2FeSHCSH2SFeCHCHSCHC6H4CHCNHCNC2SH2CNH2CHC2H2CH2C2H2C2H6CH2CFeHNH2SH6CFeHSHFeS2FeS2CH2C5HC2H4C2HNH5CH4C2HSH2CH3CH2SCH6CFeS2Fe3HS3H4C2HCH3CH4CHCH2FeCSHCHC3HCH2CHCHCH3NC2SC2H2FeCFeNSH2S2C4H3CHCHSHCFeSHNCH4CH2C2HCHCSH2CH4CNH2SH3CH4NC3H2S2HS2FeH4S2H4FeCHCHSCH5CH6CH2CHFeS2FeS2FeHFeS3C2SC3H5CHC2HCHCNC2H2C2SNH2FeH2CH2SNCHFeCH3C2HC3H3CSHCSCHCH2SC3S2C2FeSC2FeCH2CH4CHSFeS2FeS2FeSFeS3CH3FeSHCHCHC6H4C3HC2FeHSHC2H6CH4CH3NC2H3CH3CH6CNHN2H2CHC3H3CH9NHC2HCFeC2FeS2CFeSCHSH2C3H3CH5FeSHNSH3CH3CH5FeS2FeS2FeSFeS3NCHCH2CSCH3C6HCH2C2H2C2H5CH2CHCH2CHCHC2H3CH2CHNH3SCH3CNCH2C2H4C2HNHCH2SC4HCFeSH2SCHCHNCH2SCH7CH2C2SHFeS2FeCSCHFeHS2CHFeH2SC2H6CHCH2C4H2CH10CHCHCSNCH2CH2CH2C2
_chemical_formula_sum              "Fe128 H1024 S256 C640 N64"
_cell_length_a       40.6181
_cell_length_b       39.3953
_cell_length_c       43.8042
_cell_angle_alpha    90.2188
_cell_angle_beta     90.1492
_cell_angle_gamma    90.1203

_space_group_name_H-M_alt    "P 1"
_space_group_IT_number       1

loop_
  _space_group_symop_operation_xyz
  'x, y, z'

loop_
  _atom_site_type_symbol
  _atom_site_label
  _atom_site_symmetry_multiplicity
  _atom_site_fract_x
  _atom_site_fract_y
  _atom_site_fract_z
  _atom_site_occupancy
  Fe  Fe1       1.0  0.11126  0.24293  0.23127  1.0000
  H   H1        1.0  0.14004  0.36511  0.12501  1.0000
  S   S1        1.0  0.15512  0.23914  0.20053  1.0000
  H   H2        1.0  0.57377  0.11682  0.21951  1.0000
  H   H3        1.0  0.18314  0.19070  0.10123  1.0000
  H   H4        1.0  0.56351  0.29501  0.24183  1.0000
  H   H5        1.0  0.53391  0.12462  0.08617  1.0000
  S   S2        1.0  0.48296  0.17520  0.10015  1.0000
  C   C1        1.0  0.56303  0.35059  0.06838  1.0000
  Fe  Fe2       1.0  0.53032  0.20443  0.09880  1.0000
  C   C2        1.0  0.47350  0.59471  0.19824  1.0000
  S   S3        1.0  0.11397  0.27882  0.27107  1.0000
  C   C3        1.0  0.13932  0.16773  0.11934  1.0000
  H   H6        1.0  0.46054  0.34149  0.11760  1.0000
  S   S4        1.0  0.53751  0.25668  0.11749  1.0000
  H   H7        1.0  0.53164  0.11501  0.26084  1.0000
  H   H8        1.0  0.39104  0.47013  0.12047  1.0000
  H   H9        1.0  0.52712  0.14637  0.20027  1.0000
  H   H10       1.0  0.10434  0.34626  0.30985  1.0000
  H   H11       1.0  0.10519  0.18846  0.18808  1.0000
  C   C4        1.0  0.13040  0.33698  0.19768  1.0000
  Fe  Fe3       1.0  0.56586  0.26670  0.07471  1.0000
  N   N1        1.0  0.12342  0.33790  0.16454  1.0000
  C   C5        1.0  0.48672  0.14913  0.13227  1.0000
  H   H12       1.0  0.17121  0.35772  0.15342  1.0000
  H   H13       1.0  0.15645  0.32994  0.20239  1.0000
  H   H14       1.0  0.45931  0.10755  0.11266  1.0000
  C   C6        1.0  0.08848  0.34680  0.15951  1.0000
  H   H15       1.0  0.56865  0.55063  0.10367  1.0000
  C   C7        1.0  0.14890  0.21140  0.16958  1.0000
  H   H16       1.0  0.12560  0.30394  0.12588  1.0000
  S   S5        1.0  0.49326  0.39187  0.15993  1.0000
  C   C8        1.0  0.50546  0.16010  0.15726  1.0000
  C   C9        1.0  0.56530  0.41030  0.10364  1.0000
  H   H17       1.0  0.19187  0.22881  0.14551  1.0000
  H   H18       1.0  0.08688  0.57489  0.20074  1.0000
  H   H19       1.0  0.56739  0.37694  0.14245  1.0000
  S   S6        1.0  0.48780  0.37505  0.24550  1.0000
  H   H20       1.0  0.54381  0.12284  0.29966  1.0000
  C   C10       1.0  0.12205  0.18912  0.16903  1.0000
  H   H21       1.0  0.40966  0.32945  0.08898  1.0000
  N   N2        1.0  0.57724  0.55634  0.15191  1.0000
  C   C11       1.0  0.52027  0.57077  0.23982  1.0000
  C   C12       1.0  0.54555  0.10325  0.07356  1.0000
  C   C13       1.0  0.16607  0.19012  0.11995  1.0000
  C   C14       1.0  0.47350  0.11635  0.13200  1.0000
  C   C15       1.0  0.17096  0.21176  0.14509  1.0000
  C   C16       1.0  0.11756  0.16705  0.14410  1.0000
  H   H22       1.0  0.35903  0.40715  0.06990  1.0000
  C   C17       1.0  0.40973  0.41902  0.07997  1.0000
  H   H23       1.0  0.14011  0.38940  0.15982  1.0000
  C   C18       1.0  0.57373  0.16704  0.26152  1.0000
  Fe  Fe4       1.0  0.48207  0.41137  0.20684  1.0000
  H   H24       1.0  0.41551  0.28504  0.09590  1.0000
  H   H25       1.0  0.51527  0.18565  0.15786  1.0000
  H   H26       1.0  0.54294  0.32996  0.22403  1.0000
  H   H27       1.0  0.41441  0.55619  0.09424  1.0000
  H   H28       1.0  0.36829  0.57579  0.12715  1.0000
  H   H29       1.0  0.36636  0.50015  0.07616  1.0000
  C   C19       1.0  0.54592  0.53947  0.15998  1.0000
  C   C20       1.0  0.48098  0.44546  0.31273  1.0000
  H   H30       1.0  0.35708  0.54439  0.07867  1.0000
  C   C21       1.0  0.42162  0.30608  0.07998  1.0000
  C   C22       1.0  0.39282  0.10971  0.08303  1.0000
  C   C23       1.0  0.56376  0.41219  0.07177  1.0000
  N   N3        1.0  0.36896  0.10495  0.10809  1.0000
  H   H31       1.0  0.38858  0.46071  0.30909  1.0000
  C   C24       1.0  0.48662  0.39499  0.28125  1.0000
  H   H32       1.0  0.15620  0.29632  0.15482  1.0000
  C   C25       1.0  0.57469  0.57063  0.12083  1.0000
  H   H33       1.0  0.40914  0.13199  0.08735  1.0000
  S   S7        1.0  0.41058  0.39564  0.11384  1.0000
  C   C26       1.0  0.51214  0.13787  0.18137  1.0000
  H   H34       1.0  0.43194  0.53496  0.12664  1.0000
  H   H35       1.0  0.42394  0.51178  0.09208  1.0000
  H   H36       1.0  0.09753  0.14909  0.14413  1.0000
  H   H37       1.0  0.54690  0.52880  0.18345  1.0000
  H   H38       1.0  0.49521  0.34843  0.30568  1.0000
  H   H39       1.0  0.53711  0.32226  0.26394  1.0000
  N   N4        1.0  0.38087  0.52364  0.11840  1.0000
  C   C27       1.0  0.49114  0.37550  0.30753  1.0000
  H   H40       1.0  0.11480  0.31791  0.20937  1.0000
  H   H41       1.0  0.12531  0.36189  0.20883  1.0000
  N   N5        1.0  0.58196  0.13095  0.26644  1.0000
  H   H42       1.0  0.39849  0.49273  0.15535  1.0000
  C   C28       1.0  0.13020  0.30422  0.15093  1.0000
  H   H43       1.0  0.55495  0.38162  0.27564  1.0000
  H   H44       1.0  0.11444  0.28415  0.16120  1.0000
  H   H45       1.0  0.49885  0.32309  0.10601  1.0000
  H   H46       1.0  0.46063  0.43397  0.08270  1.0000
  H   H47       1.0  0.47853  0.44526  0.26352  1.0000
  Fe  Fe5       1.0  0.51779  0.44223  0.15382  1.0000
  H   H48       1.0  0.55537  0.59059  0.11953  1.0000
  H   H49       1.0  0.35708  0.48364  0.14353  1.0000
  H   H50       1.0  0.33278  0.51402  0.09946  1.0000
  H   H51       1.0  0.57213  0.10969  0.07089  1.0000
  C   C29       1.0  0.35821  0.52047  0.09207  1.0000
  H   H52       1.0  0.56610  0.17969  0.28313  1.0000
  C   C30       1.0  0.48184  0.43006  0.28378  1.0000
  H   H53       1.0  0.53821  0.56152  0.25607  1.0000
  H   H54       1.0  0.33011  0.13306  0.12975  1.0000
  Fe  Fe6       1.0  0.44721  0.41879  0.14639  1.0000
  H   H55       1.0  0.34417  0.54526  0.14792  1.0000
  H   H56       1.0  0.46795  0.29715  0.12381  1.0000
  S   S8        1.0  0.13229  0.14049  0.08798  1.0000
  C   C31       1.0  0.43738  0.43766  0.07120  1.0000
  H   H57       1.0  0.56657  0.32433  0.11134  1.0000
  S   S9        1.0  0.47262  0.46793  0.13652  1.0000
  C   C32       1.0  0.36922  0.55087  0.13900  1.0000
  S   S10       1.0  0.43332  0.43385  0.19402  1.0000
  H   H58       1.0  0.40324  0.11994  0.14323  1.0000
  Fe  Fe7       1.0  0.46311  0.48077  0.18530  1.0000
  S   S11       1.0  0.44323  0.53327  0.19173  1.0000
  C   C33       1.0  0.49616  0.54872  0.22813  1.0000
  C   C34       1.0  0.47280  0.56070  0.20732  1.0000
  H   H59       1.0  0.49528  0.52265  0.23571  1.0000
  H   H60       1.0  0.52488  0.55752  0.15924  1.0000
  S   S12       1.0  0.51117  0.45965  0.20209  1.0000
  H   H61       1.0  0.55336  0.16997  0.24473  1.0000
  H   H62       1.0  0.36441  0.15841  0.11720  1.0000
  H   H63       1.0  0.38584  0.55392  0.15911  1.0000
  C   C35       1.0  0.41425  0.53205  0.10734  1.0000
  C   C36       1.0  0.14466  0.36369  0.15004  1.0000
  C   C37       1.0  0.38186  0.49114  0.13515  1.0000
  H   H64       1.0  0.08234  0.37189  0.16983  1.0000
  C   C38       1.0  0.55243  0.11268  0.27733  1.0000
  H   H65       1.0  0.47695  0.47252  0.31473  1.0000
  S   S13       1.0  0.56330  0.44747  0.12579  1.0000
  H   H66       1.0  0.46786  0.25711  0.08045  1.0000
  C   C39       1.0  0.47186  0.31835  0.10748  1.0000
  C   C40       1.0  0.56548  0.34871  0.10020  1.0000
  H   H67       1.0  0.54024  0.51808  0.14409  1.0000
  H   H68       1.0  0.33537  0.14186  0.08995  1.0000
  C   C41       1.0  0.55572  0.32181  0.24530  1.0000
  N   N6        1.0  0.45761  0.31062  0.07715  1.0000
  H   H69       1.0  0.55947  0.38857  0.23548  1.0000
  S   S14       1.0  0.57595  0.18315  0.12021  1.0000
  C   C42       1.0  0.50019  0.10457  0.18053  1.0000
  S   S15       1.0  0.08433  0.20238  0.25714  1.0000
  C   C43       1.0  0.57252  0.37945  0.25628  1.0000
  C   C44       1.0  0.56613  0.37852  0.11782  1.0000
  C   C45       1.0  0.34886  0.13597  0.11147  1.0000
  H   H70       1.0  0.58209  0.33348  0.30062  1.0000
  S   S16       1.0  0.43420  0.33573  0.46641  1.0000
  S   S17       1.0  0.44117  0.35624  0.39436  1.0000
  Fe  Fe8       1.0  0.40616  0.36698  0.43247  1.0000
  S   S18       1.0  0.35284  0.36424  0.41911  1.0000
  Fe  Fe9       1.0  0.47209  0.33055  0.42958  1.0000
  S   S19       1.0  0.49902  0.28136  0.42382  1.0000
  Fe  Fe10      1.0  0.18993  0.29903  0.47008  1.0000
  S   S20       1.0  0.17429  0.35312  0.47659  1.0000
  S   S21       1.0  0.20314  0.28049  0.42298  1.0000
  Fe  Fe11      1.0  0.19210  0.28501  0.53840  1.0000
  S   S22       1.0  0.17566  0.33748  0.55049  1.0000
  C   C46       1.0  0.56485  0.30670  0.47673  1.0000
  Fe  Fe12      1.0  0.14016  0.33102  0.51154  1.0000
  C   C47       1.0  0.51280  0.30164  0.50273  1.0000
  Fe  Fe13      1.0  0.21123  0.35432  0.51472  1.0000
  S   S23       1.0  0.25131  0.39203  0.52474  1.0000
  S   S24       1.0  0.15321  0.27641  0.50261  1.0000
  S   S25       1.0  0.22999  0.30227  0.50509  1.0000
  C   C48       1.0  0.16898  0.26750  0.40119  1.0000
  H   H71       1.0  0.41060  0.45380  0.39072  1.0000
  H   H72       1.0  0.34556  0.23444  0.44127  1.0000
  H   H73       1.0  0.32249  0.39747  0.52353  1.0000
  H   H74       1.0  0.29151  0.22614  0.46733  1.0000
  C   C49       1.0  0.28061  0.24382  0.45037  1.0000
  C   C50       1.0  0.32541  0.37612  0.44809  1.0000
  C   C51       1.0  0.29160  0.37455  0.44217  1.0000
  C   C52       1.0  0.26897  0.37982  0.46572  1.0000
  C   C53       1.0  0.27999  0.38807  0.49508  1.0000
  C   C54       1.0  0.31384  0.39118  0.50081  1.0000
  C   C55       1.0  0.33662  0.38479  0.47735  1.0000
  H   H75       1.0  0.28279  0.36849  0.41947  1.0000
  H   H76       1.0  0.24289  0.37765  0.46112  1.0000
  C   C56       1.0  0.56325  0.28825  0.52918  1.0000
  H   H77       1.0  0.36275  0.38609  0.48208  1.0000
  C   C57       1.0  0.31700  0.28926  0.46620  1.0000
  C   C58       1.0  0.49024  0.39089  0.33635  1.0000
  H   H78       1.0  0.27068  0.22851  0.43100  1.0000
  H   H79       1.0  0.25906  0.25628  0.46127  1.0000
  C   C59       1.0  0.13901  0.26006  0.41528  1.0000
  H   H80       1.0  0.50977  0.27492  0.49476  1.0000
  S   S26       1.0  0.08881  0.35132  0.51659  1.0000
  Fe  Fe14      1.0  0.46616  0.40407  0.40984  1.0000
  H   H81       1.0  0.53739  0.35056  0.53870  1.0000
  C   C60       1.0  0.11239  0.24811  0.39786  1.0000
  H   H82       1.0  0.33033  0.41982  0.36398  1.0000
  H   H83       1.0  0.08965  0.32415  0.39138  1.0000
  H   H84       1.0  0.27780  0.27766  0.39821  1.0000
  C   C61       1.0  0.08314  0.35059  0.38477  1.0000
  H   H85       1.0  0.36766  0.36456  0.55911  1.0000
  S   S27       1.0  0.42926  0.41635  0.44621  1.0000
  H   H86       1.0  0.32462  0.23655  0.40504  1.0000
  H   H87       1.0  0.26869  0.30680  0.42838  1.0000
  H   H88       1.0  0.19517  0.26940  0.35850  1.0000
  C   C62       1.0  0.11529  0.24456  0.36619  1.0000
  H   H89       1.0  0.55412  0.23730  0.41277  1.0000
  H   H90       1.0  0.49901  0.30483  0.52448  1.0000
  H   H91       1.0  0.33673  0.30727  0.45929  1.0000
  Fe  Fe15      1.0  0.46083  0.38444  0.47671  1.0000
  C   C63       1.0  0.41550  0.38007  0.54312  1.0000
  H   H92       1.0  0.14757  0.24946  0.32751  1.0000
  H   H93       1.0  0.35153  0.27044  0.41686  1.0000
  H   H94       1.0  0.55406  0.32354  0.45898  1.0000
  H   H95       1.0  0.53931  0.36415  0.49992  1.0000
  C   C64       1.0  0.48459  0.42573  0.33906  1.0000
  H   H96       1.0  0.29701  0.30468  0.47666  1.0000
  H   H97       1.0  0.37233  0.47626  0.39179  1.0000
  H   H98       1.0  0.49405  0.37577  0.35650  1.0000
  C   C65       1.0  0.14503  0.25264  0.35192  1.0000
  C   C66       1.0  0.54092  0.31753  0.38718  1.0000
  C   C67       1.0  0.53501  0.28691  0.40227  1.0000
  C   C68       1.0  0.17197  0.26380  0.36948  1.0000
  H   H99       1.0  0.13654  0.26264  0.43969  1.0000
  H   H100      1.0  0.41082  0.37220  0.51990  1.0000
  H   H101      1.0  0.30678  0.31054  0.40797  1.0000
  C   C69       1.0  0.34163  0.43919  0.34868  1.0000
  C   C70       1.0  0.28894  0.29204  0.41758  1.0000
  N   N7        1.0  0.30486  0.26922  0.43984  1.0000
  H   H102      1.0  0.33599  0.43168  0.32471  1.0000
  H   H103      1.0  0.56261  0.28019  0.46796  1.0000
  N   N8        1.0  0.54789  0.31077  0.50634  1.0000
  S   S28       1.0  0.50048  0.37744  0.44181  1.0000
  C   C71       1.0  0.55845  0.26095  0.40092  1.0000
  H   H104      1.0  0.08817  0.40692  0.35002  1.0000
  H   H105      1.0  0.11491  0.31720  0.33987  1.0000
  H   H106      1.0  0.32743  0.27273  0.48432  1.0000
  C   C72       1.0  0.10776  0.34392  0.33499  1.0000
  H   H107      1.0  0.52297  0.33764  0.38821  1.0000
  S   S29       1.0  0.47742  0.39815  0.52398  1.0000
  H   H108      1.0  0.57444  0.34587  0.35892  1.0000
  H   H109      1.0  0.38249  0.38820  0.36233  1.0000
  C   C73       1.0  0.33287  0.25181  0.42510  1.0000
  C   C74       1.0  0.39193  0.46759  0.33357  1.0000
  C   C75       1.0  0.39285  0.40846  0.34751  1.0000
  C   C76       1.0  0.44594  0.39424  0.55113  1.0000
  S   S30       1.0  0.47898  0.44404  0.37523  1.0000
  H   H110      1.0  0.55083  0.29021  0.55172  1.0000
  H   H111      1.0  0.50072  0.31802  0.48547  1.0000
  H   H112      1.0  0.08962  0.24139  0.40903  1.0000
  H   H113      1.0  0.09168  0.29834  0.47058  1.0000
  C   C77       1.0  0.39103  0.37585  0.56533  1.0000
  C   C78       1.0  0.55055  0.34644  0.51671  1.0000
  H   H114      1.0  0.56220  0.26114  0.52183  1.0000
  H   H115      1.0  0.32917  0.46380  0.35334  1.0000
  H   H116      1.0  0.57666  0.35421  0.52000  1.0000
  H   H117      1.0  0.37364  0.43223  0.40210  1.0000
  C   C79       1.0  0.38374  0.45143  0.38603  1.0000
  H   H118      1.0  0.41982  0.40932  0.35170  1.0000
  C   C80       1.0  0.57005  0.32212  0.37054  1.0000
  H   H119      1.0  0.12881  0.36046  0.34170  1.0000
  N   N9        1.0  0.37751  0.44169  0.35391  1.0000
  H   H120      1.0  0.10353  0.36745  0.39254  1.0000
  H   H121      1.0  0.38922  0.40050  0.32335  1.0000
  H   H122      1.0  0.38068  0.49297  0.33742  1.0000
  H   H123      1.0  0.41892  0.47030  0.33770  1.0000
  C   C81       1.0  0.21835  0.25930  0.63613  1.0000
  Fe  Fe16      1.0  0.25297  0.22595  0.75735  1.0000
  S   S31       1.0  0.20013  0.21183  0.74909  1.0000
  S   S32       1.0  0.29739  0.19940  0.73877  1.0000
  Fe  Fe17      1.0  0.23588  0.28614  0.79683  1.0000
  S   S33       1.0  0.18145  0.27789  0.79283  1.0000
  N   N10       1.0  0.26617  0.36938  0.61955  1.0000
  Fe  Fe18      1.0  0.19400  0.22289  0.79907  1.0000
  N   N11       1.0  0.22029  0.15769  0.65338  1.0000
  Fe  Fe19      1.0  0.19235  0.26779  0.74334  1.0000
  S   S34       1.0  0.15997  0.28829  0.70617  1.0000
  H   H124      1.0  0.26007  0.57633  0.72027  1.0000
  S   S35       1.0  0.24585  0.28096  0.74685  1.0000
  H   H125      1.0  0.39587  0.25847  0.77465  1.0000
  H   H126      1.0  0.37415  0.42039  0.79696  1.0000
  H   H127      1.0  0.22715  0.37031  0.58654  1.0000
  H   H128      1.0  0.33877  0.23833  0.78622  1.0000
  C   C82       1.0  0.34115  0.32363  0.77530  1.0000
  H   H129      1.0  0.23559  0.17536  0.69759  1.0000
  Fe  Fe20      1.0  0.37272  0.40988  0.66636  1.0000
  C   C83       1.0  0.39752  0.58810  0.69845  1.0000
  H   H130      1.0  0.24296  0.24950  0.63294  1.0000
  H   H131      1.0  0.50929  0.53197  0.76662  1.0000
  H   H132      1.0  0.46096  0.53112  0.80140  1.0000
  C   C84       1.0  0.29333  0.41207  0.77953  1.0000
  H   H133      1.0  0.26843  0.41483  0.59241  1.0000
  C   C85       1.0  0.26329  0.36325  0.79841  1.0000
  C   C86       1.0  0.23967  0.36765  0.77545  1.0000
  C   C87       1.0  0.24272  0.39451  0.75470  1.0000
  C   C88       1.0  0.24600  0.38466  0.64406  1.0000
  H   H134      1.0  0.43144  0.40947  0.62647  1.0000
  H   H135      1.0  0.21916  0.35020  0.77349  1.0000
  H   H136      1.0  0.22472  0.39754  0.73667  1.0000
  H   H137      1.0  0.35597  0.34169  0.76154  1.0000
  C   C89       1.0  0.17533  0.28030  0.66950  1.0000
  C   C90       1.0  0.28970  0.38595  0.80087  1.0000
  C   C91       1.0  0.31258  0.13546  0.71893  1.0000
  H   H138      1.0  0.40259  0.30211  0.76447  1.0000
  C   C92       1.0  0.16651  0.27784  0.61464  1.0000
  H   H139      1.0  0.21253  0.11761  0.68585  1.0000
  H   H140      1.0  0.44859  0.44342  0.77250  1.0000
  H   H141      1.0  0.36153  0.29575  0.72261  1.0000
  H   H142      1.0  0.35449  0.25222  0.73337  1.0000
  H   H143      1.0  0.31440  0.42880  0.78087  1.0000
  H   H144      1.0  0.25591  0.15168  0.61754  1.0000
  C   C93       1.0  0.46424  0.45974  0.75769  1.0000
  C   C94       1.0  0.39671  0.38643  0.59546  1.0000
  H   H145      1.0  0.51969  0.45980  0.79105  1.0000
  H   H146      1.0  0.24415  0.15657  0.75924  1.0000
  H   H147      1.0  0.27567  0.32326  0.64414  1.0000
  S   S36       1.0  0.36598  0.38018  0.62297  1.0000
  C   C95       1.0  0.26099  0.14143  0.74594  1.0000
  H   H148      1.0  0.44864  0.46868  0.73847  1.0000
  H   H149      1.0  0.16852  0.15770  0.64284  1.0000
  C   C96       1.0  0.42688  0.40126  0.60332  1.0000
  H   H150      1.0  0.30532  0.35659  0.65045  1.0000
  H   H151      1.0  0.24499  0.20364  0.66725  1.0000
  Fe  Fe21      1.0  0.39318  0.40689  0.73299  1.0000
  H   H152      1.0  0.22275  0.26316  0.68509  1.0000
  C   C97       1.0  0.26990  0.41631  0.75640  1.0000
  C   C98       1.0  0.38697  0.28484  0.77842  1.0000
  C   C99       1.0  0.19776  0.26369  0.61082  1.0000
  C   C100      1.0  0.28500  0.39629  0.60383  1.0000
  C   C101      1.0  0.45157  0.40490  0.58123  1.0000
  H   H153      1.0  0.31295  0.59956  0.76485  1.0000
  C   C102      1.0  0.24450  0.35206  0.59726  1.0000
  C   C103      1.0  0.29033  0.15564  0.73521  1.0000
  H   H154      1.0  0.43521  0.49401  0.80296  1.0000
  H   H155      1.0  0.15056  0.28136  0.59508  1.0000
  N   N12       1.0  0.35179  0.28821  0.77033  1.0000
  H   H156      1.0  0.30537  0.26789  0.78448  1.0000
  C   C104      1.0  0.28912  0.34447  0.63298  1.0000
  H   H157      1.0  0.21371  0.14754  0.60545  1.0000
  H   H158      1.0  0.29893  0.51176  0.70863  1.0000
  H   H159      1.0  0.18554  0.19877  0.65082  1.0000
  H   H160      1.0  0.17846  0.16971  0.68148  1.0000
  H   H161      1.0  0.23136  0.36503  0.65628  1.0000
  C   C105      1.0  0.33200  0.26545  0.78977  1.0000
  N   N13       1.0  0.47830  0.48868  0.77493  1.0000
  H   H162      1.0  0.34382  0.33134  0.79968  1.0000
  S   S37       1.0  0.34866  0.38813  0.70786  1.0000
  C   C106      1.0  0.15532  0.28618  0.64399  1.0000
  C   C107      1.0  0.20706  0.26731  0.66552  1.0000
  H   H163      1.0  0.48377  0.44330  0.74780  1.0000
  H   H164      1.0  0.13083  0.29638  0.64702  1.0000
  S   S38       1.0  0.24759  0.23209  0.80776  1.0000
  H   H165      1.0  0.33542  0.14629  0.71078  1.0000
  C   C108      1.0  0.38295  0.40235  0.81342  1.0000
  S   S39       1.0  0.41973  0.37434  0.76707  1.0000
  H   H166      1.0  0.25896  0.34035  0.57838  1.0000
  H   H167      1.0  0.30113  0.41055  0.61999  1.0000
  H   H168      1.0  0.23031  0.18860  0.61403  1.0000
  H   H169      1.0  0.26879  0.16585  0.67203  1.0000
  H   H170      1.0  0.30559  0.33340  0.61526  1.0000
  H   H171      1.0  0.25818  0.57275  0.76095  1.0000
  H   H172      1.0  0.32062  0.28104  0.73109  1.0000
  H   H173      1.0  0.25238  0.53559  0.73741  1.0000
  C   C109      1.0  0.34696  0.27894  0.73789  1.0000
  S   S40       1.0  0.27649  0.44665  0.72797  1.0000
  C   C110      1.0  0.22053  0.12136  0.66180  1.0000
  H   H174      1.0  0.34748  0.58152  0.74495  1.0000
  S   S41       1.0  0.41949  0.42391  0.69079  1.0000
  Fe  Fe22      1.0  0.39422  0.47360  0.69944  1.0000
  S   S42       1.0  0.42085  0.52338  0.70260  1.0000
  C   C111      1.0  0.31022  0.53100  0.76707  1.0000
  H   H175      1.0  0.51057  0.49690  0.81329  1.0000
  H   H176      1.0  0.33930  0.52975  0.71257  1.0000
  S   S43       1.0  0.37160  0.45777  0.74367  1.0000
  S   S44       1.0  0.34944  0.46122  0.67128  1.0000
  H   H177      1.0  0.31488  0.32716  0.76881  1.0000
  H   H178      1.0  0.22845  0.40365  0.63471  1.0000
  H   H179      1.0  0.29723  0.50611  0.76527  1.0000
  H   H180      1.0  0.30795  0.55223  0.69197  1.0000
  H   H181      1.0  0.30121  0.38551  0.58574  1.0000
  H   H182      1.0  0.33709  0.52561  0.76844  1.0000
  C   C112      1.0  0.32038  0.58552  0.74386  1.0000
  C   C113      1.0  0.39778  0.55561  0.68545  1.0000
  C   C114      1.0  0.37777  0.54843  0.66022  1.0000
  H   H183      1.0  0.37867  0.52369  0.64952  1.0000
  Fe  Fe23      1.0  0.32925  0.44062  0.71481  1.0000
  H   H184      1.0  0.30284  0.54309  0.78900  1.0000
  H   H185      1.0  0.43538  0.51995  0.76936  1.0000
  C   C115      1.0  0.40549  0.37735  0.80479  1.0000
  C   C116      1.0  0.49924  0.47574  0.79993  1.0000
  C   C117      1.0  0.24343  0.17642  0.67336  1.0000
  C   C118      1.0  0.18673  0.17151  0.65731  1.0000
  C   C119      1.0  0.35654  0.57332  0.64874  1.0000
  H   H186      1.0  0.34071  0.56747  0.62951  1.0000
  C   C120      1.0  0.45128  0.50935  0.78775  1.0000
  C   C121      1.0  0.49837  0.50987  0.75428  1.0000
  H   H187      1.0  0.41328  0.59386  0.71774  1.0000
  N   N14       1.0  0.30245  0.55302  0.74078  1.0000
  H   H188      1.0  0.26167  0.39791  0.66135  1.0000
  H   H189      1.0  0.47504  0.41601  0.58745  1.0000
  C   C122      1.0  0.31259  0.53594  0.71224  1.0000
  H   H190      1.0  0.51887  0.49507  0.74401  1.0000
  C   C123      1.0  0.26666  0.55964  0.73981  1.0000
  H   H191      1.0  0.22969  0.33161  0.60810  1.0000
  H   H192      1.0  0.48326  0.52008  0.73513  1.0000
  C   C124      1.0  0.23053  0.16148  0.62121  1.0000
  S   S45       1.0  0.21092  0.25006  0.57481  1.0000
  C   C125      1.0  0.25277  0.10787  0.73843  1.0000
  H   H193      1.0  0.39136  0.29141  0.80281  1.0000
  H   H194      1.0  0.20382  0.10613  0.64696  1.0000
  H   H195      1.0  0.24567  0.11024  0.65988  1.0000
  H   H196      1.0  0.33514  0.27165  0.81442  1.0000
  H   H197      1.0  0.48476  0.45988  0.81607  1.0000
  C   C126      1.0  0.30475  0.10155  0.71211  1.0000
  Fe  Fe24      1.0  0.19542  0.18296  0.99595  1.0000
  S   S46       1.0  0.22704  0.14034  0.97987  1.0000
  S   S47       1.0  0.19583  0.22982  0.96711  1.0000
  H   H198      1.0  0.25943  0.31590  0.89005  1.0000
  H   H199      1.0  0.20357  0.26600  0.91073  1.0000
  C   C127      1.0  0.26169  0.15524  0.90102  1.0000
  H   H200      1.0  0.50735  0.56800  0.92554  1.0000
  N   N15       1.0  0.26645  0.36510  0.91050  1.0000
  H   H201      1.0  0.26196  0.41383  0.93241  1.0000
  H   H202      1.0  0.49939  0.28171  0.06232  1.0000
  S   S48       1.0  0.21233  0.17959  0.04469  1.0000
  S   S49       1.0  0.15046  0.15066  0.00208  1.0000
  H   H203      1.0  0.30747  0.37361  0.94070  1.0000
  H   H204      1.0  0.10754  0.20200  0.86998  1.0000
  H   H205      1.0  0.24399  0.10407  0.84050  1.0000
  H   H206      1.0  0.45601  0.47713  0.04208  1.0000
  H   H207      1.0  0.45442  0.50653  0.96652  1.0000
  C   C128      1.0  0.40512  0.46589  0.03235  1.0000
  H   H208      1.0  0.17045  0.16797  0.94043  1.0000
  C   C129      1.0  0.38226  0.38029  0.86509  1.0000
  C   C130      1.0  0.17532  0.18580  0.92235  1.0000
  H   H209      1.0  0.32460  0.59952  0.90701  1.0000
  C   C131      1.0  0.24493  0.33667  0.90087  1.0000
  H   H210      1.0  0.22788  0.40240  0.90845  1.0000
  H   H211      1.0  0.19323  0.24922  0.85693  1.0000
  H   H212      1.0  0.23895  0.17082  0.89999  1.0000
  H   H213      1.0  0.46765  0.58807  0.92638  1.0000
  H   H214      1.0  0.10208  0.12693  0.88692  1.0000
  C   C132      1.0  0.18765  0.21817  0.92918  1.0000
  Fe  Fe25      1.0  0.16967  0.14337  0.04980  1.0000
  C   C133      1.0  0.16930  0.17636  0.89198  1.0000
  H   H215      1.0  0.29971  0.40065  0.88989  1.0000
  C   C134      1.0  0.18830  0.23142  0.87508  1.0000
  H   H216      1.0  0.22646  0.34500  0.88362  1.0000
  C   C135      1.0  0.47231  0.27906  0.06499  1.0000
  H   H217      1.0  0.29377  0.16232  0.98804  1.0000
  C   C136      1.0  0.28356  0.37898  0.88357  1.0000
  H   H218      1.0  0.49165  0.34308  0.05351  1.0000
  C   C137      1.0  0.55449  0.15779  0.90538  1.0000
  C   C138      1.0  0.32878  0.13928  0.95755  1.0000
  C   C139      1.0  0.31140  0.14209  0.98502  1.0000
  C   C140      1.0  0.29105  0.35269  0.93272  1.0000
  C   C141      1.0  0.17578  0.19915  0.86833  1.0000
  S   S50       1.0  0.52602  0.15438  0.93507  1.0000
  H   H219      1.0  0.56369  0.30429  0.97145  1.0000
  S   S51       1.0  0.36778  0.38172  0.90276  1.0000
  H   H220      1.0  0.29955  0.35953  0.87260  1.0000
  C   C142      1.0  0.37172  0.40414  0.84362  1.0000
  C   C143      1.0  0.35193  0.11346  0.95352  1.0000
  S   S52       1.0  0.55930  0.31350  0.04622  1.0000
  H   H221      1.0  0.23137  0.32562  0.92054  1.0000
  H   H222      1.0  0.15998  0.15126  0.88689  1.0000
  H   H223      1.0  0.23288  0.38257  0.94508  1.0000
  H   H224      1.0  0.41274  0.33653  0.87293  1.0000
  C   C144      1.0  0.40439  0.35492  0.85636  1.0000
  C   C145      1.0  0.54444  0.15449  0.87494  1.0000
  C   C146      1.0  0.19403  0.24100  0.90552  1.0000
  N   N16       1.0  0.27598  0.59470  0.88792  1.0000
  H   H225      1.0  0.51862  0.15129  0.86950  1.0000
  H   H226      1.0  0.49895  0.52721  0.00150  1.0000
  C   C147      1.0  0.44395  0.57242  0.86422  1.0000
  C   C148      1.0  0.43494  0.46157  0.04780  1.0000
  H   H227      1.0  0.26588  0.14374  0.84084  1.0000
  C   C149      1.0  0.53238  0.12857  0.02493  1.0000
  H   H228      1.0  0.32442  0.15722  0.93939  1.0000
  C   C150      1.0  0.45374  0.57228  0.98461  1.0000
  C   C151      1.0  0.56228  0.38236  0.05418  1.0000
  C   C152      1.0  0.23178  0.10217  0.90098  1.0000
  H   H229      1.0  0.27908  0.34140  0.95313  1.0000
  H   H230      1.0  0.52442  0.53015  0.96832  1.0000
  C   C153      1.0  0.31695  0.11892  0.00855  1.0000
  H   H231      1.0  0.28464  0.53113  0.98310  1.0000
  C   C154      1.0  0.56793  0.15486  0.85149  1.0000
  C   C155      1.0  0.46466  0.33905  0.05620  1.0000
  N   N17       1.0  0.25736  0.12230  0.88524  1.0000
  H   H232      1.0  0.56284  0.43669  0.06074  1.0000
  C   C156      1.0  0.24637  0.39208  0.92476  1.0000
  H   H233      1.0  0.26582  0.38800  0.86599  1.0000
  C   C157      1.0  0.49138  0.53521  0.86843  1.0000
  H   H234      1.0  0.28189  0.17043  0.89067  1.0000
  C   C158      1.0  0.28880  0.10345  0.88581  1.0000
  H   H235      1.0  0.30820  0.38244  0.81834  1.0000
  H   H236      1.0  0.48030  0.48177  0.87025  1.0000
  H   H237      1.0  0.23443  0.59176  0.91820  1.0000
  H   H238      1.0  0.30906  0.11809  0.87488  1.0000
  C   C159      1.0  0.48865  0.57962  0.94079  1.0000
  C   C160      1.0  0.43619  0.51163  0.86672  1.0000
  H   H239      1.0  0.56442  0.21089  0.96035  1.0000
  C   C161      1.0  0.47828  0.56789  0.86559  1.0000
  H   H240      1.0  0.27245  0.54416  0.90586  1.0000
  H   H241      1.0  0.57118  0.29939  0.93114  1.0000
  H   H242      1.0  0.30424  0.54992  0.87791  1.0000
  H   H243      1.0  0.22345  0.14229  0.85208  1.0000
  H   H244      1.0  0.51980  0.15044  0.03603  1.0000
  H   H245      1.0  0.43132  0.57998  0.97173  1.0000
  H   H246      1.0  0.46449  0.59545  0.99543  1.0000
  C   C162      1.0  0.46253  0.52566  0.94950  1.0000
  C   C163      1.0  0.22089  0.58665  0.98763  1.0000
  Fe  Fe26      1.0  0.35604  0.43498  0.91713  1.0000
  Fe  Fe27      1.0  0.49088  0.11183  0.92483  1.0000
  H   H247      1.0  0.45411  0.33443  0.03310  1.0000
  C   C164      1.0  0.41646  0.35386  0.82641  1.0000
  C   C165      1.0  0.24725  0.12833  0.85326  1.0000
  S   S53       1.0  0.26159  0.32773  0.82229  1.0000
  C   C166      1.0  0.50652  0.54438  0.98265  1.0000
  H   H248      1.0  0.27043  0.58723  0.00522  1.0000
  Fe  Fe28      1.0  0.24031  0.13364  0.02896  1.0000
  H   H249      1.0  0.49452  0.58967  0.86495  1.0000
  H   H250      1.0  0.30727  0.33304  0.92233  1.0000
  H   H251      1.0  0.26776  0.15166  0.92554  1.0000
  H   H252      1.0  0.48006  0.51280  0.93375  1.0000
  H   H253      1.0  0.46203  0.27241  0.04218  1.0000
  H   H254      1.0  0.35435  0.42354  0.85002  1.0000
  S   S54       1.0  0.32372  0.47043  0.89062  1.0000
  Fe  Fe29      1.0  0.36986  0.48678  0.96685  1.0000
  S   S55       1.0  0.33892  0.52660  0.94463  1.0000
  S   S56       1.0  0.40073  0.50019  0.00754  1.0000
  Fe  Fe30      1.0  0.30344  0.48379  0.93659  1.0000
  S   S57       1.0  0.24880  0.48710  0.94168  1.0000
  Fe  Fe31      1.0  0.36234  0.50936  0.90121  1.0000
  S   S58       1.0  0.38017  0.54953  0.86897  1.0000
  C   C167      1.0  0.37819  0.44508  0.03924  1.0000
  S   S59       1.0  0.39647  0.47277  0.92415  1.0000
  C   C168      1.0  0.27874  0.55750  0.88430  1.0000
  H   H255      1.0  0.35503  0.44850  0.02745  1.0000
  C   C169      1.0  0.23746  0.52394  0.96150  1.0000
  C   C170      1.0  0.20559  0.53674  0.95819  1.0000
  C   C171      1.0  0.19727  0.56801  0.97136  1.0000
  H   H256      1.0  0.18751  0.52286  0.94487  1.0000
  H   H257      1.0  0.17259  0.57774  0.96867  1.0000
  C   C172      1.0  0.42289  0.54426  0.86567  1.0000
  H   H258      1.0  0.56041  0.38396  0.02959  1.0000
  H   H259      1.0  0.20802  0.11605  0.90230  1.0000
  H   H260      1.0  0.48117  0.11096  0.05956  1.0000
  N   N18       1.0  0.47785  0.55547  0.96443  1.0000
  H   H261      1.0  0.53995  0.24648  0.97158  1.0000
  S   S60       1.0  0.45713  0.10549  0.88460  1.0000
  H   H262      1.0  0.22392  0.59484  0.87852  1.0000
  C   C173      1.0  0.47029  0.50712  0.86830  1.0000
  S   S61       1.0  0.53376  0.52822  0.87271  1.0000
  C   C174      1.0  0.55954  0.23814  0.95551  1.0000
  S   S62       1.0  0.33247  0.44512  0.96245  1.0000
  H   H263      1.0  0.42014  0.48972  0.86636  1.0000
  H   H264      1.0  0.44063  0.53307  0.93574  1.0000
  H   H265      1.0  0.29230  0.59423  0.93463  1.0000
  C   C175      1.0  0.25229  0.57311  0.99222  1.0000
  C   C176      1.0  0.26052  0.54167  0.97924  1.0000
  H   H266      1.0  0.11449  0.14167  0.84998  1.0000
  H   H267      1.0  0.56018  0.15178  0.82798  1.0000
  S   S63       1.0  0.29255  0.12030  0.04164  1.0000
  H   H268      1.0  0.51979  0.56648  0.99291  1.0000
  H   H269      1.0  0.26173  0.54774  0.86634  1.0000
  S   S64       1.0  0.36998  0.10802  0.91749  1.0000
  H   H270      1.0  0.54939  0.23950  0.93191  1.0000
  S   S65       1.0  0.16764  0.18719  0.83050  1.0000
  H   H271      1.0  0.38005  0.11394  0.06083  1.0000
  H   H272      1.0  0.43377  0.59775  0.86303  1.0000
  H   H273      1.0  0.55865  0.13583  0.02148  1.0000
  H   H274      1.0  0.45418  0.36329  0.06496  1.0000
  H   H275      1.0  0.44565  0.55507  0.00322  1.0000
  C   C177      1.0  0.38043  0.42177  0.06330  1.0000
  C   C178      1.0  0.09275  0.13502  0.86419  1.0000
  Fe  Fe32      1.0  0.18371  0.10753  0.98973  1.0000
  Fe  Fe33      1.0  0.56469  0.56974  0.89392  1.0000
  H   H276      1.0  0.52105  0.12503  0.00193  1.0000
  H   H277      1.0  0.41004  0.30024  0.05751  1.0000
  H   H278      1.0  0.09545  0.18431  0.90598  1.0000
  S   S66       1.0  0.55389  0.21612  0.05411  1.0000
  H   H279      1.0  0.43419  0.33468  0.81996  1.0000
  C   C179      1.0  0.08614  0.19228  0.88316  1.0000
  S   S67       1.0  0.58082  0.56447  0.94270  1.0000
  C   C180      1.0  0.58180  0.29505  0.95424  1.0000
  C   C181      1.0  0.16226  0.61832  0.06861  1.0000
  H   H280      1.0  0.11745  0.90311  0.23855  1.0000
  H   H281      1.0  0.54345  0.73155  0.10063  1.0000
  S   S68       1.0  0.50831  0.76479  0.15051  1.0000
  H   H282      1.0  0.14276  0.60062  0.07673  1.0000
  H   H283      1.0  0.48400  0.85397  0.20621  1.0000
  S   S69       1.0  0.10239  0.64530  0.20832  1.0000
  H   H284      1.0  0.08403  0.81972  0.26407  1.0000
  C   C182      1.0  0.15130  0.78282  0.30856  1.0000
  C   C183      1.0  0.56711  0.65585  0.07548  1.0000
  H   H285      1.0  0.55202  0.83444  0.25906  1.0000
  H   H286      1.0  0.18675  0.69889  0.08527  1.0000
  H   H287      1.0  0.47745  0.82438  0.25691  1.0000
  C   C184      1.0  0.34055  0.94380  0.29729  1.0000
  S   S70       1.0  0.15133  0.73063  0.20248  1.0000
  H   H288      1.0  0.41873  0.89903  0.30798  1.0000
  Fe  Fe34      1.0  0.12665  0.75994  0.16516  1.0000
  C   C185      1.0  0.49800  0.61657  0.20945  1.0000
  H   H289      1.0  0.56879  0.79806  0.16899  1.0000
  H   H290      1.0  0.49837  0.64286  0.20249  1.0000
  H   H291      1.0  0.09718  0.05542  0.08490  1.0000
  N   N19       1.0  0.16018  0.65167  0.08407  1.0000
  S   S71       1.0  0.56032  0.72716  0.21794  1.0000
  Fe  Fe35      1.0  0.54796  0.73041  0.16822  1.0000
  S   S72       1.0  0.55270  0.63137  0.24366  1.0000
  H   H292      1.0  0.55478  0.66449  0.09586  1.0000
  C   C186      1.0  0.53546  0.74183  0.07816  1.0000
  H   H293      1.0  0.12989  0.73451  0.29656  1.0000
  C   C187      1.0  0.18704  0.67392  0.07324  1.0000
  H   H294      1.0  0.12464  0.85817  0.23904  1.0000
  S   S73       1.0  0.54705  0.67391  0.16104  1.0000
  S   S74       1.0  0.54964  0.91921  0.15772  1.0000
  H   H295      1.0  0.40888  0.08704  0.08037  1.0000
  H   H296      1.0  0.45530  0.60410  0.18231  1.0000
  S   S75       1.0  0.15578  0.77112  0.12290  1.0000
  Fe  Fe36      1.0  0.10344  0.70224  0.20424  1.0000
  H   H297      1.0  0.57779  0.78407  0.10625  1.0000
  C   C188      1.0  0.13401  0.76283  0.08916  1.0000
  Fe  Fe37      1.0  0.56527  0.67138  0.20939  1.0000
  H   H298      1.0  0.32486  0.93552  0.27776  1.0000
  H   H299      1.0  0.12470  0.69160  0.08983  1.0000
  H   H300      1.0  0.54380  0.08038  0.08834  1.0000
  C   C189      1.0  0.12814  0.66749  0.07694  1.0000
  C   C190      1.0  0.53800  0.84343  0.23880  1.0000
  H   H301      1.0  0.54084  0.91050  0.24845  1.0000
  Fe  Fe38      1.0  0.44645  0.99189  0.15053  1.0000
  S   S76       1.0  0.50021  0.00476  0.14820  1.0000
  S   S77       1.0  0.41236  0.00715  0.11243  1.0000
  Fe  Fe39      1.0  0.45205  0.96358  0.21485  1.0000
  S   S78       1.0  0.50607  0.97478  0.21777  1.0000
  S   S79       1.0  0.42571  0.93651  0.25289  1.0000
  Fe  Fe40      1.0  0.49275  0.02420  0.19573  1.0000
  C   C191      1.0  0.13918  0.75036  0.31488  1.0000
  Fe  Fe41      1.0  0.50776  0.95401  0.17001  1.0000
  H   H302      1.0  0.56373  0.60269  0.17460  1.0000
  S   S80       1.0  0.43841  0.01482  0.19682  1.0000
  S   S81       1.0  0.45442  0.93922  0.16845  1.0000
  C   C192      1.0  0.52023  0.80765  0.15114  1.0000
  S   S82       1.0  0.51178  0.07569  0.20905  1.0000
  H   H303      1.0  0.56741  0.69610  0.28411  1.0000
  H   H304      1.0  0.08676  0.66481  0.14580  1.0000
  C   C193      1.0  0.50726  0.86709  0.14263  1.0000
  C   C194      1.0  0.49812  0.83270  0.14160  1.0000
  H   H305      1.0  0.18657  0.60608  0.07250  1.0000
  C   C195      1.0  0.49214  0.87623  0.22005  1.0000
  H   H306      1.0  0.48999  0.88637  0.13555  1.0000
  C   C196      1.0  0.34721  0.07583  0.10093  1.0000
  H   H307      1.0  0.18751  0.63608  0.12373  1.0000
  H   H308      1.0  0.13332  0.03121  0.07542  1.0000
  H   H309      1.0  0.46999  0.06882  0.15569  1.0000
  C   C197      1.0  0.08787  0.62236  0.17650  1.0000
  H   H310      1.0  0.47373  0.82560  0.13383  1.0000
  H   H311      1.0  0.50752  0.89264  0.20525  1.0000
  H   H312      1.0  0.55730  0.08507  0.28012  1.0000
  C   C198      1.0  0.52348  0.89623  0.26336  1.0000
  C   C199      1.0  0.55175  0.81701  0.16098  1.0000
  C   C200      1.0  0.56120  0.85124  0.16114  1.0000
  H   H313      1.0  0.50068  0.83912  0.28943  1.0000
  H   H314      1.0  0.51312  0.75749  0.08245  1.0000
  C   C201      1.0  0.56953  0.79180  0.08310  1.0000
  H   H315      1.0  0.47309  0.98563  0.27655  1.0000
  H   H316      1.0  0.08390  0.87441  0.31332  1.0000
  H   H317      1.0  0.54552  0.64483  0.31002  1.0000
  H   H318      1.0  0.11971  0.85730  0.29513  1.0000
  C   C202      1.0  0.09960  0.76148  0.08888  1.0000
  H   H319      1.0  0.28026  0.92304  0.31541  1.0000
  C   C203      1.0  0.43284  0.00603  0.07725  1.0000
  H   H320      1.0  0.55571  0.85698  0.22375  1.0000
  C   C204      1.0  0.43586  0.91950  0.31232  1.0000
  C   C205      1.0  0.16321  0.64703  0.11744  1.0000
  H   H321      1.0  0.47313  0.97586  0.09395  1.0000
  S   S83       1.0  0.10670  0.79956  0.19665  1.0000
  S   S84       1.0  0.15126  0.79901  0.27124  1.0000
  H   H322      1.0  0.32882  0.07149  0.11928  1.0000
  C   C206      1.0  0.48006  0.09417  0.15620  1.0000
  C   C207      1.0  0.48787  0.84737  0.26825  1.0000
  C   C208      1.0  0.44403  0.94198  0.28890  1.0000
  H   H323      1.0  0.40270  0.07531  0.13490  1.0000
  H   H324      1.0  0.50337  0.91401  0.26960  1.0000
  N   N20       1.0  0.51039  0.86577  0.24765  1.0000
  C   C209      1.0  0.53873  0.87641  0.15272  1.0000
  H   H325      1.0  0.36663  0.93917  0.29065  1.0000
  C   C210      1.0  0.52137  0.60460  0.23025  1.0000
  Fe  Fe42      1.0  0.12707  0.76759  0.23437  1.0000
  H   H326      1.0  0.46680  0.86373  0.27522  1.0000
  C   C211      1.0  0.10504  0.87792  0.23835  1.0000
  H   H327      1.0  0.14389  0.62960  0.12628  1.0000
  H   H328      1.0  0.10740  0.65045  0.08283  1.0000
  C   C212      1.0  0.46694  0.96788  0.29442  1.0000
  H   H329      1.0  0.53683  0.88952  0.28469  1.0000
  H   H330      1.0  0.36145  0.05196  0.09817  1.0000
  H   H331      1.0  0.46983  0.89112  0.22589  1.0000
  H   H332      1.0  0.52919  0.82063  0.22602  1.0000
  H   H333      1.0  0.21160  0.66225  0.07712  1.0000
  H   H334      1.0  0.54751  0.80825  0.08634  1.0000
  H   H335      1.0  0.36967  0.09389  0.15616  1.0000
  H   H336      1.0  0.11313  0.90224  0.29526  1.0000
  H   H337      1.0  0.16065  0.67163  0.12992  1.0000
  C   C213      1.0  0.46317  0.98961  0.07477  1.0000
  H   H338      1.0  0.32200  0.87904  0.30120  1.0000
  H   H339      1.0  0.33761  0.97171  0.30007  1.0000
  H   H340      1.0  0.09201  0.87528  0.21605  1.0000
  H   H341      1.0  0.33335  0.07987  0.07932  1.0000
  C   C214      1.0  0.10044  0.87727  0.29330  1.0000
  C   C215      1.0  0.38689  0.09831  0.13687  1.0000
  H   H342      1.0  0.08590  0.76804  0.10915  1.0000
  H   H343      1.0  0.36302  0.88241  0.31643  1.0000
  C   C216      1.0  0.55829  0.69959  0.34480  1.0000
  H   H344      1.0  0.27009  0.86165  0.47743  1.0000
  H   H345      1.0  0.13093  0.71272  0.34972  1.0000
  H   H346      1.0  0.29273  0.95956  0.33744  1.0000
  S   S85       1.0  0.15237  0.74275  0.40629  1.0000
  C   C217      1.0  0.13985  0.73804  0.34495  1.0000
  H   H347      1.0  0.33054  0.86884  0.55704  1.0000
  H   H348      1.0  0.18665  0.78246  0.56611  1.0000
  C   C218      1.0  0.15243  0.75822  0.36871  1.0000
  H   H349      1.0  0.31396  0.92182  0.53021  1.0000
  H   H350      1.0  0.33080  0.90616  0.49510  1.0000
  H   H351      1.0  0.55628  0.91999  0.40118  1.0000
  H   H352      1.0  0.34834  0.85383  0.52199  1.0000
  H   H353      1.0  0.29816  0.63062  0.55336  1.0000
  H   H354      1.0  0.34802  0.92416  0.37234  1.0000
  H   H355      1.0  0.55225  0.68874  0.36758  1.0000
  C   C219      1.0  0.35356  0.93749  0.35070  1.0000
  C   C220      1.0  0.26683  0.69016  0.55530  1.0000
  C   C221      1.0  0.53647  0.76586  0.44285  1.0000
  H   H356      1.0  0.35068  0.96518  0.35496  1.0000
  H   H357      1.0  0.26009  0.84703  0.54379  1.0000
  Fe  Fe43      1.0  0.40900  0.94037  0.47104  1.0000
  S   S86       1.0  0.39837  0.88468  0.47507  1.0000
  S   S87       1.0  0.38415  0.97887  0.50128  1.0000
  Fe  Fe44      1.0  0.45668  0.93023  0.41831  1.0000
  S   S88       1.0  0.45050  0.87387  0.41828  1.0000
  S   S89       1.0  0.48995  0.95413  0.38362  1.0000
  Fe  Fe45      1.0  0.39692  0.88551  0.42405  1.0000
  S   S90       1.0  0.35849  0.85708  0.39770  1.0000
  Fe  Fe46      1.0  0.45281  0.87871  0.46919  1.0000
  S   S91       1.0  0.48378  0.84588  0.49944  1.0000
  S   S92       1.0  0.40274  0.94179  0.42008  1.0000
  S   S93       1.0  0.46385  0.93449  0.46897  1.0000
  S   S94       1.0  0.14272  0.83300  0.44125  1.0000
  S   S95       1.0  0.18364  0.84849  0.50512  1.0000
  Fe  Fe47      1.0  0.13574  0.82433  0.49138  1.0000
  H   H358      1.0  0.54258  0.80800  0.51065  1.0000
  Fe  Fe48      1.0  0.19251  0.85255  0.45476  1.0000
  S   S96       1.0  0.21580  0.90037  0.43722  1.0000
  C   C222      1.0  0.50543  0.77737  0.43367  1.0000
  H   H359      1.0  0.27278  0.88770  0.55836  1.0000
  H   H360      1.0  0.28559  0.82441  0.49546  1.0000
  H   H361      1.0  0.34789  0.00890  0.55061  1.0000
  C   C223      1.0  0.29155  0.85130  0.49010  1.0000
  C   C224      1.0  0.31871  0.87049  0.40712  1.0000
  C   C225      1.0  0.31373  0.90098  0.42295  1.0000
  C   C226      1.0  0.28169  0.91147  0.43015  1.0000
  C   C227      1.0  0.25479  0.89074  0.42273  1.0000
  C   C228      1.0  0.25975  0.86067  0.40635  1.0000
  C   C229      1.0  0.29166  0.85075  0.39825  1.0000
  H   H362      1.0  0.33450  0.91642  0.42982  1.0000
  H   H363      1.0  0.27785  0.93486  0.44265  1.0000
  H   H364      1.0  0.23897  0.84489  0.40006  1.0000
  H   H365      1.0  0.29541  0.82726  0.38585  1.0000
  C   C230      1.0  0.50208  0.81256  0.47912  1.0000
  C   C231      1.0  0.48826  0.80076  0.45180  1.0000
  H   H366      1.0  0.32917  0.87387  0.34124  1.0000
  C   C232      1.0  0.47271  0.94920  0.34704  1.0000
  C   C233      1.0  0.32516  0.85485  0.53548  1.0000
  H   H367      1.0  0.09886  0.79130  0.39827  1.0000
  H   H368      1.0  0.46439  0.80972  0.44456  1.0000
  Fe  Fe49      1.0  0.20475  0.79630  0.49999  1.0000
  S   S97       1.0  0.15602  0.77133  0.49089  1.0000
  C   C234      1.0  0.55667  0.91456  0.42612  1.0000
  H   H369      1.0  0.54455  0.87566  0.47509  1.0000
  H   H370      1.0  0.08424  0.73020  0.39650  1.0000
  C   C235      1.0  0.53214  0.79943  0.48920  1.0000
  H   H371      1.0  0.24442  0.70638  0.55568  1.0000
  H   H372      1.0  0.40025  0.91647  0.53239  1.0000
  H   H373      1.0  0.56053  0.82856  0.42109  1.0000
  N   N21       1.0  0.29841  0.87127  0.51806  1.0000
  C   C236      1.0  0.30838  0.90612  0.50965  1.0000
  C   C237      1.0  0.16408  0.79087  0.36243  1.0000
  C   C238      1.0  0.56875  0.64400  0.32358  1.0000
  H   H374      1.0  0.44294  0.90613  0.35943  1.0000
  C   C239      1.0  0.35589  0.98396  0.55773  1.0000
  C   C240      1.0  0.26843  0.87284  0.53706  1.0000
  C   C241      1.0  0.38490  0.93167  0.54710  1.0000
  H   H375      1.0  0.37994  0.93279  0.34568  1.0000
  H   H376      1.0  0.26908  0.67974  0.53175  1.0000
  H   H377      1.0  0.28859  0.91921  0.49665  1.0000
  H   H378      1.0  0.24773  0.88501  0.52449  1.0000
  Fe  Fe50      1.0  0.16654  0.78184  0.44154  1.0000
  C   C242      1.0  0.29729  0.93202  0.33369  1.0000
  H   H379      1.0  0.09903  0.75693  0.44568  1.0000
  S   S98       1.0  0.24636  0.77798  0.52961  1.0000
  S   S99       1.0  0.21723  0.80200  0.45048  1.0000
  C   C243      1.0  0.54943  0.77627  0.47097  1.0000
  H   H380      1.0  0.29033  0.91859  0.35513  1.0000
  C   C244      1.0  0.37445  0.96378  0.53776  1.0000
  C   C245      1.0  0.55053  0.85446  0.41703  1.0000
  H   H381      1.0  0.49505  0.76894  0.41216  1.0000
  H   H382      1.0  0.31849  0.82831  0.54170  1.0000
  H   H383      1.0  0.56318  0.63134  0.34565  1.0000
  H   H384      1.0  0.53075  0.91661  0.43421  1.0000
  S   S100      1.0  0.08686  0.83397  0.51406  1.0000
  C   C246      1.0  0.16361  0.80308  0.33239  1.0000
  H   H385      1.0  0.52468  0.85465  0.42540  1.0000
  H   H386      1.0  0.17403  0.80649  0.38062  1.0000
  C   C247      1.0  0.44981  0.92335  0.34142  1.0000
  H   H387      1.0  0.31303  0.85114  0.47435  1.0000
  H   H388      1.0  0.09454  0.87854  0.46240  1.0000
  H   H389      1.0  0.17322  0.82812  0.32757  1.0000
  H   H390      1.0  0.54972  0.85855  0.39194  1.0000
  S   S101      1.0  0.55984  0.74086  0.41788  1.0000
  N   N22       1.0  0.57057  0.88067  0.43263  1.0000
  N   N23       1.0  0.33204  0.92549  0.32561  1.0000
  H   H391      1.0  0.23654  0.62986  0.54929  1.0000
  H   H392      1.0  0.28842  0.70705  0.55937  1.0000
  H   H393      1.0  0.49914  0.99138  0.32769  1.0000
  H   H394      1.0  0.56796  0.72568  0.34900  1.0000
  C   C248      1.0  0.33677  0.88864  0.32085  1.0000
  H   H395      1.0  0.53487  0.70191  0.33175  1.0000
  C   C249      1.0  0.48158  0.97122  0.32339  1.0000
  H   H396      1.0  0.57272  0.76646  0.47873  1.0000
  H   H397      1.0  0.57105  0.93511  0.43748  1.0000
  C   C250      1.0  0.57009  0.87462  0.46590  1.0000
  H   H398      1.0  0.58024  0.84916  0.47158  1.0000
  H   H399      1.0  0.31539  0.60241  0.72406  1.0000
  H   H400      1.0  0.32162  0.08625  0.69887  1.0000
  H   H401      1.0  0.22950  0.09731  0.74579  1.0000
  H   H402      1.0  0.26080  0.65827  0.62712  1.0000
  H   H403      1.0  0.39902  0.93774  0.77996  1.0000
  H   H404      1.0  0.24043  0.69470  0.61134  1.0000
  H   H405      1.0  0.51085  0.99432  0.78631  1.0000
  C   C251      1.0  0.44492  0.04367  0.80408  1.0000
  H   H406      1.0  0.30120  0.84997  0.79471  1.0000
  Fe  Fe51      1.0  0.31195  0.67236  0.68677  1.0000
  S   S102      1.0  0.25868  0.67301  0.69934  1.0000
  H   H407      1.0  0.41380  0.03795  0.64670  1.0000
  Fe  Fe52      1.0  0.32799  0.73198  0.72823  1.0000
  S   S103      1.0  0.27589  0.73758  0.74426  1.0000
  Fe  Fe53      1.0  0.27683  0.68049  0.74722  1.0000
  S   S104      1.0  0.25700  0.64524  0.78331  1.0000
  Fe  Fe54      1.0  0.26283  0.72944  0.69486  1.0000
  H   H408      1.0  0.38373  0.89420  0.58275  1.0000
  S   S105      1.0  0.33017  0.67559  0.73500  1.0000
  S   S106      1.0  0.31499  0.72816  0.67861  1.0000
  C   C252      1.0  0.22935  0.76641  0.63177  1.0000
  C   C253      1.0  0.47387  0.02496  0.80822  1.0000
  C   C254      1.0  0.27441  0.08809  0.72112  1.0000
  H   H409      1.0  0.42945  0.98059  0.66572  1.0000
  H   H410      1.0  0.37557  0.63782  0.69750  1.0000
  S   S107      1.0  0.32522  0.63435  0.65066  1.0000
  H   H411      1.0  0.45563  0.01079  0.57533  1.0000
  H   H412      1.0  0.28200  0.76158  0.63420  1.0000
  H   H413      1.0  0.47164  0.02450  0.65838  1.0000
  S   S108      1.0  0.22284  0.75892  0.67083  1.0000
  S   S109      1.0  0.36976  0.76669  0.74084  1.0000
  C   C255      1.0  0.26605  0.77051  0.58837  1.0000
  C   C256      1.0  0.26111  0.76572  0.61963  1.0000
  Fe  Fe55      1.0  0.30577  0.01297  0.70628  1.0000
  S   S110      1.0  0.34542  0.01506  0.67066  1.0000
  S   S111      1.0  0.26220  0.04762  0.70890  1.0000
  Fe  Fe56      1.0  0.33542  0.95278  0.73896  1.0000
  S   S112      1.0  0.37805  0.95007  0.70692  1.0000
  S   S113      1.0  0.32596  0.91532  0.77662  1.0000
  Fe  Fe57      1.0  0.37912  0.00667  0.71063  1.0000
  S   S114      1.0  0.42839  0.03219  0.71307  1.0000
  Fe  Fe58      1.0  0.34078  0.95834  0.67003  1.0000
  S   S115      1.0  0.34458  0.92203  0.63052  1.0000
  S   S116      1.0  0.33991  0.00901  0.74643  1.0000
  S   S117      1.0  0.29777  0.95690  0.70187  1.0000
  C   C257      1.0  0.29961  0.86818  0.67522  1.0000
  H   H414      1.0  0.30960  0.85343  0.65560  1.0000
  H   H415      1.0  0.26119  0.80315  0.71122  1.0000
  H   H416      1.0  0.28008  0.87378  0.73330  1.0000
  C   C258      1.0  0.28151  0.81659  0.69927  1.0000
  C   C259      1.0  0.35672  0.93908  0.59546  1.0000
  H   H417      1.0  0.29249  0.89354  0.66640  1.0000
  C   C260      1.0  0.44552  0.02984  0.74982  1.0000
  C   C261      1.0  0.23139  0.66579  0.80976  1.0000
  C   C262      1.0  0.47471  0.01173  0.75404  1.0000
  H   H418      1.0  0.48338  0.03705  0.62056  1.0000
  H   H419      1.0  0.48638  0.99944  0.73479  1.0000
  C   C263      1.0  0.33897  0.87395  0.76779  1.0000
  C   C264      1.0  0.32194  0.84601  0.77966  1.0000
  C   C265      1.0  0.33117  0.81285  0.77149  1.0000
  C   C266      1.0  0.35801  0.80765  0.75206  1.0000
  C   C267      1.0  0.37566  0.83556  0.74107  1.0000
  C   C268      1.0  0.36595  0.86863  0.74865  1.0000
  C   C269      1.0  0.34719  0.97170  0.58669  1.0000
  N   N24       1.0  0.26494  0.66293  0.57835  1.0000
  H   H420      1.0  0.39659  0.83155  0.72625  1.0000
  H   H421      1.0  0.37976  0.88984  0.74000  1.0000
  H   H422      1.0  0.49417  0.99562  0.63449  1.0000
  C   C270      1.0  0.39835  0.95788  0.79784  1.0000
  H   H423      1.0  0.22279  0.83387  0.67678  1.0000
  H   H424      1.0  0.40835  0.96229  0.63363  1.0000
  H   H425      1.0  0.46680  0.96940  0.58911  1.0000
  H   H426      1.0  0.23917  0.85761  0.72789  1.0000
  H   H427      1.0  0.33234  0.98707  0.60183  1.0000
  C   C271      1.0  0.20257  0.77339  0.61253  1.0000
  H   H428      1.0  0.42465  0.97907  0.58096  1.0000
  H   H429      1.0  0.28456  0.69386  0.61471  1.0000
  H   H430      1.0  0.42501  0.05044  0.60873  1.0000
  H   H431      1.0  0.17793  0.77432  0.62184  1.0000
  C   C272      1.0  0.26250  0.67814  0.60918  1.0000
  C   C273      1.0  0.48860  0.00895  0.78319  1.0000
  C   C274      1.0  0.47451  0.01525  0.63443  1.0000
  C   C275      1.0  0.37593  0.61286  0.68723  1.0000
  C   C276      1.0  0.23553  0.64174  0.57237  1.0000
  H   H432      1.0  0.28888  0.80058  0.67950  1.0000
  H   H433      1.0  0.23541  0.87321  0.65953  1.0000
  H   H434      1.0  0.30289  0.81777  0.71506  1.0000
  C   C277      1.0  0.41782  0.02836  0.62303  1.0000
  H   H435      1.0  0.40800  0.06000  0.77161  1.0000
  C   C278      1.0  0.43050  0.04576  0.77486  1.0000
  C   C279      1.0  0.35496  0.60522  0.66278  1.0000
  N   N25       1.0  0.44317  0.00150  0.62235  1.0000
  C   C280      1.0  0.24418  0.84784  0.66703  1.0000
  H   H436      1.0  0.23333  0.62096  0.58942  1.0000
  H   H437      1.0  0.25169  0.89631  0.70958  1.0000
  C   C281      1.0  0.43242  0.97271  0.64147  1.0000
  C   C282      1.0  0.26002  0.87048  0.71621  1.0000
  N   N26       1.0  0.27132  0.85079  0.68943  1.0000
  H   H438      1.0  0.32019  0.87198  0.69177  1.0000
  H   H439      1.0  0.25210  0.83367  0.64630  1.0000
  H   H440      1.0  0.44477  0.91145  0.80972  1.0000
  H   H441      1.0  0.31777  0.79131  0.78040  1.0000
  C   C283      1.0  0.44785  0.98971  0.59057  1.0000
  H   H442      1.0  0.45051  0.95155  0.64093  1.0000
  H   H443      1.0  0.39375  0.01881  0.61428  1.0000
  H   H444      1.0  0.24912  0.71598  0.79971  1.0000
  H   H445      1.0  0.29072  0.76938  0.57913  1.0000
  C   C284      1.0  0.23924  0.77607  0.56896  1.0000
  H   H446      1.0  0.29378  0.62023  0.59305  1.0000
  C   C285      1.0  0.37577  0.91922  0.57576  1.0000
  H   H447      1.0  0.21256  0.65710  0.57358  1.0000
  C   C286      1.0  0.20748  0.77810  0.58106  1.0000
  H   H448      1.0  0.37295  0.96842  0.79801  1.0000
  C   C287      1.0  0.29483  0.64166  0.57656  1.0000
  H   H449      1.0  0.41528  0.97847  0.79057  1.0000
  C   C288      1.0  0.23237  0.70106  0.81318  1.0000
  H   H450      1.0  0.31740  0.65657  0.58227  1.0000
  H   H451      1.0  0.12785  0.85320  0.93146  1.0000
  C   C289      1.0  0.54947  0.65282  0.04797  1.0000
  H   H452      1.0  0.22698  0.07760  0.88918  1.0000
  H   H453      1.0  0.17279  0.64784  0.86281  1.0000
  C   C290      1.0  0.54557  0.06895  0.02775  1.0000
  N   N27       1.0  0.12593  0.79868  0.93040  1.0000
  H   H454      1.0  0.09800  0.03645  0.87318  1.0000
  C   C291      1.0  0.13485  0.74481  0.03618  1.0000
  Fe  Fe59      1.0  0.14751  0.68457  0.91674  1.0000
  H   H455      1.0  0.11426  0.02619  0.99215  1.0000
  S   S118      1.0  0.16579  0.71873  0.87960  1.0000
  Fe  Fe60      1.0  0.10911  0.69169  0.97532  1.0000
  H   H456      1.0  0.52829  0.78937  0.03506  1.0000
  H   H457      1.0  0.20879  0.61936  0.82501  1.0000
  H   H458      1.0  0.12580  0.67337  0.05220  1.0000
  S   S119      1.0  0.16187  0.70117  0.96380  1.0000
  H   H459      1.0  0.55654  0.01216  0.88007  1.0000
  H   H460      1.0  0.34570  0.07591  0.02317  1.0000
  C   C292      1.0  0.56529  0.64196  0.02128  1.0000
  H   H461      1.0  0.54232  0.06493  0.85250  1.0000
  H   H462      1.0  0.17814  0.75706  0.06257  1.0000
  S   S120      1.0  0.09377  0.67916  0.92748  1.0000
  H   H463      1.0  0.37939  0.98185  0.85251  1.0000
  H   H464      1.0  0.21281  0.74448  0.83699  1.0000
  C   C293      1.0  0.41939  0.02243  0.05176  1.0000
  S   S121      1.0  0.55111  0.62466  0.89855  1.0000
  C   C294      1.0  0.38518  0.91617  0.83610  1.0000
  C   C295      1.0  0.18982  0.66267  0.84947  1.0000
  C   C296      1.0  0.10048  0.74264  0.03601  1.0000
  Fe  Fe61      1.0  0.16870  0.64596  0.97312  1.0000
  S   S122      1.0  0.19914  0.09689  0.03786  1.0000
  C   C297      1.0  0.44185  0.93189  0.82712  1.0000
  Fe  Fe62      1.0  0.42121  0.08715  0.91997  1.0000
  H   H465      1.0  0.52356  0.65906  0.04729  1.0000
  C   C298      1.0  0.21011  0.64659  0.82797  1.0000
  C   C299      1.0  0.15153  0.75550  0.06252  1.0000
  C   C300      1.0  0.19076  0.69800  0.85278  1.0000
  C   C301      1.0  0.21195  0.71716  0.83450  1.0000
  C   C302      1.0  0.56851  0.07276  0.85456  1.0000
  S   S123      1.0  0.54298  0.64005  0.98687  1.0000
  H   H466      1.0  0.56135  0.01424  0.82397  1.0000
  C   C303      1.0  0.55083  0.77343  0.03333  1.0000
  H   H467      1.0  0.14874  0.73828  0.01615  1.0000
  C   C304      1.0  0.08245  0.00669  0.04308  1.0000
  H   H468      1.0  0.28228  0.63949  0.86044  1.0000
  H   H469      1.0  0.57072  0.08833  0.87572  1.0000
  H   H470      1.0  0.44967  0.92155  0.84960  1.0000
  H   H471      1.0  0.10990  0.77284  0.88953  1.0000
  H   H472      1.0  0.13881  0.05854  0.01003  1.0000
  H   H473      1.0  0.31087  0.60583  0.85239  1.0000
  H   H474      1.0  0.57402  0.08932  0.83470  1.0000
  C   C305      1.0  0.16124  0.79501  0.92293  1.0000
  C   C306      1.0  0.13202  0.05066  0.90885  1.0000
  H   H475      1.0  0.13013  0.77063  0.97214  1.0000
  N   N28       1.0  0.09979  0.03918  0.03799  1.0000
  H   H476      1.0  0.11719  0.83515  0.89499  1.0000
  H   H477      1.0  0.15918  0.62089  0.04348  1.0000
  S   S124      1.0  0.11702  0.63759  0.98887  1.0000
  Fe  Fe63      1.0  0.47361  0.05113  0.88373  1.0000
  H   H478      1.0  0.15275  0.03812  0.89824  1.0000
  S   S125      1.0  0.49143  0.01896  0.84447  1.0000
  Fe  Fe64      1.0  0.47146  0.04436  0.95264  1.0000
  H   H479      1.0  0.35907  0.92476  0.83681  1.0000
  S   S126      1.0  0.49065  0.00920  0.98845  1.0000
  H   H480      1.0  0.23864  0.63157  0.89873  1.0000
  H   H481      1.0  0.42154  0.99327  0.84600  1.0000
  N   N29       1.0  0.40757  0.94439  0.82810  1.0000
  H   H482      1.0  0.14379  0.01521  0.02108  1.0000
  S   S127      1.0  0.43488  0.03200  0.91575  1.0000
  S   S128      1.0  0.51121  0.05952  0.92042  1.0000
  H   H483      1.0  0.23915  0.09611  0.92485  1.0000
  N   N30       1.0  0.56191  0.76193  0.06375  1.0000
  H   H484      1.0  0.54262  0.04479  0.04061  1.0000
  C   C307      1.0  0.11409  0.83218  0.92010  1.0000
  H   H485      1.0  0.42664  0.03637  0.00459  1.0000
  C   C308      1.0  0.43690  0.02347  0.02418  1.0000
  C   C309      1.0  0.46752  0.00745  0.02201  1.0000
  S   S129      1.0  0.21184  0.62772  0.00038  1.0000
  H   H486      1.0  0.50397  0.97757  0.04544  1.0000
  H   H487      1.0  0.57016  0.78880  0.02182  1.0000
  H   H488      1.0  0.28672  0.07866  0.87372  1.0000
  H   H489      1.0  0.12974  0.07439  0.06335  1.0000
  H   H490      1.0  0.11247  0.09767  0.97141  1.0000
  H   H491      1.0  0.45935  0.95267  0.82127  1.0000
  C   C310      1.0  0.12138  0.79564  0.96376  1.0000
  H   H492      1.0  0.54495  0.75147  0.01812  1.0000
  S   S130      1.0  0.15966  0.62984  0.92468  1.0000
  H   H493      1.0  0.09974  0.98632  0.05018  1.0000
  H   H494      1.0  0.17642  0.81515  0.93398  1.0000
  H   H495      1.0  0.11577  0.74623  0.92187  1.0000
  H   H496      1.0  0.38636  0.89528  0.81890  1.0000
  C   C311      1.0  0.34133  0.09402  0.00514  1.0000
  C   C312      1.0  0.48047  0.99031  0.04720  1.0000
  C   C313      1.0  0.12522  0.03449  0.01430  1.0000
  H   H497      1.0  0.29682  0.09806  0.90964  1.0000
  S   S131      1.0  0.17491  0.06734  0.95422  1.0000
  H   H498      1.0  0.26885  0.60271  0.83979  1.0000
  H   H499      1.0  0.16547  0.79614  0.89782  1.0000
  H   H500      1.0  0.13518  0.81560  0.97651  1.0000
  H   H501      1.0  0.37677  0.07128  0.97457  1.0000
  C   C314      1.0  0.13620  0.06786  0.93656  1.0000
  N   N31       1.0  0.52945  0.09756  0.04365  1.0000
  H   H502      1.0  0.53464  0.06469  0.00469  1.0000
  C   C315      1.0  0.40488  0.97163  0.85129  1.0000
  H   H503      1.0  0.17097  0.77002  0.93060  1.0000
  C   C316      1.0  0.24178  0.60361  0.89619  1.0000
  H   H504      1.0  0.39551  0.03436  0.05326  1.0000
  C   C317      1.0  0.28492  0.61139  0.85891  1.0000
  H   H505      1.0  0.43343  0.05612  0.82335  1.0000
  C   C318      1.0  0.10699  0.77165  0.91479  1.0000
  C   C319      1.0  0.49426  0.08950  0.04834  1.0000
  C   C320      1.0  0.10107  0.04959  0.89475  1.0000
  S   S132      1.0  0.45395  0.09755  0.96032  1.0000
  H   H506      1.0  0.48163  0.08411  0.02626  1.0000
  Fe  Fe65      1.0  0.10698  0.62568  0.93961  1.0000
  H   H507      1.0  0.39133  0.90524  0.85878  1.0000
  H   H508      1.0  0.18490  0.67883  0.04827  1.0000
  C   C321      1.0  0.10932  0.08407  0.95019  1.0000
  H   H509      1.0  0.29730  0.63422  0.91561  1.0000
  H   H510      1.0  0.41171  0.96239  0.87444  1.0000
  H   H511      1.0  0.57237  0.07372  0.02468  1.0000
  H   H512      1.0  0.08804  0.09026  0.02460  1.0000
  Fe  Fe66      1.0  0.57148  0.62035  0.94623  1.0000
  H   H513      1.0  0.52798  0.71996  0.06361  1.0000
  C   C322      1.0  0.35888  0.09132  0.97761  1.0000
  C   C323      1.0  0.29857  0.60621  0.91237  1.0000
  H   H514      1.0  0.08748  0.83561  0.92532  1.0000
  H   H515      1.0  0.49986  0.60275  0.95099  1.0000
  H   H516      1.0  0.49110  0.06666  0.06300  1.0000
  H   H517      1.0  0.09494  0.79749  0.97027  1.0000
  C   C324      1.0  0.08282  0.75171  0.06219  1.0000
  C   C325      1.0  0.11565  0.05045  0.06671  1.0000
  N   N32       1.0  0.01131  0.13814  0.14644  1.0000
  C   C326      1.0  0.03770  0.37056  0.22307  1.0000
  C   C327      1.0  0.90807  0.38130  0.26005  1.0000
  S   S133      1.0  0.06300  0.35547  0.25236  1.0000
  H   H518      1.0  0.95087  0.14426  0.21521  1.0000
  H   H519      1.0  0.97251  0.16941  0.12842  1.0000
  C   C328      1.0  0.00788  0.15738  0.27105  1.0000
  H   H520      1.0  0.62103  0.34917  0.28764  1.0000
  C   C329      1.0  0.62785  0.24131  0.23605  1.0000
  S   S134      1.0  0.61474  0.25073  0.09355  1.0000
  H   H521      1.0  0.65264  0.23176  0.27841  1.0000
  C   C330      1.0  0.91115  0.44240  0.25750  1.0000
  C   C331      1.0  0.79993  0.18127  0.25257  1.0000
  H   H522      1.0  0.02224  0.12016  0.30457  1.0000
  C   C332      1.0  0.01798  0.34835  0.20598  1.0000
  C   C333      1.0  0.99868  0.36084  0.18191  1.0000
  C   C334      1.0  0.99871  0.39559  0.17517  1.0000
  H   H523      1.0  0.67586  0.16401  0.20444  1.0000
  H   H524      1.0  0.61695  0.31623  0.22329  1.0000
  H   H525      1.0  0.01741  0.32161  0.21136  1.0000
  H   H526      1.0  0.98344  0.34365  0.16867  1.0000
  H   H527      1.0  0.93096  0.38487  0.20251  1.0000
  H   H528      1.0  0.92312  0.46478  0.24670  1.0000
  C   C335      1.0  0.98851  0.16389  0.24526  1.0000
  S   S135      1.0  0.99381  0.20131  0.22434  1.0000
  H   H529      1.0  0.91188  0.38139  0.28522  1.0000
  H   H530      1.0  0.91740  0.35665  0.25119  1.0000
  C   C336      1.0  0.01828  0.41765  0.19250  1.0000
  H   H531      1.0  0.00278  0.19185  0.15097  1.0000
  S   S136      1.0  0.03497  0.26462  0.27983  1.0000
  H   H532      1.0  0.63725  0.19572  0.17062  1.0000
  H   H533      1.0  0.77562  0.23777  0.30661  1.0000
  H   H534      1.0  0.93390  0.43009  0.20085  1.0000
  N   N33       1.0  0.58403  0.34412  0.25247  1.0000
  C   C337      1.0  0.62344  0.23151  0.20562  1.0000
  H   H535      1.0  0.62994  0.35877  0.23192  1.0000
  S   S137      1.0  0.97356  0.41072  0.14551  1.0000
  H   H536      1.0  0.60008  0.51037  0.13600  1.0000
  H   H537      1.0  0.75162  0.21889  0.27639  1.0000
  C   C338      1.0  0.64063  0.20348  0.19415  1.0000
  H   H538      1.0  0.07178  0.32774  0.16998  1.0000
  Fe  Fe67      1.0  0.96778  0.46759  0.14230  1.0000
  H   H539      1.0  0.97420  0.43027  0.24277  1.0000
  H   H540      1.0  0.76129  0.16267  0.29945  1.0000
  C   C339      1.0  0.66250  0.18565  0.21324  1.0000
  C   C340      1.0  0.77707  0.22611  0.28347  1.0000
  N   N34       1.0  0.92509  0.41031  0.24573  1.0000
  C   C341      1.0  0.64965  0.22379  0.25495  1.0000
  H   H541      1.0  0.59682  0.35113  0.20531  1.0000
  C   C342      1.0  0.66704  0.19596  0.24366  1.0000
  H   H542      1.0  0.97281  0.16563  0.16916  1.0000
  H   H543      1.0  0.84266  0.22663  0.27675  1.0000
  C   C343      1.0  0.96051  0.40881  0.25324  1.0000
  C   C344      1.0  0.92078  0.40877  0.21225  1.0000
  H   H544      1.0  0.02435  0.17663  0.27980  1.0000
  C   C345      1.0  0.96647  0.13921  0.23468  1.0000
  H   H545      1.0  0.91463  0.44472  0.28266  1.0000
  H   H546      1.0  0.06087  0.54298  0.15824  1.0000
  Fe  Fe68      1.0  0.03890  0.22887  0.24040  1.0000
  H   H547      1.0  0.89438  0.41033  0.20561  1.0000
  H   H548      1.0  0.61402  0.26222  0.24524  1.0000
  C   C346      1.0  0.98889  0.16755  0.14874  1.0000
  S   S138      1.0  0.06591  0.26579  0.21087  1.0000
  H   H549      1.0  0.92697  0.53048  0.28814  1.0000
  H   H550      1.0  0.97183  0.38487  0.24493  1.0000
  S   S139      1.0  0.69338  0.17374  0.26822  1.0000
  H   H551      1.0  0.60895  0.30638  0.27953  1.0000
  S   S140      1.0  0.92110  0.49108  0.15972  1.0000
  C   C347      1.0  0.05773  0.58628  0.12856  1.0000
  C   C348      1.0  0.96295  0.49410  0.30360  1.0000
  H   H552      1.0  0.61536  0.12908  0.22840  1.0000
  C   C349      1.0  0.78679  0.17097  0.30541  1.0000
  H   H553      1.0  0.59830  0.58263  0.11369  1.0000
  H   H554      1.0  0.88428  0.44416  0.25282  1.0000
  H   H555      1.0  0.88101  0.38217  0.25603  1.0000
  C   C350      1.0  0.94979  0.51762  0.28288  1.0000
  C   C351      1.0  0.99511  0.50709  0.24847  1.0000
  H   H556      1.0  0.80253  0.14791  0.30580  1.0000
  H   H557      1.0  0.01902  0.13341  0.19480  1.0000
  H   H558      1.0  0.03144  0.47134  0.26415  1.0000
  C   C352      1.0  0.96564  0.10720  0.24836  1.0000
  C   C353      1.0  0.83260  0.20730  0.29270  1.0000
  H   H559      1.0  0.05144  0.11636  0.17192  1.0000
  H   H560      1.0  0.97618  0.10338  0.16590  1.0000
  S   S141      1.0  0.03622  0.56486  0.09966  1.0000
  C   C354      1.0  0.60848  0.12844  0.28951  1.0000
  H   H561      1.0  0.00802  0.51237  0.22758  1.0000
  C   C355      1.0  0.06602  0.56971  0.15567  1.0000
  C   C356      1.0  0.60805  0.34257  0.22719  1.0000
  Fe  Fe69      1.0  0.06679  0.29900  0.25240  1.0000
  H   H562      1.0  0.00869  0.59077  0.20356  1.0000
  C   C357      1.0  0.03775  0.40519  0.21638  1.0000
  H   H563      1.0  0.63110  0.14200  0.28197  1.0000
  C   C358      1.0  0.00646  0.12553  0.28525  1.0000
  H   H564      1.0  0.01558  0.14120  0.09758  1.0000
  Fe  Fe70      1.0  0.92291  0.52248  0.11713  1.0000
  S   S142      1.0  0.96663  0.49542  0.09759  1.0000
  S   S143      1.0  0.87997  0.53787  0.08775  1.0000
  Fe  Fe71      1.0  0.95477  0.53055  0.17966  1.0000
  S   S144      1.0  0.94666  0.54959  0.22755  1.0000
  Fe  Fe72      1.0  0.99587  0.53527  0.12210  1.0000
  C   C359      1.0  0.00862  0.48419  0.26943  1.0000
  H   H565      1.0  0.01863  0.44431  0.18761  1.0000
  S   S145      1.0  0.95223  0.56441  0.13878  1.0000
  H   H566      1.0  0.81630  0.15865  0.25171  1.0000
  H   H567      1.0  0.77484  0.17286  0.24525  1.0000
  H   H568      1.0  0.96476  0.41014  0.27831  1.0000
  C   C360      1.0  0.99210  0.47692  0.29662  1.0000
  S   S146      1.0  0.00137  0.50523  0.16498  1.0000
  C   C361      1.0  0.96535  0.52334  0.25486  1.0000
  C   C362      1.0  0.03321  0.13733  0.17346  1.0000
  N   N35       1.0  0.79915  0.19639  0.28350  1.0000
  C   C363      1.0  0.59972  0.33284  0.28118  1.0000
  H   H569      1.0  0.05285  0.42247  0.22967  1.0000
  H   H570      1.0  0.78576  0.24613  0.26755  1.0000
  H   H571      1.0  0.04697  0.16163  0.17629  1.0000
  H   H572      1.0  0.80892  0.19980  0.23538  1.0000
  H   H573      1.0  0.59518  0.18124  0.25243  1.0000
  H   H574      1.0  0.62836  0.54328  0.14729  1.0000
  H   H575      1.0  0.84996  0.18550  0.29316  1.0000
  C   C364      1.0  0.03132  0.14119  0.11842  1.0000
  H   H576      1.0  0.04903  0.11979  0.11616  1.0000
  H   H577      1.0  0.04594  0.16516  0.11841  1.0000
  H   H578      1.0  0.59330  0.39711  0.26107  1.0000
  C   C365      1.0  0.99171  0.10651  0.14513  1.0000
  H   H579      1.0  0.60099  0.13984  0.31173  1.0000
  C   C366      1.0  0.60426  0.53128  0.15279  1.0000
  H   H580      1.0  0.60644  0.51940  0.17572  1.0000
  Fe  Fe73      1.0  0.60037  0.19874  0.07660  1.0000
  H   H581      1.0  0.97472  0.10633  0.12515  1.0000
  C   C367      1.0  0.59325  0.11570  0.23740  1.0000
  S   S147      1.0  0.59613  0.25511  0.18308  1.0000
  H   H582      1.0  0.00215  0.59717  0.24355  1.0000
  H   H583      1.0  0.61540  0.10156  0.29382  1.0000
  Fe  Fe74      1.0  0.69011  0.19825  0.31454  1.0000
  H   H584      1.0  0.58703  0.57413  0.19764  1.0000
  C   C368      1.0  0.08115  0.58770  0.17957  1.0000
  H   H585      1.0  0.60704  0.59804  0.16797  1.0000
  Fe  Fe75      1.0  0.58556  0.23679  0.13534  1.0000
  C   C369      1.0  0.58414  0.58396  0.17398  1.0000
  H   H586      1.0  0.08229  0.34806  0.13478  1.0000
  Fe  Fe76      1.0  0.08226  0.24095  0.29504  1.0000
  H   H587      1.0  0.83244  0.21898  0.31597  1.0000
  H   H588      1.0  0.79616  0.34454  0.31650  1.0000
  S   S148      1.0  0.91258  0.37089  0.40637  1.0000
  S   S149      1.0  0.95621  0.36703  0.34289  1.0000
  N   N36       1.0  0.74281  0.24365  0.49571  1.0000
  C   C370      1.0  0.93503  0.40841  0.48742  1.0000
  Fe  Fe77      1.0  0.96467  0.35941  0.39295  1.0000
  S   S150      1.0  0.99356  0.31369  0.40744  1.0000
  C   C371      1.0  0.84213  0.43535  0.50900  1.0000
  C   C372      1.0  0.06941  0.31281  0.46724  1.0000
  H   H589      1.0  0.70615  0.22491  0.46435  1.0000
  Fe  Fe78      1.0  0.67455  0.18986  0.38194  1.0000
  S   S151      1.0  0.69030  0.24285  0.39362  1.0000
  S   S152      1.0  0.66151  0.15317  0.41888  1.0000
  Fe  Fe79      1.0  0.66261  0.25650  0.35102  1.0000
  S   S153      1.0  0.62964  0.30195  0.34786  1.0000
  Fe  Fe80      1.0  0.73276  0.23278  0.36235  1.0000
  S   S154      1.0  0.78590  0.23956  0.37586  1.0000
  S   S155      1.0  0.64354  0.20395  0.34147  1.0000
  S   S156      1.0  0.71910  0.17851  0.35400  1.0000
  S   S157      1.0  0.70680  0.25208  0.32068  1.0000
  H   H590      1.0  0.76569  0.29437  0.33572  1.0000
  C   C373      1.0  0.03319  0.35867  0.48214  1.0000
  H   H591      1.0  0.94376  0.36738  0.51884  1.0000
  C   C374      1.0  0.72821  0.24178  0.46480  1.0000
  C   C375      1.0  0.98699  0.24930  0.34767  1.0000
  H   H592      1.0  0.72874  0.25999  0.54075  1.0000
  C   C376      1.0  0.85595  0.31056  0.36138  1.0000
  C   C377      1.0  0.83891  0.28185  0.37178  1.0000
  C   C378      1.0  0.80633  0.27592  0.36260  1.0000
  C   C379      1.0  0.77219  0.26584  0.49529  1.0000
  H   H593      1.0  0.70986  0.28327  0.51024  1.0000
  H   H594      1.0  0.88102  0.31511  0.36869  1.0000
  H   H595      1.0  0.85088  0.26443  0.38726  1.0000
  C   C380      1.0  0.84056  0.33320  0.34144  1.0000
  H   H596      1.0  0.79116  0.45511  0.47418  1.0000
  C   C381      1.0  0.01902  0.32310  0.43874  1.0000
  C   C382      1.0  0.01185  0.35042  0.45802  1.0000
  C   C383      1.0  0.63644  0.21000  0.50659  1.0000
  H   H597      1.0  0.74602  0.23157  0.44777  1.0000
  C   C384      1.0  0.59346  0.29613  0.36911  1.0000
  H   H598      1.0  0.76346  0.20969  0.52888  1.0000
  H   H599      1.0  0.98974  0.36511  0.45450  1.0000
  H   H600      1.0  0.97483  0.24686  0.32498  1.0000
  H   H601      1.0  0.99411  0.24267  0.40880  1.0000
  H   H602      1.0  0.72025  0.26722  0.45669  1.0000
  C   C385      1.0  0.71838  0.25765  0.51727  1.0000
  C   C386      1.0  0.65093  0.17474  0.45250  1.0000
  H   H603      1.0  0.02715  0.33702  0.35415  1.0000
  H   H604      1.0  0.02744  0.37984  0.49700  1.0000
  H   H605      1.0  0.63173  0.21860  0.42936  1.0000
  Fe  Fe81      1.0  0.90561  0.38326  0.35678  1.0000
  C   C387      1.0  0.84570  0.49516  0.52101  1.0000
  C   C388      1.0  0.04752  0.30396  0.44366  1.0000
  H   H606      1.0  0.79112  0.25613  0.47915  1.0000
  C   C389      1.0  0.00278  0.22118  0.39439  1.0000
  C   C390      1.0  0.94811  0.21336  0.37374  1.0000
  H   H607      1.0  0.05631  0.30346  0.34815  1.0000
  H   H608      1.0  0.76576  0.29208  0.48814  1.0000
  H   H609      1.0  0.83203  0.51920  0.52522  1.0000
  H   H610      1.0  0.80793  0.45693  0.55762  1.0000
  C   C391      1.0  0.99497  0.18865  0.34807  1.0000
  H   H611      1.0  0.66779  0.13465  0.48191  1.0000
  S   S158      1.0  0.62902  0.23322  0.54007  1.0000
  H   H612      1.0  0.98808  0.34710  0.56563  1.0000
  H   H613      1.0  0.99302  0.16464  0.36121  1.0000
  H   H614      1.0  0.93717  0.39253  0.46738  1.0000
  H   H615      1.0  0.93261  0.21134  0.35282  1.0000
  H   H616      1.0  0.92048  0.49022  0.50810  1.0000
  H   H617      1.0  0.79407  0.49967  0.48313  1.0000
  H   H618      1.0  0.92479  0.46477  0.55950  1.0000
  C   C392      1.0  0.92756  0.44288  0.48437  1.0000
  Fe  Fe82      1.0  0.93097  0.42458  0.41026  1.0000
  H   H619      1.0  0.97599  0.27164  0.35935  1.0000
  C   C393      1.0  0.93862  0.39419  0.51656  1.0000
  H   H620      1.0  0.78379  0.26757  0.51838  1.0000
  Fe  Fe83      1.0  0.97071  0.42103  0.35203  1.0000
  H   H621      1.0  0.02128  0.19178  0.34149  1.0000
  H   H622      1.0  0.65510  0.16590  0.52977  1.0000
  H   H623      1.0  0.94428  0.18997  0.38745  1.0000
  C   C394      1.0  0.65029  0.17757  0.50792  1.0000
  H   H624      1.0  0.01341  0.25526  0.34376  1.0000
  H   H625      1.0  0.73077  0.19181  0.50604  1.0000
  S   S159      1.0  0.98382  0.41198  0.40095  1.0000
  S   S160      1.0  0.86155  0.36918  0.32811  1.0000
  C   C395      1.0  0.65724  0.15982  0.48088  1.0000
  H   H626      1.0  0.78624  0.18147  0.32907  1.0000
  C   C396      1.0  0.62962  0.22469  0.47823  1.0000
  H   H627      1.0  0.93867  0.23521  0.38741  1.0000
  H   H628      1.0  0.77087  0.19789  0.48978  1.0000
  C   C397      1.0  0.05046  0.33028  0.34236  1.0000
  C   C398      1.0  0.75244  0.20922  0.50554  1.0000
  H   H629      1.0  0.69630  0.24108  0.51876  1.0000
  H   H630      1.0  0.00129  0.19776  0.40839  1.0000
  C   C399      1.0  0.63708  0.20718  0.45121  1.0000
  H   H631      1.0  0.61901  0.24979  0.47710  1.0000
  S   S161      1.0  0.91928  0.43821  0.36172  1.0000
  N   N37       1.0  0.98321  0.21810  0.36598  1.0000
  C   C400      1.0  0.93394  0.41429  0.54261  1.0000
  H   H632      1.0  0.04608  0.39450  0.55425  1.0000
  H   H633      1.0  0.95057  0.48936  0.32493  1.0000
  H   H634      1.0  0.02926  0.22593  0.38943  1.0000
  H   H635      1.0  0.06076  0.35788  0.39787  1.0000
  C   C401      1.0  0.80824  0.47554  0.48193  1.0000
  H   H636      1.0  0.82739  0.47860  0.46392  1.0000
  S   S162      1.0  0.91782  0.46001  0.44861  1.0000
  H   H637      1.0  0.02711  0.33515  0.54991  1.0000
  H   H638      1.0  0.77967  0.44272  0.52870  1.0000
  H   H639      1.0  0.86088  0.43701  0.49058  1.0000
  C   C402      1.0  0.79093  0.29853  0.34263  1.0000
  N   N38       1.0  0.82332  0.46731  0.51174  1.0000
  C   C403      1.0  0.06221  0.34015  0.48656  1.0000
  H   H640      1.0  0.60578  0.24561  0.38380  1.0000
  H   H641      1.0  0.85899  0.48904  0.54258  1.0000
  C   C404      1.0  0.92495  0.46331  0.51042  1.0000
  H   H642      1.0  0.82584  0.41346  0.50342  1.0000
  C   C405      1.0  0.92755  0.44894  0.53952  1.0000
  H   H643      1.0  0.85543  0.42924  0.53058  1.0000
  C   C406      1.0  0.79726  0.46327  0.53495  1.0000
  H   H644      1.0  0.86440  0.50030  0.50310  1.0000
  H   H645      1.0  0.05310  0.28287  0.42875  1.0000
  C   C407      1.0  0.80817  0.32696  0.33182  1.0000
  H   H646      1.0  0.78304  0.48718  0.53811  1.0000
  H   H647      1.0  0.98058  0.18538  0.32659  1.0000
  H   H648      1.0  0.04572  0.39668  0.35630  1.0000
  C   C408      1.0  0.06832  0.38864  0.34389  1.0000
  S   S163      1.0  0.00752  0.44495  0.32047  1.0000
  C   C409      1.0  0.58771  0.26563  0.38450  1.0000
  H   H649      1.0  0.06308  0.39154  0.31901  1.0000
  N   N39       1.0  0.07745  0.35337  0.35152  1.0000
  H   H650      1.0  0.58970  0.29464  0.53276  1.0000
  H   H651      1.0  0.59153  0.31278  0.47860  1.0000
  S   S164      1.0  0.08136  0.22977  0.34516  1.0000
  H   H652      1.0  0.04567  0.33169  0.31735  1.0000
  C   C410      1.0  0.01344  0.33865  0.57172  1.0000
  Fe  Fe84      1.0  0.69500  0.16308  0.61711  1.0000
  S   S165      1.0  0.64632  0.18961  0.62093  1.0000
  H   H653      1.0  0.75596  0.32623  0.79638  1.0000
  Fe  Fe85      1.0  0.73134  0.22774  0.60150  1.0000
  S   S166      1.0  0.68618  0.26001  0.60460  1.0000
  S   S167      1.0  0.77926  0.25075  0.58677  1.0000
  Fe  Fe86      1.0  0.67487  0.22954  0.64633  1.0000
  S   S168      1.0  0.65289  0.25052  0.68943  1.0000
  H   H654      1.0  0.02298  0.38642  0.63603  1.0000
  C   C411      1.0  0.03191  0.39664  0.57592  1.0000
  S   S169      1.0  0.72246  0.20096  0.64583  1.0000
  H   H655      1.0  0.66245  0.10189  0.75121  1.0000
  H   H656      1.0  0.79058  0.52729  0.77010  1.0000
  S   S170      1.0  0.69739  0.10667  0.62522  1.0000
  Fe  Fe87      1.0  0.84494  0.41198  0.65385  1.0000
  C   C412      1.0  0.79736  0.38934  0.76019  1.0000
  H   H657      1.0  0.64437  0.25758  0.75386  1.0000
  C   C413      1.0  0.68152  0.25706  0.71887  1.0000
  H   H658      1.0  0.78096  0.41065  0.76695  1.0000
  S   S171      1.0  0.70806  0.18734  0.57253  1.0000
  C   C414      1.0  0.01123  0.36757  0.62046  1.0000
  H   H659      1.0  0.72391  0.25776  0.68950  1.0000
  C   C415      1.0  0.80179  0.34012  0.65017  1.0000
  C   C416      1.0  0.77519  0.31851  0.65616  1.0000
  C   C417      1.0  0.76844  0.29105  0.63670  1.0000
  C   C418      1.0  0.78843  0.28479  0.61137  1.0000
  C   C419      1.0  0.81539  0.30601  0.60562  1.0000
  C   C420      1.0  0.82204  0.33372  0.62499  1.0000
  H   H660      1.0  0.75939  0.32319  0.67551  1.0000
  H   H661      1.0  0.74763  0.27480  0.64126  1.0000
  H   H662      1.0  0.76215  0.56189  0.77281  1.0000
  H   H663      1.0  0.84298  0.34991  0.62054  1.0000
  C   C421      1.0  0.72694  0.25718  0.76719  1.0000
  H   H664      1.0  0.94976  0.55602  0.80518  1.0000
  C   C422      1.0  0.70811  0.16769  0.72472  1.0000
  N   N40       1.0  0.03006  0.36364  0.59182  1.0000
  H   H665      1.0  0.75615  0.13995  0.64805  1.0000
  C   C423      1.0  0.69318  0.25754  0.77322  1.0000
  N   N41       1.0  0.78028  0.35625  0.76231  1.0000
  C   C424      1.0  0.75088  0.35635  0.74232  1.0000
  C   C425      1.0  0.80324  0.53279  0.71053  1.0000
  S   S172      1.0  0.80915  0.37507  0.67429  1.0000
  H   H666      1.0  0.70314  0.19114  0.71160  1.0000
  H   H667      1.0  0.83315  0.56879  0.75564  1.0000
  C   C426      1.0  0.81477  0.58233  0.74129  1.0000
  N   N42       1.0  0.67727  0.14902  0.73086  1.0000
  H   H668      1.0  0.80585  0.39436  0.73648  1.0000
  H   H669      1.0  0.75234  0.52554  0.74954  1.0000
  C   C427      1.0  0.73802  0.25798  0.73695  1.0000
  H   H670      1.0  0.72089  0.17535  0.74620  1.0000
  C   C428      1.0  0.06363  0.35170  0.59919  1.0000
  C   C429      1.0  0.80283  0.32892  0.75251  1.0000
  H   H671      1.0  0.67557  0.12644  0.68612  1.0000
  H   H672      1.0  0.76409  0.25718  0.73206  1.0000
  C   C430      1.0  0.98932  0.53728  0.75934  1.0000
  H   H673      1.0  0.77531  0.59271  0.69385  1.0000
  H   H674      1.0  0.69802  0.12131  0.76835  1.0000
  C   C431      1.0  0.65574  0.16979  0.75065  1.0000
  C   C432      1.0  0.77004  0.35038  0.79422  1.0000
  H   H675      1.0  0.63310  0.15575  0.75736  1.0000
  H   H676      1.0  0.07866  0.34832  0.57825  1.0000
  C   C433      1.0  0.71530  0.25802  0.71279  1.0000
  C   C434      1.0  0.67050  0.25798  0.74909  1.0000
  H   H677      1.0  0.63661  0.12815  0.70534  1.0000
  H   H678      1.0  0.01204  0.53823  0.74526  1.0000
  H   H679      1.0  0.88156  0.54524  0.80128  1.0000
  H   H680      1.0  0.82600  0.32906  0.76608  1.0000
  H   H681      1.0  0.79709  0.12266  0.68682  1.0000
  H   H682      1.0  0.79136  0.30349  0.75541  1.0000
  C   C435      1.0  0.68514  0.11671  0.74625  1.0000
  H   H683      1.0  0.75393  0.37113  0.80274  1.0000
  H   H684      1.0  0.66848  0.17763  0.77209  1.0000
  C   C436      1.0  0.75309  0.11616  0.65979  1.0000
  Fe  Fe88      1.0  0.90234  0.42365  0.61168  1.0000
  H   H685      1.0  0.00449  0.48216  0.79217  1.0000
  N   N43       1.0  0.99703  0.53613  0.79233  1.0000
  H   H686      1.0  0.73284  0.37597  0.74953  1.0000
  H   H687      1.0  0.65415  0.16600  0.68942  1.0000
  S   S173      1.0  0.89948  0.40837  0.66096  1.0000
  H   H688      1.0  0.04410  0.41634  0.59028  1.0000
  H   H689      1.0  0.06311  0.32678  0.61107  1.0000
  H   H690      1.0  0.72555  0.15222  0.71096  1.0000
  H   H691      1.0  0.83105  0.30113  0.58616  1.0000
  H   H692      1.0  0.77769  0.57703  0.60019  1.0000
  H   H693      1.0  0.80964  0.33153  0.72799  1.0000
  C   C437      1.0  0.01516  0.56721  0.80131  1.0000
  Fe  Fe89      1.0  0.66186  0.21756  0.57890  1.0000
  H   H694      1.0  0.00691  0.40616  0.56985  1.0000
  S   S174      1.0  0.84777  0.42279  0.60377  1.0000
  H   H695      1.0  0.73807  0.33132  0.74256  1.0000
  Fe  Fe90      1.0  0.84984  0.47748  0.61787  1.0000
  S   S175      1.0  0.90486  0.47956  0.62133  1.0000
  S   S176      1.0  0.81892  0.51768  0.59578  1.0000
  Fe  Fe91      1.0  0.89678  0.46436  0.67002  1.0000
  S   S177      1.0  0.92254  0.49183  0.70820  1.0000
  S   S178      1.0  0.84181  0.46675  0.66731  1.0000
  C   C438      1.0  0.85005  0.47345  0.76912  1.0000
  H   H696      1.0  0.81440  0.54414  0.68981  1.0000
  H   H697      1.0  0.83097  0.45477  0.77267  1.0000
  C   C439      1.0  0.76375  0.57845  0.71293  1.0000
  C   C440      1.0  0.77650  0.10615  0.68150  1.0000
  C   C441      1.0  0.89591  0.49492  0.73944  1.0000
  C   C442      1.0  0.89930  0.52197  0.75996  1.0000
  C   C443      1.0  0.87119  0.47066  0.74396  1.0000
  H   H698      1.0  0.91745  0.54145  0.75586  1.0000
  C   C444      1.0  0.82265  0.55520  0.61730  1.0000
  C   C445      1.0  0.84943  0.55966  0.63704  1.0000
  H   H699      1.0  0.81950  0.39022  0.77521  1.0000
  H   H700      1.0  0.86834  0.54051  0.63851  1.0000
  H   H701      1.0  0.82312  0.51871  0.72254  1.0000
  H   H702      1.0  0.64769  0.19331  0.73881  1.0000
  C   C446      1.0  0.85412  0.50001  0.79007  1.0000
  C   C447      1.0  0.87874  0.52429  0.78548  1.0000
  H   H703      1.0  0.97436  0.56004  0.75356  1.0000
  N   N44       1.0  0.78858  0.55910  0.73040  1.0000
  H   H704      1.0  0.68446  0.25740  0.79649  1.0000
  H   H705      1.0  0.98578  0.37657  0.61597  1.0000
  H   H706      1.0  0.75763  0.36176  0.71821  1.0000
  H   H707      1.0  0.64195  0.59508  0.76962  1.0000
  H   H708      1.0  0.97497  0.51452  0.75191  1.0000
  C   C448      1.0  0.77266  0.54274  0.75686  1.0000
  H   H709      1.0  0.86867  0.44951  0.72831  1.0000
  H   H710      1.0  0.03806  0.57046  0.78777  1.0000
  H   H711      1.0  0.78457  0.51399  0.70265  1.0000
  H   H712      1.0  0.00912  0.34309  0.63287  1.0000
  C   C449      1.0  0.79836  0.58031  0.61555  1.0000
  C   C450      1.0  0.66013  0.14201  0.70169  1.0000
  H   H713      1.0  0.75080  0.59724  0.72761  1.0000
  S   S179      1.0  0.93508  0.39575  0.57887  1.0000
  H   H714      1.0  0.01136  0.31341  0.58281  1.0000
  H   H715      1.0  0.70150  0.10056  0.73188  1.0000
  C   C451      1.0  0.85187  0.58899  0.65511  1.0000
  H   H716      1.0  0.74467  0.56145  0.70285  1.0000
  H   H717      1.0  0.95201  0.51052  0.80440  1.0000
  H   H718      1.0  0.04117  0.50690  0.78625  1.0000
  C   C452      1.0  0.96614  0.53401  0.80995  1.0000
  H   H719      1.0  0.87262  0.59216  0.67041  1.0000
  H   H720      1.0  0.99978  0.59035  0.79808  1.0000
  S   S180      1.0  0.75518  0.25464  0.79735  1.0000
  C   C453      1.0  0.01745  0.50601  0.79888  1.0000
  H   H721      1.0  0.82845  0.59377  0.72187  1.0000
  H   H722      1.0  0.79168  0.34859  0.80977  1.0000
  H   H723      1.0  0.07695  0.37011  0.61409  1.0000
  H   H724      1.0  0.88787  0.11127  0.81585  1.0000
  H   H725      1.0  0.63763  0.26301  0.93828  1.0000
  H   H726      1.0  0.81990  0.14594  0.01186  1.0000
  C   C454      1.0  0.60146  0.15765  0.85858  1.0000
  Fe  Fe92      1.0  0.71352  0.20835  0.89899  1.0000
  S   S181      1.0  0.70349  0.15309  0.89085  1.0000
  S   S182      1.0  0.70805  0.23464  0.94448  1.0000
  Fe  Fe93      1.0  0.75040  0.15372  0.86434  1.0000
  Fe  Fe94      1.0  0.90860  0.58595  0.86728  1.0000
  Fe  Fe95      1.0  0.67992  0.17084  0.84746  1.0000
  H   H727      1.0  0.79688  0.56073  0.95850  1.0000
  S   S183      1.0  0.76279  0.20770  0.87595  1.0000
  S   S184      1.0  0.68640  0.22628  0.85742  1.0000
  S   S185      1.0  0.62864  0.16079  0.04872  1.0000
  H   H728      1.0  0.79637  0.21372  0.98376  1.0000
  H   H729      1.0  0.82914  0.50561  0.99731  1.0000
  H   H730      1.0  0.80427  0.49958  0.96386  1.0000
  H   H731      1.0  0.67374  0.16967  0.94598  1.0000
  C   C455      1.0  0.87982  0.54998  0.02634  1.0000
  C   C456      1.0  0.61120  0.16253  0.88892  1.0000
  H   H732      1.0  0.90905  0.47864  0.06039  1.0000
  C   C457      1.0  0.02748  0.56466  0.99708  1.0000
  H   H733      1.0  0.04711  0.14332  0.90718  1.0000
  H   H734      1.0  0.08164  0.18343  0.82256  1.0000
  H   H735      1.0  0.82024  0.17028  0.88399  1.0000
  C   C458      1.0  0.65220  0.18039  0.02035  1.0000
  H   H736      1.0  0.64386  0.14048  0.98746  1.0000
  H   H737      1.0  0.81399  0.12163  0.97746  1.0000
  H   H738      1.0  0.03707  0.58660  0.98384  1.0000
  H   H739      1.0  0.82148  0.56891  0.99161  1.0000
  C   C459      1.0  0.85769  0.15557  0.91604  1.0000
  H   H740      1.0  0.78069  0.57283  0.88941  1.0000
  C   C460      1.0  0.97174  0.57418  0.97983  1.0000
  H   H741      1.0  0.63684  0.16530  0.89460  1.0000
  H   H742      1.0  0.78541  0.19782  0.02085  1.0000
  Fe  Fe96      1.0  0.73472  0.22011  0.83335  1.0000
  C   C461      1.0  0.83053  0.14963  0.89694  1.0000
  S   S186      1.0  0.72594  0.16589  0.81986  1.0000
  H   H743      1.0  0.80903  0.54020  0.04029  1.0000
  C   C462      1.0  0.67234  0.18137  0.96818  1.0000
  H   H744      1.0  0.86775  0.18092  0.91831  1.0000
  C   C463      1.0  0.65535  0.16487  0.99171  1.0000
  C   C464      1.0  0.66676  0.21206  0.02566  1.0000
  C   C465      1.0  0.04032  0.15317  0.88422  1.0000
  H   H745      1.0  0.69534  0.25286  0.00646  1.0000
  C   C466      1.0  0.98592  0.57675  0.89049  1.0000
  H   H746      1.0  0.74459  0.17242  0.94799  1.0000
  H   H747      1.0  0.62623  0.26904  0.99351  1.0000
  C   C467      1.0  0.68418  0.22829  0.00226  1.0000
  H   H748      1.0  0.02683  0.13240  0.87219  1.0000
  C   C468      1.0  0.68675  0.21314  0.97341  1.0000
  H   H749      1.0  0.62145  0.22084  0.93971  1.0000
  C   C469      1.0  0.76995  0.16256  0.95135  1.0000
  H   H750      1.0  0.04761  0.15420  0.82317  1.0000
  H   H751      1.0  0.04242  0.19685  0.83722  1.0000
  H   H752      1.0  0.60417  0.31127  0.95654  1.0000
  N   N45       1.0  0.77907  0.16208  0.98401  1.0000
  C   C470      1.0  0.58780  0.16241  0.91231  1.0000
  C   C471      1.0  0.76292  0.58241  0.90554  1.0000
  S   S187      1.0  0.82812  0.50319  0.82171  1.0000
  C   C472      1.0  0.01380  0.56890  0.90792  1.0000
  C   C473      1.0  0.75510  0.14108  0.00092  1.0000
  H   H753      1.0  0.02273  0.17447  0.88754  1.0000
  H   H754      1.0  0.99800  0.53728  0.04557  1.0000
  Fe  Fe97      1.0  0.85298  0.53612  0.85671  1.0000
  C   C474      1.0  0.79604  0.56323  0.98374  1.0000
  Fe  Fe98      1.0  0.89121  0.53580  0.91633  1.0000
  N   N46       1.0  0.06975  0.16390  0.86694  1.0000
  S   S188      1.0  0.91363  0.50145  0.95123  1.0000
  H   H755      1.0  0.60517  0.25032  0.91256  1.0000
  H   H756      1.0  0.76126  0.13995  0.02567  1.0000
  S   S189      1.0  0.83734  0.53704  0.90572  1.0000
  S   S190      1.0  0.90634  0.52920  0.86761  1.0000
  C   C475      1.0  0.90309  0.51149  0.98885  1.0000
  C   C476      1.0  0.74864  0.52653  0.98754  1.0000
  C   C477      1.0  0.88739  0.54210  0.99588  1.0000
  C   C478      1.0  0.91096  0.48873  0.01215  1.0000
  H   H757      1.0  0.88144  0.55980  0.97791  1.0000
  H   H758      1.0  0.78062  0.58580  0.98908  1.0000
  H   H759      1.0  0.73745  0.50373  0.99829  1.0000
  C   C479      1.0  0.81244  0.14763  0.98746  1.0000
  H   H760      1.0  0.06913  0.21402  0.88671  1.0000
  C   C480      1.0  0.05984  0.17512  0.83610  1.0000
  H   H761      1.0  0.94590  0.57981  0.98644  1.0000
  S   S191      1.0  0.61569  0.57972  0.87671  1.0000
  H   H762      1.0  0.75396  0.20886  0.99376  1.0000
  C   C481      1.0  0.81748  0.11689  0.89401  1.0000
  Fe  Fe99      1.0  0.63049  0.57980  0.92586  1.0000
  S   S192      1.0  0.67606  0.55225  0.93999  1.0000
  H   H763      1.0  0.73257  0.54862  0.99297  1.0000
  N   N47       1.0  0.58973  0.25885  0.95898  1.0000
  C   C482      1.0  0.88799  0.52728  0.04968  1.0000
  H   H764      1.0  0.78678  0.17919  0.93809  1.0000
  H   H765      1.0  0.97114  0.55048  0.96586  1.0000
  H   H766      1.0  0.74744  0.52272  0.96236  1.0000
  H   H767      1.0  0.60846  0.22716  0.99471  1.0000
  C   C483      1.0  0.73366  0.56449  0.91045  1.0000
  H   H768      1.0  0.79364  0.47867  0.99890  1.0000
  H   H769      1.0  0.72927  0.54072  0.89863  1.0000
  C   C484      1.0  0.77873  0.19712  0.99620  1.0000
  C   C485      1.0  0.04196  0.58925  0.90617  1.0000
  H   H770      1.0  0.72972  0.15155  0.99899  1.0000
  C   C486      1.0  0.87240  0.12856  0.93152  1.0000
  H   H771      1.0  0.96412  0.56124  0.89250  1.0000
  C   C487      1.0  0.90332  0.49656  0.04252  1.0000
  S   S193      1.0  0.63120  0.15189  0.83005  1.0000
  H   H772      1.0  0.59570  0.16436  0.93586  1.0000
  H   H773      1.0  0.08061  0.11252  0.85351  1.0000
  C   C488      1.0  0.78348  0.53608  0.03161  1.0000
  H   H774      1.0  0.01338  0.54729  0.92307  1.0000
  H   H775      1.0  0.77368  0.51309  0.04319  1.0000
  H   H776      1.0  0.92295  0.46496  0.00672  1.0000
  H   H777      1.0  0.95642  0.54534  0.03394  1.0000
  C   C489      1.0  0.80333  0.50271  0.98913  1.0000
  N   N48       1.0  0.78287  0.53212  0.99803  1.0000
  H   H778      1.0  0.02333  0.50424  0.82369  1.0000
  H   H779      1.0  0.77085  0.13672  0.94098  1.0000
  S   S194      1.0  0.90644  0.13568  0.95517  1.0000
  H   H780      1.0  0.66456  0.22407  0.04780  1.0000
  H   H781      1.0  0.86828  0.57394  0.03194  1.0000
  H   H782      1.0  0.02949  0.54183  0.98214  1.0000
  C   C490      1.0  0.71033  0.57698  0.93099  1.0000
  H   H783      1.0  0.04421  0.56096  0.01698  1.0000
  H   H784      1.0  0.98169  0.51737  0.01170  1.0000
  H   H785      1.0  0.83125  0.16346  0.97570  1.0000
  H   H786      1.0  0.97106  0.53414  0.83496  1.0000
  N   N49       1.0  0.99317  0.57045  0.00695  1.0000
  C   C491      1.0  0.98186  0.54130  0.02532  1.0000
  C   C492      1.0  0.61452  0.24785  0.93636  1.0000
  C   C493      1.0  0.60309  0.25431  0.99007  1.0000
  H   H787      1.0  0.00774  0.59965  0.04629  1.0000
  H   H788      1.0  0.85774  0.10844  0.84546  1.0000
  S   S195      1.0  0.85642  0.59260  0.85156  1.0000
  S   S196      1.0  0.78374  0.10888  0.87008  1.0000
  H   H789      1.0  0.02232  0.56657  0.82587  1.0000
  S   S197      1.0  0.07574  0.58001  0.92961  1.0000
  S   S198      1.0  0.89738  0.59225  0.91700  1.0000
  Fe  Fe100     1.0  0.84470  0.59341  0.90148  1.0000
  H   H790      1.0  0.76842  0.55817  0.03908  1.0000
  H   H791      1.0  0.98037  0.59506  0.96474  1.0000
  H   H792      1.0  0.75446  0.11458  0.99200  1.0000
  H   H793      1.0  0.58536  0.26294  0.00769  1.0000
  S   S199      1.0  0.61865  0.67365  0.19724  1.0000
  S   S200      1.0  0.62350  0.65178  0.11040  1.0000
  H   H794      1.0  0.92525  0.97098  0.10593  1.0000
  H   H795      1.0  0.94861  0.62402  0.23404  1.0000
  H   H796      1.0  0.68618  0.67384  0.29199  1.0000
  H   H797      1.0  0.98856  0.69073  0.23696  1.0000
  Fe  Fe101     1.0  0.61255  0.72990  0.20201  1.0000
  C   C494      1.0  0.67945  0.70039  0.29116  1.0000
  H   H798      1.0  0.05224  0.83733  0.24070  1.0000
  C   C495      1.0  0.05687  0.90130  0.26266  1.0000
  H   H799      1.0  0.60774  0.67811  0.28525  1.0000
  S   S201      1.0  0.60000  0.73712  0.15256  1.0000
  C   C496      1.0  0.66734  0.71428  0.26392  1.0000
  H   H800      1.0  0.03384  0.66350  0.18971  1.0000
  H   H801      1.0  0.98016  0.95065  0.12196  1.0000
  H   H802      1.0  0.59971  0.08846  0.24025  1.0000
  H   H803      1.0  0.66510  0.69853  0.24379  1.0000
  H   H804      1.0  0.90648  0.93787  0.12781  1.0000
  C   C497      1.0  0.65909  0.74868  0.26259  1.0000
  H   H805      1.0  0.02749  0.67083  0.24448  1.0000
  H   H806      1.0  0.03879  0.89921  0.28160  1.0000
  H   H807      1.0  0.06027  0.88630  0.15505  1.0000
  H   H808      1.0  0.06820  0.92703  0.26367  1.0000
  H   H809      1.0  0.92229  0.87794  0.11910  1.0000
  H   H810      1.0  0.58938  0.80770  0.07306  1.0000
  C   C498      1.0  0.97084  0.92415  0.12011  1.0000
  H   H811      1.0  0.87071  0.89521  0.31379  1.0000
  H   H812      1.0  0.94523  0.65889  0.20782  1.0000
  C   C499      1.0  0.60060  0.64774  0.07643  1.0000
  H   H813      1.0  0.96872  0.84153  0.21807  1.0000
  Fe  Fe102     1.0  0.93403  0.02364  0.18968  1.0000
  S   S202      1.0  0.98682  0.02858  0.20361  1.0000
  S   S203      1.0  0.91647  0.05430  0.14978  1.0000
  Fe  Fe103     1.0  0.92011  0.96881  0.23665  1.0000
  S   S204      1.0  0.97227  0.96845  0.25351  1.0000
  S   S205      1.0  0.88581  0.93179  0.25899  1.0000
  Fe  Fe104     1.0  0.96757  0.02498  0.25131  1.0000
  H   H814      1.0  0.04778  0.83718  0.28138  1.0000
  Fe  Fe105     1.0  0.98569  0.97184  0.20411  1.0000
  S   S206      1.0  0.02547  0.94270  0.18053  1.0000
  S   S207      1.0  0.91440  0.02541  0.23757  1.0000
  S   S208      1.0  0.93400  0.96687  0.18712  1.0000
  C   C500      1.0  0.01122  0.82891  0.19100  1.0000
  C   C501      1.0  0.93961  0.04498  0.11704  1.0000
  S   S209      1.0  0.01080  0.78596  0.20111  1.0000
  C   C502      1.0  0.01822  0.89902  0.18266  1.0000
  C   C503      1.0  0.99179  0.88637  0.19965  1.0000
  C   C504      1.0  0.98832  0.85126  0.20384  1.0000
  H   H815      1.0  0.00824  0.00210  0.09483  1.0000
  H   H816      1.0  0.95390  0.61676  0.19406  1.0000
  H   H817      1.0  0.97469  0.90359  0.21052  1.0000
  H   H818      1.0  0.91228  0.88212  0.07928  1.0000
  H   H819      1.0  0.90836  0.07375  0.08696  1.0000
  C   C505      1.0  0.98649  0.01779  0.09302  1.0000
  H   H820      1.0  0.87260  0.99866  0.28356  1.0000
  C   C506      1.0  0.93012  0.05805  0.08868  1.0000
  C   C507      1.0  0.86976  0.98033  0.30159  1.0000
  H   H821      1.0  0.99394  0.67978  0.18090  1.0000
  C   C508      1.0  0.66291  0.76915  0.28858  1.0000
  H   H822      1.0  0.04278  0.89983  0.24093  1.0000
  C   C509      1.0  0.04005  0.87660  0.16853  1.0000
  N   N50       1.0  0.99474  0.64169  0.21601  1.0000
  C   C510      1.0  0.58996  0.69383  0.29845  1.0000
  C   C511      1.0  0.87351  0.94571  0.29535  1.0000
  H   H823      1.0  0.94948  0.08792  0.23924  1.0000
  H   H824      1.0  0.89665  0.94251  0.08802  1.0000
  C   C512      1.0  0.00748  0.65632  0.18734  1.0000
  C   C513      1.0  0.03644  0.84156  0.17257  1.0000
  S   S210      1.0  0.64382  0.76642  0.22877  1.0000
  N   N51       1.0  0.94438  0.92099  0.09704  1.0000
  H   H825      1.0  0.03875  0.61346  0.22597  1.0000
  H   H826      1.0  0.58555  0.85834  0.16904  1.0000
  Fe  Fe106     1.0  0.60025  0.68037  0.14929  1.0000
  H   H827      1.0  0.96207  0.91672  0.14319  1.0000
  H   H828      1.0  0.97544  0.01471  0.14087  1.0000
  C   C514      1.0  0.96792  0.02496  0.11915  1.0000
  H   H829      1.0  0.60097  0.71959  0.30108  1.0000
  H   H830      1.0  0.05341  0.82430  0.16165  1.0000
  S   S211      1.0  0.98705  0.05896  0.28829  1.0000
  N   N52       1.0  0.08203  0.87430  0.26424  1.0000
  C   C515      1.0  0.93228  0.88558  0.09645  1.0000
  H   H831      1.0  0.65674  0.79582  0.28752  1.0000
  Fe  Fe107     1.0  0.06240  0.76585  0.19986  1.0000
  C   C516      1.0  0.01187  0.60942  0.22254  1.0000
  H   H832      1.0  0.00543  0.63795  0.16802  1.0000
  H   H833      1.0  0.99226  0.90764  0.11464  1.0000
  H   H834      1.0  0.60018  0.73055  0.08276  1.0000
  C   C517      1.0  0.98599  0.10012  0.27334  1.0000
  C   C518      1.0  0.91699  0.94404  0.10504  1.0000
  H   H835      1.0  0.00769  0.08369  0.14339  1.0000
  C   C519      1.0  0.95904  0.63520  0.21283  1.0000
  C   C520      1.0  0.67423  0.75506  0.31602  1.0000
  C   C521      1.0  0.06579  0.84071  0.26259  1.0000
  H   H836      1.0  0.95239  0.86748  0.09069  1.0000
  H   H837      1.0  0.99104  0.65576  0.26330  1.0000
  H   H838      1.0  0.58619  0.62752  0.31073  1.0000
  C   C522      1.0  0.00064  0.66585  0.24135  1.0000
  S   S212      1.0  0.08121  0.73644  0.23990  1.0000
  H   H839      1.0  0.05824  0.63357  0.10438  1.0000
  C   C523      1.0  0.06538  0.62060  0.12507  1.0000
  S   S213      1.0  0.08025  0.72911  0.16473  1.0000
  C   C524      1.0  0.08079  0.63851  0.14886  1.0000
  H   H840      1.0  0.78449  0.75293  0.34914  1.0000
  C   C525      1.0  0.07243  0.79701  0.40241  1.0000
  H   H841      1.0  0.66991  0.75448  0.52648  1.0000
  H   H842      1.0  0.60628  0.88346  0.39650  1.0000
  S   S214      1.0  0.69651  0.70247  0.35144  1.0000
  C   C526      1.0  0.68602  0.74315  0.54318  1.0000
  C   C527      1.0  0.97343  0.89816  0.55514  1.0000
  C   C528      1.0  0.72276  0.69805  0.55850  1.0000
  S   S215      1.0  0.69559  0.69146  0.50174  1.0000
  S   S216      1.0  0.70912  0.74758  0.43080  1.0000
  C   C529      1.0  0.81679  0.82405  0.55736  1.0000
  C   C530      1.0  0.06877  0.87234  0.46481  1.0000
  Fe  Fe108     1.0  0.67661  0.72703  0.39387  1.0000
  S   S217      1.0  0.64501  0.69718  0.42584  1.0000
  C   C531      1.0  0.70205  0.71264  0.53657  1.0000
  C   C532      1.0  0.78435  0.82034  0.34022  1.0000
  Fe  Fe109     1.0  0.67436  0.72221  0.46322  1.0000
  C   C533      1.0  0.02124  0.77787  0.42426  1.0000
  H   H843      1.0  0.93317  0.00969  0.32242  1.0000
  H   H844      1.0  0.94888  0.90995  0.55114  1.0000
  C   C534      1.0  0.78394  0.80176  0.39269  1.0000
  H   H845      1.0  0.63232  0.66111  0.33476  1.0000
  H   H846      1.0  0.95290  0.04187  0.34494  1.0000
  H   H847      1.0  0.97683  0.87809  0.53748  1.0000
  H   H848      1.0  0.00817  0.75749  0.43696  1.0000
  C   C535      1.0  0.60487  0.87891  0.42151  1.0000
  H   H849      1.0  0.75761  0.79294  0.54568  1.0000
  S   S218      1.0  0.64051  0.76698  0.46795  1.0000
  Fe  Fe110     1.0  0.90069  0.94591  0.49376  1.0000
  S   S219      1.0  0.91667  0.89182  0.48982  1.0000
  S   S220      1.0  0.91215  0.97356  0.53740  1.0000
  Fe  Fe111     1.0  0.87402  0.94744  0.42865  1.0000
  S   S221      1.0  0.88732  0.89311  0.41970  1.0000
  S   S222      1.0  0.85442  0.98260  0.39257  1.0000
  Fe  Fe112     1.0  0.86770  0.88444  0.46689  1.0000
  S   S223      1.0  0.83718  0.83961  0.48072  1.0000
  Fe  Fe113     1.0  0.93460  0.90619  0.44332  1.0000
  S   S224      1.0  0.98400  0.89646  0.42222  1.0000
  S   S225      1.0  0.85026  0.93787  0.47411  1.0000
  S   S226      1.0  0.92280  0.96114  0.44928  1.0000
  C   C536      1.0  0.86111  0.93309  0.34837  1.0000
  H   H850      1.0  0.92261  0.95980  0.37676  1.0000
  H   H851      1.0  0.06093  0.74344  0.46219  1.0000
  H   H852      1.0  0.98604  0.98149  0.40285  1.0000
  Fe  Fe114     1.0  0.67309  0.79058  0.43278  1.0000
  S   S227      1.0  0.69016  0.84474  0.43453  1.0000
  H   H853      1.0  0.75336  0.83775  0.55217  1.0000
  C   C537      1.0  0.86607  0.93041  0.56085  1.0000
  H   H854      1.0  0.00899  0.96770  0.35092  1.0000
  C   C538      1.0  0.05816  0.73749  0.40080  1.0000
  H   H855      1.0  0.67714  0.77097  0.33592  1.0000
  C   C539      1.0  0.79576  0.84303  0.46982  1.0000
  C   C540      1.0  0.78464  0.87068  0.45269  1.0000
  C   C541      1.0  0.75170  0.87199  0.44290  1.0000
  C   C542      1.0  0.72996  0.84561  0.45018  1.0000
  C   C543      1.0  0.74086  0.81866  0.46823  1.0000
  C   C544      1.0  0.77375  0.81721  0.47780  1.0000
  H   H856      1.0  0.80153  0.89065  0.44631  1.0000
  H   H857      1.0  0.74335  0.89296  0.42902  1.0000
  H   H858      1.0  0.72397  0.79874  0.47474  1.0000
  H   H859      1.0  0.78223  0.79572  0.49092  1.0000
  C   C545      1.0  0.01222  0.87919  0.44802  1.0000
  C   C546      1.0  0.04582  0.88562  0.44416  1.0000
  C   C547      1.0  0.86833  0.92205  0.31862  1.0000
  H   H860      1.0  0.01901  0.80165  0.43787  1.0000
  C   C548      1.0  0.02463  0.84540  0.49276  1.0000
  C   C549      1.0  0.00158  0.85914  0.47237  1.0000
  Fe  Fe115     1.0  0.61401  0.74404  0.42769  1.0000
  H   H861      1.0  0.62089  0.89807  0.43302  1.0000
  S   S228      1.0  0.64345  0.77221  0.39287  1.0000
  H   H862      1.0  0.97571  0.85350  0.47505  1.0000
  C   C550      1.0  0.99189  0.98673  0.34095  1.0000
  C   C551      1.0  0.94431  0.95805  0.36141  1.0000
  H   H863      1.0  0.62352  0.70175  0.35135  1.0000
  H   H864      1.0  0.93513  0.94994  0.33851  1.0000
  H   H865      1.0  0.04629  0.71581  0.41274  1.0000
  H   H866      1.0  0.86295  0.92095  0.53785  1.0000
  H   H867      1.0  0.85732  0.91474  0.36618  1.0000
  H   H868      1.0  0.74706  0.75087  0.37057  1.0000
  C   C552      1.0  0.00070  0.93934  0.52324  1.0000
  H   H869      1.0  0.04609  0.74039  0.37814  1.0000
  H   H870      1.0  0.74610  0.76462  0.33168  1.0000
  H   H871      1.0  0.85915  0.01814  0.33586  1.0000
  H   H872      1.0  0.60846  0.66401  0.36921  1.0000
  C   C553      1.0  0.97171  0.00163  0.39095  1.0000
  H   H873      1.0  0.06075  0.80140  0.37979  1.0000
  H   H874      1.0  0.98700  0.02510  0.39043  1.0000
  H   H875      1.0  0.80813  0.78879  0.39055  1.0000
  N   N53       1.0  0.05614  0.76908  0.41905  1.0000
  C   C554      1.0  0.76065  0.76599  0.35324  1.0000
  C   C555      1.0  0.85861  0.96780  0.35484  1.0000
  H   H876      1.0  0.61597  0.85355  0.42602  1.0000
  H   H877      1.0  0.05410  0.90141  0.42552  1.0000
  H   H878      1.0  0.78884  0.82814  0.40067  1.0000
  C   C556      1.0  0.07275  0.76401  0.44875  1.0000
  H   H879      1.0  0.98541  0.97825  0.31749  1.0000
  H   H880      1.0  0.00568  0.92013  0.50518  1.0000
  H   H881      1.0  0.73540  0.67454  0.55337  1.0000
  C   C557      1.0  0.75873  0.81314  0.56353  1.0000
  H   H882      1.0  0.94964  0.00729  0.40507  1.0000
  H   H883      1.0  0.80955  0.02333  0.55471  1.0000
  H   H884      1.0  0.81131  0.84915  0.54691  1.0000
  H   H885      1.0  0.01646  0.82934  0.51126  1.0000
  H   H886      1.0  0.00547  0.01119  0.33864  1.0000
  H   H887      1.0  0.02012  0.95919  0.52157  1.0000
  C   C558      1.0  0.94045  0.01673  0.34616  1.0000
  N   N54       1.0  0.00004  0.92378  0.55391  1.0000
  H   H888      1.0  0.91746  0.01999  0.35966  1.0000
  N   N55       1.0  0.76554  0.80146  0.36351  1.0000
  N   N56       1.0  0.96209  0.99077  0.35986  1.0000
  H   H889      1.0  0.00792  0.78197  0.40236  1.0000
  H   H890      1.0  0.73579  0.84422  0.37675  1.0000
  C   C559      1.0  0.05826  0.85191  0.48890  1.0000
  H   H891      1.0  0.76995  0.78876  0.41110  1.0000
  C   C560      1.0  0.86182  0.99130  0.33116  1.0000
  C   C561      1.0  0.03204  0.90732  0.56016  1.0000
  C   C562      1.0  0.73316  0.81778  0.36792  1.0000
  H   H892      1.0  0.71796  0.80368  0.38474  1.0000
  H   H893      1.0  0.96025  0.93743  0.37044  1.0000
  H   H894      1.0  0.07233  0.78748  0.46292  1.0000
  C   C563      1.0  0.61300  0.67613  0.34669  1.0000
  H   H895      1.0  0.80910  0.80896  0.33653  1.0000
  H   H896      1.0  0.05276  0.92579  0.55899  1.0000
  H   H897      1.0  0.81893  0.80549  0.53822  1.0000
  H   H898      1.0  0.07136  0.82123  0.41554  1.0000
  H   H899      1.0  0.71888  0.81883  0.34623  1.0000
  H   H900      1.0  0.78813  0.84732  0.34714  1.0000
  H   H901      1.0  0.97672  0.95150  0.51758  1.0000
  H   H902      1.0  0.03737  0.88689  0.54329  1.0000
  H   H903      1.0  0.58496  0.89389  0.47846  1.0000
  N   N57       1.0  0.58250  0.67839  0.32837  1.0000
  H   H904      1.0  0.77129  0.82033  0.31782  1.0000
  C   C564      1.0  0.68252  0.72066  0.31732  1.0000
  C   C565      1.0  0.77408  0.07431  0.69535  1.0000
  H   H905      1.0  0.82212  0.05368  0.78551  1.0000
  C   C566      1.0  0.72733  0.71381  0.58698  1.0000
  Fe  Fe116     1.0  0.75584  0.72861  0.73311  1.0000
  C   C567      1.0  0.64622  0.70993  0.64247  1.0000
  C   C568      1.0  0.71063  0.74383  0.59384  1.0000
  Fe  Fe117     1.0  0.78326  0.67771  0.68779  1.0000
  S   S229      1.0  0.73550  0.67238  0.66245  1.0000
  S   S230      1.0  0.82963  0.64845  0.67916  1.0000
  C   C569      1.0  0.63682  0.65019  0.65086  1.0000
  Fe  Fe118     1.0  0.71223  0.67241  0.70878  1.0000
  S   S231      1.0  0.67382  0.63457  0.72289  1.0000
  C   C570      1.0  0.79024  0.99794  0.62662  1.0000
  H   H906      1.0  0.74393  0.70274  0.60344  1.0000
  S   S232      1.0  0.76014  0.67211  0.73377  1.0000
  H   H907      1.0  0.77514  0.00791  0.64578  1.0000
  H   H908      1.0  0.81559  0.99397  0.63561  1.0000
  C   C571      1.0  0.65537  0.64626  0.75770  1.0000
  C   C572      1.0  0.64201  0.62138  0.77680  1.0000
  C   C573      1.0  0.65484  0.68024  0.76702  1.0000
  H   H909      1.0  0.67902  0.66618  0.60623  1.0000
  H   H910      1.0  0.66427  0.69975  0.75235  1.0000
  H   H911      1.0  0.81402  0.84032  0.61678  1.0000
  C   C574      1.0  0.82717  0.61366  0.65406  1.0000
  H   H912      1.0  0.63269  0.71681  0.66367  1.0000
  H   H913      1.0  0.66307  0.64582  0.65708  1.0000
  H   H914      1.0  0.78168  0.62862  0.63271  1.0000
  H   H915      1.0  0.01355  0.97010  0.57698  1.0000
  H   H916      1.0  0.82306  0.77900  0.60259  1.0000
  Fe  Fe119     1.0  0.73381  0.72920  0.66683  1.0000
  S   S233      1.0  0.70610  0.72877  0.71101  1.0000
  H   H917      1.0  0.74413  0.68236  0.80334  1.0000
  N   N58       1.0  0.63347  0.67820  0.62870  1.0000
  S   S234      1.0  0.78345  0.73474  0.68913  1.0000
  H   H918      1.0  0.86333  0.80920  0.77685  1.0000
  H   H919      1.0  0.82820  0.89834  0.57911  1.0000
  H   H920      1.0  0.83531  0.84219  0.76578  1.0000
  C   C575      1.0  0.69014  0.75860  0.57185  1.0000
  H   H921      1.0  0.82291  0.81092  0.79304  1.0000
  H   H922      1.0  0.74035  0.03797  0.60820  1.0000
  H   H923      1.0  0.90733  0.03722  0.81396  1.0000
  C   C576      1.0  0.78981  0.83819  0.60491  1.0000
  H   H924      1.0  0.65102  0.69091  0.58380  1.0000
  H   H925      1.0  0.83597  0.00352  0.58213  1.0000
  H   H926      1.0  0.62354  0.65576  0.67254  1.0000
  H   H927      1.0  0.90530  0.85127  0.79156  1.0000
  H   H928      1.0  0.79038  0.06585  0.62885  1.0000
  Fe  Fe120     1.0  0.81133  0.00480  0.72300  1.0000
  S   S235      1.0  0.85726  0.98302  0.70277  1.0000
  S   S236      1.0  0.80498  0.06129  0.72056  1.0000
  Fe  Fe121     1.0  0.78988  0.93723  0.74916  1.0000
  S   S237      1.0  0.83398  0.90958  0.73133  1.0000
  S   S238      1.0  0.75363  0.91289  0.78060  1.0000
  Fe  Fe122     1.0  0.86201  0.95544  0.74721  1.0000
  S   S239      1.0  0.91025  0.95390  0.77237  1.0000
  Fe  Fe123     1.0  0.82488  0.93951  0.68857  1.0000
  S   S240      1.0  0.82358  0.91381  0.64249  1.0000
  S   S241      1.0  0.81866  0.98074  0.76855  1.0000
  S   S242      1.0  0.77811  0.96361  0.70525  1.0000
  N   N59       1.0  0.85649  0.84856  0.81052  1.0000
  C   C577      1.0  0.80049  0.60942  0.63410  1.0000
  H   H929      1.0  0.59509  0.70363  0.60389  1.0000
  C   C578      1.0  0.87376  0.95431  0.62067  1.0000
  H   H930      1.0  0.85575  0.94386  0.81358  1.0000
  H   H931      1.0  0.87707  0.96338  0.64372  1.0000
  C   C579      1.0  0.90636  0.95994  0.81194  1.0000
  S   S243      1.0  0.71517  0.76352  0.62961  1.0000
  C   C580      1.0  0.88675  0.04610  0.79918  1.0000
  H   H932      1.0  0.84393  0.09237  0.77848  1.0000
  H   H933      1.0  0.97007  0.96347  0.57295  1.0000
  H   H934      1.0  0.77129  0.83042  0.62231  1.0000
  C   C581      1.0  0.75378  0.86848  0.77837  1.0000
  C   C582      1.0  0.74514  0.84977  0.80420  1.0000
  C   C583      1.0  0.74789  0.81436  0.80398  1.0000
  C   C584      1.0  0.75794  0.79743  0.77750  1.0000
  C   C585      1.0  0.76542  0.81598  0.75120  1.0000
  C   C586      1.0  0.76387  0.85162  0.75179  1.0000
  H   H935      1.0  0.87864  0.88537  0.78072  1.0000
  C   C587      1.0  0.65249  0.67008  0.60088  1.0000
  H   H936      1.0  0.77329  0.80294  0.73070  1.0000
  H   H937      1.0  0.77020  0.86602  0.73165  1.0000
  C   C588      1.0  0.62944  0.63035  0.80559  1.0000
  C   C589      1.0  0.74758  0.05297  0.68827  1.0000
  H   H938      1.0  0.74414  0.00241  0.58269  1.0000
  H   H939      1.0  0.74519  0.02869  0.69943  1.0000
  C   C590      1.0  0.89328  0.96757  0.59711  1.0000
  C   C591      1.0  0.88529  0.86817  0.79984  1.0000
  H   H940      1.0  0.67262  0.70749  0.64873  1.0000
  H   H941      1.0  0.64197  0.71558  0.80266  1.0000
  H   H942      1.0  0.80465  0.07284  0.59072  1.0000
  H   H943      1.0  0.83038  0.05127  0.61798  1.0000
  H   H944      1.0  0.64335  0.64651  0.58958  1.0000
  C   C592      1.0  0.84646  0.91743  0.58430  1.0000
  H   H945      1.0  0.79877  0.76018  0.57250  1.0000
  H   H946      1.0  0.62697  0.62589  0.64155  1.0000
  C   C593      1.0  0.85003  0.92949  0.61420  1.0000
  H   H947      1.0  0.91123  0.98717  0.60208  1.0000
  C   C594      1.0  0.72389  0.06321  0.66689  1.0000
  H   H948      1.0  0.67724  0.78193  0.57702  1.0000
  H   H949      1.0  0.78024  0.97252  0.62031  1.0000
  C   C595      1.0  0.59840  0.68265  0.62061  1.0000
  H   H950      1.0  0.70337  0.04666  0.66145  1.0000
  C   C596      1.0  0.75588  0.02672  0.58986  1.0000
  H   H951      1.0  0.58794  0.65918  0.61012  1.0000
  C   C597      1.0  0.84404  0.82679  0.78545  1.0000
  C   C598      1.0  0.64199  0.68922  0.79559  1.0000
  H   H952      1.0  0.78005  0.77124  0.60813  1.0000
  H   H953      1.0  0.89735  0.06273  0.78124  1.0000
  H   H954      1.0  0.99279  0.93947  0.60052  1.0000
  C   C599      1.0  0.80980  0.00677  0.57524  1.0000
  H   H955      1.0  0.74340  0.63804  0.81330  1.0000
  H   H956      1.0  0.87640  0.02337  0.78742  1.0000
  C   C600      1.0  0.80456  0.05429  0.60982  1.0000
  H   H957      1.0  0.97246  0.88551  0.57779  1.0000
  N   N60       1.0  0.79011  0.02142  0.60037  1.0000
  H   H958      1.0  0.70572  0.66009  0.80592  1.0000
  H   H959      1.0  0.82196  0.88864  0.80119  1.0000
  H   H960      1.0  0.75480  0.04446  0.57015  1.0000
  S   S244      1.0  0.76378  0.75344  0.77872  1.0000
  C   C601      1.0  0.79861  0.77956  0.59109  1.0000
  H   H961      1.0  0.64433  0.73169  0.62640  1.0000
  H   H962      1.0  0.59314  0.03914  0.80653  1.0000
  H   H963      1.0  0.81538  0.08969  0.80971  1.0000
  C   C602      1.0  0.72672  0.09476  0.65251  1.0000
  N   N61       1.0  0.79100  0.81376  0.57921  1.0000
  C   C603      1.0  0.99392  0.95036  0.57713  1.0000
  H   H964      1.0  0.73845  0.80829  0.57994  1.0000
  H   H965      1.0  0.03253  0.89545  0.58317  1.0000
  C   C604      1.0  0.88913  0.95586  0.56712  1.0000
  C   C605      1.0  0.83461  0.07548  0.79686  1.0000
  H   H966      1.0  0.80454  0.60359  0.75507  1.0000
  H   H967      1.0  0.78295  0.86406  0.59708  1.0000
  H   H968      1.0  0.84136  0.82599  0.56852  1.0000
  H   H969      1.0  0.80041  0.98131  0.56827  1.0000
  C   C606      1.0  0.62995  0.66425  0.81528  1.0000
  C   C607      1.0  0.73050  0.66266  0.81648  1.0000
  H   H970      1.0  0.58336  0.68882  0.64111  1.0000
  N   N62       1.0  0.86141  0.06398  0.81724  1.0000
  H   H971      1.0  0.62859  0.07079  0.87969  1.0000
  C   C608      1.0  0.83220  0.08994  0.90956  1.0000
  H   H972      1.0  0.96620  0.60664  0.03386  1.0000
  H   H973      1.0  0.75029  0.64871  0.95405  1.0000
  S   S245      1.0  0.98908  0.08506  0.96720  1.0000
  C   C609      1.0  0.87653  0.95313  0.82656  1.0000
  C   C610      1.0  0.70858  0.64595  0.86539  1.0000
  C   C611      1.0  0.01503  0.62406  0.86794  1.0000
  C   C612      1.0  0.71574  0.60798  0.94588  1.0000
  H   H974      1.0  0.01566  0.64521  0.85226  1.0000
  C   C613      1.0  0.59167  0.74066  0.06037  1.0000
  Fe  Fe124     1.0  0.60356  0.63443  0.88482  1.0000
  S   S246      1.0  0.61802  0.67616  0.85243  1.0000
  H   H975      1.0  0.61247  0.75522  0.05035  1.0000
  H   H976      1.0  0.61096  0.62459  0.00191  1.0000
  S   S247      1.0  0.62279  0.63553  0.93303  1.0000
  C   C614      1.0  0.83026  0.87215  0.82032  1.0000
  H   H977      1.0  0.89578  0.88435  0.81837  1.0000
  C   C615      1.0  0.93324  0.97186  0.82900  1.0000
  H   H978      1.0  0.05620  0.75037  0.06210  1.0000
  N   N63       1.0  0.72809  0.67192  0.84912  1.0000
  C   C616      1.0  0.04268  0.61672  0.88602  1.0000
  H   H979      1.0  0.06954  0.99797  0.02196  1.0000
  H   H980      1.0  0.72529  0.72533  0.83917  1.0000
  S   S248      1.0  0.07938  0.72799  0.00353  1.0000
  C   C617      1.0  0.07395  0.06467  0.90887  1.0000
  H   H981      1.0  0.06401  0.05777  0.00584  1.0000
  H   H982      1.0  0.70580  0.65240  0.89000  1.0000
  H   H983      1.0  0.06469  0.63197  0.88400  1.0000
  H   H984      1.0  0.05579  0.06856  0.04479  1.0000
  H   H985      1.0  0.71020  0.71347  0.87636  1.0000
  H   H986      1.0  0.95639  0.97716  0.81777  1.0000
  H   H987      1.0  0.61942  0.61100  0.82017  1.0000
  C   C618      1.0  0.62515  0.05555  0.85843  1.0000
  H   H988      1.0  0.68331  0.64357  0.85569  1.0000
  H   H989      1.0  0.64295  0.03413  0.85900  1.0000
  C   C619      1.0  0.98650  0.60429  0.87042  1.0000
  C   C620      1.0  0.84780  0.04069  0.84040  1.0000
  S   S249      1.0  0.03563  0.06345  0.89057  1.0000
  H   H990      1.0  0.72026  0.62049  0.86394  1.0000
  Fe  Fe125     1.0  0.93223  0.01449  0.93383  1.0000
  S   S250      1.0  0.94226  0.06268  0.90869  1.0000
  S   S251      1.0  0.89592  0.97692  0.91457  1.0000
  Fe  Fe126     1.0  0.97551  0.03481  0.98761  1.0000
  C   C621      1.0  0.58714  0.02349  0.82689  1.0000
  S   S252      1.0  0.99860  0.01802  0.03189  1.0000
  C   C622      1.0  0.07804  0.08193  0.93663  1.0000
  H   H991      1.0  0.93805  0.92806  0.04865  1.0000
  Fe  Fe127     1.0  0.99443  0.05551  0.92375  1.0000
  H   H992      1.0  0.77682  0.69334  0.85077  1.0000
  S   S253      1.0  0.92134  0.04000  0.97859  1.0000
  S   S254      1.0  0.98529  0.00465  0.94496  1.0000
  C   C623      1.0  0.87645  0.09369  0.83259  1.0000
  H   H993      1.0  0.60358  0.00092  0.82672  1.0000
  Fe  Fe128     1.0  0.93574  0.08766  0.95423  1.0000
  H   H994      1.0  0.86686  0.03296  0.85733  1.0000
  H   H995      1.0  0.94079  0.06032  0.04053  1.0000
  S   S255      1.0  0.80835  0.63091  0.92025  1.0000
  C   C624      1.0  0.61619  0.63607  0.04990  1.0000
  C   C625      1.0  0.87373  0.95768  0.85822  1.0000
  H   H996      1.0  0.87104  0.07471  0.93996  1.0000
  H   H997      1.0  0.97820  0.91339  0.05989  1.0000
  H   H998      1.0  0.85068  0.95216  0.86953  1.0000
  H   H999      1.0  0.99997  0.62426  0.01255  1.0000
  H   H1000     1.0  0.83772  0.01719  0.82974  1.0000
  H   H1001     1.0  0.83873  0.88905  0.83919  1.0000
  C   C626      1.0  0.90040  0.97024  0.87519  1.0000
  H   H1002     1.0  0.82225  0.06453  0.90746  1.0000
  C   C627      1.0  0.71182  0.70530  0.85207  1.0000
  H   H1003     1.0  0.64206  0.62955  0.05054  1.0000
  H   H1004     1.0  0.06339  0.00925  0.06116  1.0000
  C   C628      1.0  0.76937  0.61218  0.92196  1.0000
  C   C629      1.0  0.93010  0.97761  0.86052  1.0000
  C   C630      1.0  0.76151  0.67386  0.86245  1.0000
  C   C631      1.0  0.94844  0.05042  0.06239  1.0000
  H   H1005     1.0  0.95081  0.98724  0.87355  1.0000
  H   H1006     1.0  0.59881  0.99920  0.88329  1.0000
  C   C632      1.0  0.74541  0.62555  0.94146  1.0000
  H   H1007     1.0  0.73723  0.86276  0.82471  1.0000
  H   H1008     1.0  0.08026  0.77299  0.92023  1.0000
  H   H1009     1.0  0.89580  0.08589  0.84921  1.0000
  H   H1010     1.0  0.82731  0.05274  0.85321  1.0000
  H   H1011     1.0  0.69764  0.61765  0.96177  1.0000
  H   H1012     1.0  0.76072  0.68046  0.88718  1.0000
  H   H1013     1.0  0.05729  0.09423  0.94730  1.0000
  H   H1014     1.0  0.88603  0.80888  0.82998  1.0000
  H   H1015     1.0  0.77462  0.64914  0.86053  1.0000
  H   H1016     1.0  0.68622  0.70447  0.84301  1.0000
  C   C633      1.0  0.59862  0.63328  0.02234  1.0000
  H   H1017     1.0  0.58696  0.71837  0.04523  1.0000
  C   C634      1.0  0.85981  0.09571  0.92804  1.0000
  H   H1018     1.0  0.63204  0.07241  0.83907  1.0000
  C   C635      1.0  0.99169  0.60169  0.02570  1.0000
  S   S256      1.0  0.95213  0.61296  0.84749  1.0000
  N   N64       1.0  0.59084  0.04330  0.85543  1.0000
  C   C636      1.0  0.07593  0.06514  0.02785  1.0000
  H   H1019     1.0  0.96662  0.95669  0.06625  1.0000
  H   H1020     1.0  0.87575  0.84269  0.85595  1.0000
  C   C637      1.0  0.97643  0.02994  0.06451  1.0000
  H   H1021     1.0  0.58444  0.03600  0.90369  1.0000
  H   H1022     1.0  0.84509  0.81189  0.84515  1.0000
  C   C638      1.0  0.86630  0.82705  0.83657  1.0000
  H   H1023     1.0  0.80819  0.85819  0.82857  1.0000
  H   H1024     1.0  0.74208  0.80007  0.82431  1.0000
  C   C639      1.0  0.95738  0.93010  0.06664  1.0000
  C   C640      1.0  0.58237  0.02168  0.88179  1.0000
