data_image0
_chemical_formula_structural       FeCS2HSCS2FeSFeS2FeSFeS3CH3CNSFeS3CHC2H4C3HC6H4C6H4C6H5CH3C2HNC2H2SCH5FeHSNHFeCHSHC2FeSCH4CH2SCH3CHFeCH7NC4H4CH7SCH3NHCH4C2H8CSCH3FeCSCH4C2HNH3SCH2CH2FeHFeH2C2HCH5CFeC2SNCHCFeHSCH3S2FeSFeS2FeSFeS3HFeHC2HSFeSCSCH2C2HFeCFeH2C7H4C6H4C6H13CHSH2S2FeH2SHCNFeH2CHC2HFeCFeH4CH3SNC4H12CNC4H5S2HSC3SHCHCHSCH2SC2HCNFeCHCH5NSH3CH3CH2CH2CHCH2CH2CFeS2FeSHFeSFeS3H2SHC2H2SFeSHSC2H2C2H4C6H4C6H6S2H2NCH2NH4CH2SNC4H11NH2CHSC2FeH4FeSCH3C2H3SCSCSH2CH3CFeSH10CSHC2H2CFeNCHC5HFeSHNSCSC2NH6CHCHFeH3C3FeHC2HCHCH4CH2CFeCHFeCH2CH2NCFeS2FeS2FeSFeS3H2SHCHCS2FeSHSC2HC3NSH2C6H4C6H4CH2C2H2CHFeCHCFeH3CH10CH5CNC2H8CHNC2H2CH5CHCHCSH2CHSH2CHCHSC2H6FeCSH3CNFeCHFeH2SC2HCHCHSCSCSC2NHFeHCHCH2CSH4CH2NHNCH2SHFeHFeH2CH2CHSH2SCHSHSFeSHCHC2SNHC2SFeCFeCSFeC2HSC2S2CHSHC2H2C2HNSC2SH3SH4Fe2SH4C3H5CHCHFeC3H4FeC3H4SC3HCH3C2HCHCH2NH2CNFeCNC4HSH2C2HCH2FeH4CH3CHFeH4C2HSH2SCHSHFe2SH3CFeH2C3SCHFeHSFeSFeCH3S2HCHNFeNHC2HSC5SH4CHCFeSH2CHSHCH3CH2SHCNFeC3FeH3C2S2CHCSH2C2SCH4C3HC2FeHCHCH3CH8NHCH2C2HNC2FeSFeS2Fe2S2FeCSFeHSHCHCS2H9SC2H2CH4S2HCHCNCH4NC2H4C6H4C2H4SHSC2H4CH2SC2HNC4H3SH3C3HFeNC5H2CH8C3SCHCH2CHSHSHCH4CH2FeH3C2H5CFeHSFeSFeS2FeCS2CHSFeHSH3FeS2H3FeH2CS2HNCHSC2H3CHSH6C2H3SHCHSC6H4C2H4C4S2HCHCSH2CHFeHCHCHSH2CH2C3H5SHCHC2FeHSH2NC4HFeH3CH5NH2C2HSC2HN2C2HCH8C4H4CSH4CH5C2FeH2C2HNCHFeC2HFeS2FeSCFeSFeS3FeHFeNSHC2HS2H3FeS2FeSHS2H3CSH2CH2SH4CS2H3CNCH3CH3C6H4C6H4C6H5CH2SC2H4CHC2HCHCSCNC4H14C3HSHNH2CHC3NC2H6CH2CHSH7CH4CHFeHC2HCHC3FeHNHCH5C4H4S2H2FeS2FeSHFeSFeS3FeHFeCSHNCHS2H3FeS2FeS4H2NH4SHSH5CHCH2CH2CNC2H3C7H4C6H4C6H5CHCSHCH6CHC3HCH3C2HCH2NH2C2HCNC4H12NCSH3FeC2HCHC3HCH3CSCHCHC2H6C2SCH2FeS2HCHFeNH7CSH2SHCFeCHCFeCS2FeHS2HSCH4CH2SFeCH2CSCHSH3SH3CHSHC3H3CHC3HSCNHSH6FeNCH2C2H3CH4C3HCHSC3H3CH6CSHC5HSH2FeHSHS2C3H5CH4CHC2FeH2CFeSH3C2HC3HSH2SC2SH2CHCHSHCHCNH3SH3NFeH4C2HC2HSHC2H2FeH3SH2C2HSHCH4C2SHSCSHSFe2HFeS2H3NS3CHCH2FeSFeSCSFeSFeS2FeHS2C2HCH2SHCH2SHC6H4C6H4C6H4NH3C2H4C5H3NH2SHC2NC4H12FeH5CH2NC2HCH7CHC2H2CHSCH5FeNCH2C2H3FeH2C2H2SH4SHCH2CSCFeHFeHCH2SH3SCHSH4FeSCFeHSH2C2S2H2FeHSHFeSFeS3FeSFeS2FeHS2H2FeC2HSHCH2SHC6H4C6H4C6H6NCHSCHSH2CH2CH9C2HCH3SHCHCHC2HNCHFeCHFeHFeC2HFeH6C2NC3H3SH7CH2C4FeCSFeHSFeCSNH2S3FeS2FeSHFe2S3H2SHNHCHC2H2CH3CHSNC2HNHCHCHCH7CH2C6H4C4H2C4H3SH7SCNC4HCH10FeS2H4CHSHCH2CHC2SH2CH3C2FeH4C2HSC3HSC4HFeH5SH2C2HCFeH2C2H2NCNH2SH2FeC2FeHCH2SFeS2FeHSH3CS2FeS2FeSHFe2S3HCSHCHCHCH4CHCH2SCH2NHFeCHFeC3H2C2HCNCHC6H4C4H3C3H2NH2CHCHSCSH9NCHSHSNH2NH2NHCH2C2HCH2CSHC2H2CH4C2H2SHCHSH3CHCHSH2CH2CFeNC2H5C2HCHCH3FeH5C2HCSHSHFeCH3FeSFeS2FeHFeSHCH2C2FeH2FeCHSHSHCFeC3H3CHCHSCH2SH2FeSHNHSC3SH6CH2CHCH2SCSC2SH2SC2H2CHC5FeCH3CNCH5CHC3FeHFeCSCFeHC2SH4CH4CH3C2N2HC2SHC2H2CHCHCHCNCHS2H2S2FeS2FeHFeSC2SHFeH6CSCHCFeNHC2H2NHSCHCH2SH2CNFeH2CFeHCH2C2HC2H2S2C2HCSC2H2SCH5FeCHCH2NHS2HSHC2H2C5S2C3H3C2HCHFeHNCHCSH4CHFeH3CHCHC2H2SH3CH3CHC4Fe2SC2H6CH2C2HCH2CHCH3NFeS2FeS2CHCHNHFeSFeS2FeSFeS3CH2CHC3HFeHCFeH3SHCS3C6H4C6H4C5H7CSH3CH3FeHCNC4H11CHSH7NC5H2CHNCHCFeH2NC4H8CH2S3CFeHCH4C2H3CFeC2NHCHSH3CSH3SC2H2FeS2FeS2HCHC2HFeSFeS2FeSFeS3FeHNH2C2H13C8H4C6H4C5H6SC2H2CNHCH2CH2C2NCH2FeHSHSH2CFeNC4H18NSH4CHSHC4HCSHSCNCH3SC4NC3H4SH6CHSCH6CH2CHSHCSH3SCH2CH2C2H6S2CFeS2FeS2H7SCFeSHFeS2FeS2Fe2S3HC6H5SCHFeC6H4C6H5SHCH2CH3CHC2HSCH3NC4H9CH3CHNHCNHSHCHC2NCH2CH2C3H3C2FeH2CHCHCHNC4H9SCHCH2C2HCFeHFeNHSNH3CHCHC2HC2H3SH2C2H4C2H5CH2SH9C2FeS2FeS2H3CSHCHFe2SCFeS2FeS2Fe2S3HC6H4CSHCHC6H4C6H4SH2SC3H3CSC2H4NH3NC4HCH5CH4NCH2CHC2SHCH2FeH2CNC4H8CSCHCHCNHSCH3CFeSH3FeH3C3SNH3FeCH7C2H3CSH6SCHCH2CHCH2FeCSFeHCH3S2CFeHS2HCSHFeSFeS3H2C2HNHCH5C2HCH2CHFeH6SHCSC2SC4H3C2H4C2HCHCHSH3CH4CHC2H3CSHCFeH2S5CFeSFeSFeH2CH2CNCH2CH5C3H5S2H3CH4C4HC2HCHSHCSHCH6CH4CH3NC
_chemical_formula_sum              "Fe256 C1280 S512 H2048 N128"
_cell_length_a       60.5631
_cell_length_b       61.0941
_cell_length_c       49.4856
_cell_angle_alpha    90.7896
_cell_angle_beta     90.9559
_cell_angle_gamma    84.9552

_space_group_name_H-M_alt    "P 1"
_space_group_IT_number       1

loop_
  _space_group_symop_operation_xyz
  'x, y, z'

loop_
  _atom_site_type_symbol
  _atom_site_label
  _atom_site_symmetry_multiplicity
  _atom_site_fract_x
  _atom_site_fract_y
  _atom_site_fract_z
  _atom_site_occupancy
  Fe  Fe1       1.0  0.20519  0.22586  0.32272  1.0000
  C   C1        1.0  0.26204  0.30334  0.15428  1.0000
  S   S1        1.0  0.17642  0.20436  0.32139  1.0000
  S   S2        1.0  0.25887  0.25594  0.32814  1.0000
  H   H1        1.0  0.08866  0.09607  0.07262  1.0000
  S   S3        1.0  0.21494  0.30804  0.32747  1.0000
  C   C2        1.0  0.07465  0.12403  0.03305  1.0000
  S   S4        1.0  0.21360  0.25005  0.29146  1.0000
  S   S5        1.0  0.21173  0.24849  0.35788  1.0000
  Fe  Fe2       1.0  0.08124  0.11651  0.20744  1.0000
  S   S6        1.0  0.09735  0.08219  0.20549  1.0000
  Fe  Fe3       1.0  0.12593  0.13637  0.20801  1.0000
  S   S7        1.0  0.14532  0.10339  0.20565  1.0000
  S   S8        1.0  0.14436  0.16702  0.20849  1.0000
  Fe  Fe4       1.0  0.11959  0.09528  0.17477  1.0000
  S   S9        1.0  0.12800  0.07339  0.13863  1.0000
  Fe  Fe5       1.0  0.12133  0.09369  0.23635  1.0000
  S   S10       1.0  0.13148  0.07138  0.27110  1.0000
  S   S11       1.0  0.10185  0.12912  0.17449  1.0000
  S   S12       1.0  0.10354  0.12726  0.24086  1.0000
  C   C3        1.0  0.02606  0.10378  0.21199  1.0000
  H   H2        1.0  0.18786  0.18673  0.16716  1.0000
  H   H3        1.0  0.01692  0.05480  0.98742  1.0000
  H   H4        1.0  0.06336  0.05831  0.24377  1.0000
  C   C4        1.0  0.23451  0.22118  0.43105  1.0000
  N   N1        1.0  0.18367  0.02258  0.26336  1.0000
  S   S13       1.0  0.13743  0.10950  0.02013  1.0000
  Fe  Fe6       1.0  0.12158  0.09361  0.42067  1.0000
  S   S14       1.0  0.12632  0.11697  0.38657  1.0000
  S   S15       1.0  0.12248  0.05259  0.98692  1.0000
  S   S16       1.0  0.11030  0.05982  0.41435  1.0000
  C   C5        1.0  0.23325  0.31954  0.08047  1.0000
  H   H5        1.0  0.22519  0.01467  0.00628  1.0000
  C   C6        1.0  0.25248  0.19825  0.97991  1.0000
  C   C7        1.0  0.23469  0.22212  0.22511  1.0000
  H   H6        1.0  0.12075  0.20924  0.21967  1.0000
  H   H7        1.0  0.18860  0.02390  0.30650  1.0000
  H   H8        1.0  0.24579  0.25198  0.14487  1.0000
  H   H9        1.0  0.21555  0.31822  0.07995  1.0000
  C   C8        1.0  0.15862  0.01731  0.38472  1.0000
  C   C9        1.0  0.23562  0.32681  0.32689  1.0000
  C   C10       1.0  0.03333  0.08198  0.20567  1.0000
  H   H10       1.0  0.15805  0.15196  0.11915  1.0000
  C   C11       1.0  0.13176  0.08430  0.30306  1.0000
  C   C12       1.0  0.13411  0.07141  0.32628  1.0000
  C   C13       1.0  0.13288  0.08136  0.35201  1.0000
  C   C14       1.0  0.12918  0.10420  0.35462  1.0000
  C   C15       1.0  0.12766  0.11713  0.33140  1.0000
  C   C16       1.0  0.12900  0.10719  0.30567  1.0000
  H   H11       1.0  0.13660  0.05369  0.32448  1.0000
  H   H12       1.0  0.13495  0.07131  0.36978  1.0000
  H   H13       1.0  0.12518  0.13484  0.33330  1.0000
  H   H14       1.0  0.12802  0.11730  0.28797  1.0000
  C   C17       1.0  0.13080  0.08394  0.10602  1.0000
  C   C18       1.0  0.13072  0.10650  0.10149  1.0000
  C   C19       1.0  0.13314  0.11417  0.07508  1.0000
  C   C20       1.0  0.13537  0.09936  0.05311  1.0000
  C   C21       1.0  0.13541  0.07684  0.05773  1.0000
  C   C22       1.0  0.13322  0.06918  0.08408  1.0000
  H   H15       1.0  0.12886  0.11798  0.11830  1.0000
  H   H16       1.0  0.13309  0.13162  0.07160  1.0000
  H   H17       1.0  0.13738  0.06528  0.04105  1.0000
  H   H18       1.0  0.13337  0.05171  0.08751  1.0000
  C   C23       1.0  0.16962  0.19269  0.28981  1.0000
  C   C24       1.0  0.17562  0.20191  0.26557  1.0000
  C   C25       1.0  0.16833  0.19350  0.24067  1.0000
  C   C26       1.0  0.15536  0.17557  0.23982  1.0000
  C   C27       1.0  0.15006  0.16581  0.26403  1.0000
  C   C28       1.0  0.15690  0.17454  0.28894  1.0000
  H   H19       1.0  0.18540  0.21589  0.26599  1.0000
  H   H20       1.0  0.17258  0.20113  0.22207  1.0000
  H   H21       1.0  0.14027  0.15187  0.26366  1.0000
  H   H22       1.0  0.15218  0.16729  0.30757  1.0000
  H   H23       1.0  0.19783  0.04601  0.23828  1.0000
  C   C29       1.0  0.22517  0.21918  0.19935  1.0000
  H   H24       1.0  0.22420  0.22674  0.24202  1.0000
  H   H25       1.0  0.20738  0.22184  0.19656  1.0000
  H   H26       1.0  0.08883  0.06428  0.31186  1.0000
  C   C30       1.0  0.25773  0.21929  0.22874  1.0000
  C   C31       1.0  0.10392  0.21793  0.22194  1.0000
  H   H27       1.0  0.23122  0.27781  0.13612  1.0000
  N   N2        1.0  0.18812  0.15873  0.14024  1.0000
  C   C32       1.0  0.19772  0.13563  0.13941  1.0000
  C   C33       1.0  0.16368  0.15932  0.13851  1.0000
  H   H28       1.0  0.18972  0.18828  0.11745  1.0000
  H   H29       1.0  0.19189  0.12617  0.15659  1.0000
  S   S17       1.0  0.24358  0.23538  0.07531  1.0000
  C   C34       1.0  0.01900  0.07060  0.97862  1.0000
  H   H30       1.0  0.02424  0.04870  0.20129  1.0000
  H   H31       1.0  0.15586  0.17647  0.13994  1.0000
  H   H32       1.0  0.15701  0.14998  0.15526  1.0000
  H   H33       1.0  0.03280  0.11660  0.04679  1.0000
  H   H34       1.0  0.07209  0.12819  0.01129  1.0000
  Fe  Fe7       1.0  0.22382  0.27104  0.32658  1.0000
  H   H35       1.0  0.02968  0.08431  0.29958  1.0000
  S   S18       1.0  0.22671  0.21150  0.14468  1.0000
  N   N3        1.0  0.06610  0.10275  0.03918  1.0000
  H   H36       1.0  0.06542  0.04909  0.31806  1.0000
  Fe  Fe8       1.0  0.24798  0.23337  0.29533  1.0000
  C   C35       1.0  0.09071  0.18750  0.24572  1.0000
  H   H37       1.0  0.18665  0.19067  0.41017  1.0000
  S   S19       1.0  0.24104  0.19574  0.01224  1.0000
  H   H38       1.0  0.21475  0.17046  0.11780  1.0000
  C   C36       1.0  0.04196  0.10414  0.03360  1.0000
  C   C37       1.0  0.03679  0.07200  0.28461  1.0000
  Fe  Fe9       1.0  0.24634  0.23213  0.35726  1.0000
  S   S20       1.0  0.05437  0.05783  0.45363  1.0000
  C   C38       1.0  0.07130  0.22360  0.24946  1.0000
  H   H39       1.0  0.10951  0.23420  0.27234  1.0000
  H   H40       1.0  0.06180  0.09767  0.25642  1.0000
  H   H41       1.0  0.03809  0.10894  0.01232  1.0000
  H   H42       1.0  0.20908  0.21948  0.46087  1.0000
  C   C39       1.0  0.07056  0.09743  0.06792  1.0000
  H   H43       1.0  0.19109  0.18972  0.37440  1.0000
  H   H44       1.0  0.07133  0.06897  0.02579  1.0000
  S   S21       1.0  0.23912  0.20788  0.32446  1.0000
  C   C40       1.0  0.07729  0.08537  0.02198  1.0000
  H   H45       1.0  0.07261  0.24166  0.25039  1.0000
  H   H46       1.0  0.06460  0.07778  0.32709  1.0000
  H   H47       1.0  0.09278  0.12367  0.03733  1.0000
  C   C41       1.0  0.06807  0.09287  0.27695  1.0000
  H   H48       1.0  0.06163  0.10597  0.29135  1.0000
  Fe  Fe10      1.0  0.08926  0.06795  0.45073  1.0000
  C   C42       1.0  0.23865  0.21332  0.17721  1.0000
  H   H49       1.0  0.19152  0.16338  0.09745  1.0000
  H   H50       1.0  0.08293  0.18184  0.26429  1.0000
  H   H51       1.0  0.02944  0.07668  0.26449  1.0000
  H   H52       1.0  0.06259  0.11029  0.08158  1.0000
  H   H53       1.0  0.06025  0.22017  0.23196  1.0000
  H   H54       1.0  0.04989  0.10396  0.43846  1.0000
  H   H55       1.0  0.08643  0.09286  0.27693  1.0000
  N   N4        1.0  0.17401  0.16305  0.38946  1.0000
  C   C43       1.0  0.17382  0.14979  0.41423  1.0000
  C   C44       1.0  0.19054  0.17938  0.39271  1.0000
  C   C45       1.0  0.15179  0.17453  0.38475  1.0000
  C   C46       1.0  0.17983  0.14848  0.36607  1.0000
  H   H56       1.0  0.16158  0.13724  0.41245  1.0000
  H   H57       1.0  0.16926  0.16022  0.43226  1.0000
  H   H58       1.0  0.19031  0.14087  0.41842  1.0000
  H   H59       1.0  0.19100  0.02508  0.03216  1.0000
  C   C47       1.0  0.18757  0.03491  0.28868  1.0000
  H   H60       1.0  0.20754  0.17131  0.39614  1.0000
  H   H61       1.0  0.15138  0.18466  0.36615  1.0000
  H   H62       1.0  0.14676  0.18565  0.40198  1.0000
  H   H63       1.0  0.13895  0.16262  0.38220  1.0000
  H   H64       1.0  0.16755  0.13607  0.36299  1.0000
  H   H65       1.0  0.19642  0.13939  0.36890  1.0000
  H   H66       1.0  0.18021  0.15803  0.34707  1.0000
  S   S22       1.0  0.15003  0.08300  0.44841  1.0000
  C   C48       1.0  0.06993  0.05445  0.26446  1.0000
  H   H67       1.0  0.24150  0.28450  0.07767  1.0000
  H   H68       1.0  0.08023  0.18309  0.22809  1.0000
  H   H69       1.0  0.14838  0.02462  0.26859  1.0000
  N   N5        1.0  0.06126  0.07114  0.28441  1.0000
  H   H70       1.0  0.24651  0.26184  0.19298  1.0000
  C   C49       1.0  0.07037  0.06530  0.31155  1.0000
  H   H71       1.0  0.03508  0.08805  0.03663  1.0000
  H   H72       1.0  0.16851  0.05101  0.24289  1.0000
  H   H73       1.0  0.07419  0.08885  0.00024  1.0000
  H   H74       1.0  0.06524  0.03780  0.26952  1.0000
  C   C50       1.0  0.03261  0.07878  0.45676  1.0000
  C   C51       1.0  0.19475  0.16924  0.16588  1.0000
  H   H75       1.0  0.05030  0.07779  0.19992  1.0000
  H   H76       1.0  0.17910  0.02912  0.22093  1.0000
  H   H77       1.0  0.09407  0.21394  0.20361  1.0000
  H   H78       1.0  0.22293  0.22342  0.41424  1.0000
  H   H79       1.0  0.09555  0.08402  0.02536  1.0000
  H   H80       1.0  0.08835  0.05355  0.26357  1.0000
  H   H81       1.0  0.23374  0.28864  0.45499  1.0000
  H   H82       1.0  0.21311  0.16921  0.16781  1.0000
  C   C52       1.0  0.18225  0.03784  0.24034  1.0000
  S   S23       1.0  0.04433  0.12486  0.21204  1.0000
  C   C53       1.0  0.19633  0.17068  0.11719  1.0000
  H   H83       1.0  0.06287  0.21900  0.26814  1.0000
  H   H84       1.0  0.06631  0.13768  0.04525  1.0000
  H   H85       1.0  0.14513  0.03005  0.38622  1.0000
  Fe  Fe11      1.0  0.13741  0.04963  0.44423  1.0000
  C   C54       1.0  0.24815  0.27918  0.18715  1.0000
  S   S24       1.0  0.09820  0.10269  0.45463  1.0000
  C   C55       1.0  0.03456  0.09999  0.44728  1.0000
  H   H86       1.0  0.03100  0.05577  0.28969  1.0000
  H   H87       1.0  0.21616  0.13460  0.14058  1.0000
  H   H88       1.0  0.12432  0.20772  0.26895  1.0000
  H   H89       1.0  0.19293  0.12718  0.12037  1.0000
  C   C56       1.0  0.24795  0.30040  0.07924  1.0000
  C   C57       1.0  0.10741  0.21631  0.27054  1.0000
  H   H90       1.0  0.10590  0.23586  0.22195  1.0000
  N   N6        1.0  0.09333  0.21134  0.24692  1.0000
  H   H91       1.0  0.17388  0.04793  0.29247  1.0000
  H   H92       1.0  0.10032  0.21107  0.28977  1.0000
  H   H93       1.0  0.26302  0.28456  0.46252  1.0000
  S   S25       1.0  0.16253  0.02006  0.44050  1.0000
  C   C58       1.0  0.25731  0.22031  0.42649  1.0000
  H   H94       1.0  0.10698  0.17778  0.24364  1.0000
  H   H95       1.0  0.15543  0.01382  0.34140  1.0000
  C   C59       1.0  0.22672  0.21891  0.45745  1.0000
  H   H96       1.0  0.18879  0.16074  0.18376  1.0000
  H   H97       1.0  0.23110  0.28753  0.18543  1.0000
  Fe  Fe12      1.0  0.13157  0.08723  0.98414  1.0000
  H   H98       1.0  0.06434  0.08143  0.07314  1.0000
  Fe  Fe13      1.0  0.25113  0.21337  0.11089  1.0000
  H   H99       1.0  0.26339  0.30232  0.32774  1.0000
  H   H100      1.0  0.24633  0.26182  0.46292  1.0000
  C   C60       1.0  0.24798  0.26930  0.13983  1.0000
  C   C61       1.0  0.01849  0.06552  0.20634  1.0000
  H   H101      1.0  0.01787  0.13224  0.44083  1.0000
  C   C62       1.0  0.25820  0.31967  0.32722  1.0000
  H   H102      1.0  0.20332  0.04295  0.28811  1.0000
  H   H103      1.0  0.24548  0.31222  0.15023  1.0000
  H   H104      1.0  0.25694  0.28704  0.20412  1.0000
  H   H105      1.0  0.17447  0.01764  0.00371  1.0000
  H   H106      1.0  0.25702  0.26902  0.12047  1.0000
  C   C63       1.0  0.24131  0.34039  0.08204  1.0000
  Fe  Fe14      1.0  0.25850  0.20697  0.05016  1.0000
  C   C64       1.0  0.26158  0.20961  0.18113  1.0000
  C   C65       1.0  0.24646  0.27960  0.46811  1.0000
  S   S26       1.0  0.26256  0.18409  0.08547  1.0000
  N   N7        1.0  0.26020  0.28018  0.16152  1.0000
  C   C66       1.0  0.26421  0.34194  0.08246  1.0000
  H   H107      1.0  0.21834  0.01272  0.25776  1.0000
  C   C67       1.0  0.16264  0.01214  0.26529  1.0000
  Fe  Fe15      1.0  0.21635  0.20574  0.82795  1.0000
  H   H108      1.0  0.16403  0.05048  0.74861  1.0000
  S   S27       1.0  0.18878  0.18299  0.82542  1.0000
  C   C68       1.0  0.26522  0.30067  0.84575  1.0000
  H   H109      1.0  0.23722  0.19493  0.91323  1.0000
  H   H110      1.0  0.15244  0.16394  0.93522  1.0000
  H   H111      1.0  0.23017  0.31763  0.49082  1.0000
  S   S28       1.0  0.22163  0.23300  0.79951  1.0000
  S   S29       1.0  0.22325  0.22595  0.86522  1.0000
  Fe  Fe16      1.0  0.07968  0.11249  0.70085  1.0000
  S   S30       1.0  0.09392  0.07752  0.70062  1.0000
  Fe  Fe17      1.0  0.12570  0.12950  0.70879  1.0000
  S   S31       1.0  0.14295  0.09539  0.70834  1.0000
  S   S32       1.0  0.14720  0.15813  0.71117  1.0000
  Fe  Fe18      1.0  0.11985  0.08897  0.67368  1.0000
  S   S33       1.0  0.12782  0.06738  0.63702  1.0000
  Fe  Fe19      1.0  0.11522  0.08775  0.73520  1.0000
  S   S34       1.0  0.12100  0.06508  0.77057  1.0000
  S   S35       1.0  0.10456  0.12363  0.67182  1.0000
  S   S36       1.0  0.09906  0.12222  0.73773  1.0000
  H   H112      1.0  0.15016  0.13735  0.92029  1.0000
  Fe  Fe20      1.0  0.23241  0.25172  0.83621  1.0000
  H   H113      1.0  0.21819  0.01836  0.50131  1.0000
  C   C69       1.0  0.06789  0.07900  0.63442  1.0000
  C   C70       1.0  0.19561  0.02408  0.77310  1.0000
  H   H114      1.0  0.05417  0.12146  0.63026  1.0000
  S   S37       1.0  0.13353  0.10804  0.52014  1.0000
  Fe  Fe21      1.0  0.12509  0.08742  0.92247  1.0000
  S   S38       1.0  0.12712  0.10962  0.88665  1.0000
  C   C71       1.0  0.26576  0.21566  0.68124  1.0000
  S   S39       1.0  0.11480  0.05295  0.92092  1.0000
  C   C72       1.0  0.24058  0.21873  0.72819  1.0000
  H   H115      1.0  0.04753  0.07538  0.71156  1.0000
  H   H116      1.0  0.04829  0.05857  0.59323  1.0000
  C   C73       1.0  0.26440  0.21534  0.47487  1.0000
  C   C74       1.0  0.24771  0.19700  0.93080  1.0000
  H   H117      1.0  0.02765  0.06999  0.61638  1.0000
  Fe  Fe22      1.0  0.14332  0.04602  0.94998  1.0000
  C   C75       1.0  0.17569  0.01676  0.51560  1.0000
  Fe  Fe23      1.0  0.09497  0.06310  0.95763  1.0000
  H   H118      1.0  0.19510  0.04143  0.78043  1.0000
  H   H119      1.0  0.06179  0.10198  0.57222  1.0000
  C   C76       1.0  0.25335  0.34431  0.83104  1.0000
  C   C77       1.0  0.12296  0.07775  0.80261  1.0000
  C   C78       1.0  0.12389  0.06472  0.82575  1.0000
  C   C79       1.0  0.12552  0.07434  0.85153  1.0000
  C   C80       1.0  0.12592  0.09710  0.85441  1.0000
  C   C81       1.0  0.12532  0.11013  0.83126  1.0000
  C   C82       1.0  0.12389  0.10047  0.80540  1.0000
  H   H120      1.0  0.12317  0.04714  0.82383  1.0000
  H   H121      1.0  0.12644  0.06408  0.86909  1.0000
  H   H122      1.0  0.12579  0.12774  0.83326  1.0000
  H   H123      1.0  0.12350  0.11063  0.78770  1.0000
  C   C83       1.0  0.12900  0.07904  0.60471  1.0000
  C   C84       1.0  0.13034  0.10159  0.60151  1.0000
  C   C85       1.0  0.13160  0.11029  0.57544  1.0000
  C   C86       1.0  0.13122  0.09658  0.55244  1.0000
  C   C87       1.0  0.12956  0.07408  0.55567  1.0000
  C   C88       1.0  0.12865  0.06533  0.58174  1.0000
  H   H124      1.0  0.13075  0.11226  0.61908  1.0000
  H   H125      1.0  0.13292  0.12769  0.57304  1.0000
  H   H126      1.0  0.12936  0.06338  0.53812  1.0000
  H   H127      1.0  0.12763  0.04787  0.58410  1.0000
  C   C89       1.0  0.17789  0.17579  0.79343  1.0000
  C   C90       1.0  0.18349  0.18635  0.76993  1.0000
  C   C91       1.0  0.17399  0.18084  0.74488  1.0000
  C   C92       1.0  0.15907  0.16449  0.74299  1.0000
  C   C93       1.0  0.15380  0.15364  0.76644  1.0000
  C   C94       1.0  0.16307  0.15937  0.79158  1.0000
  H   H128      1.0  0.19477  0.19910  0.77112  1.0000
  H   H129      1.0  0.17805  0.18954  0.72706  1.0000
  H   H130      1.0  0.14235  0.14103  0.76528  1.0000
  H   H131      1.0  0.15864  0.15107  0.80962  1.0000
  H   H132      1.0  0.19840  0.17040  0.91306  1.0000
  H   H133      1.0  0.23818  0.28205  0.75639  1.0000
  H   H134      1.0  0.23067  0.21951  0.74612  1.0000
  H   H135      1.0  0.21217  0.22210  0.70124  1.0000
  H   H136      1.0  0.24725  0.27887  0.79087  1.0000
  H   H137      1.0  0.13686  0.15476  0.87727  1.0000
  H   H138      1.0  0.17597  0.14381  0.93524  1.0000
  H   H139      1.0  0.13916  0.18147  0.89218  1.0000
  H   H140      1.0  0.25920  0.31315  0.49971  1.0000
  C   C95       1.0  0.02440  0.11153  0.95639  1.0000
  H   H141      1.0  0.05683  0.07547  0.65129  1.0000
  S   S40       1.0  0.15484  0.07997  0.94956  1.0000
  H   H142      1.0  0.18345  0.03084  0.52517  1.0000
  H   H143      1.0  0.21893  0.25907  0.49880  1.0000
  S   S41       1.0  0.10290  0.09822  0.95690  1.0000
  S   S42       1.0  0.24268  0.24583  0.57748  1.0000
  Fe  Fe24      1.0  0.25846  0.21175  0.86055  1.0000
  H   H144      1.0  0.02650  0.12733  0.94759  1.0000
  H   H145      1.0  0.17583  0.03094  0.72418  1.0000
  S   S43       1.0  0.11536  0.05442  0.48044  1.0000
  H   H146      1.0  0.08267  0.10606  0.59756  1.0000
  C   C96       1.0  0.23488  0.32598  0.58136  1.0000
  N   N8        1.0  0.05523  0.08940  0.61149  1.0000
  Fe  Fe25      1.0  0.12568  0.08876  0.48215  1.0000
  H   H147      1.0  0.26146  0.12052  0.75424  1.0000
  H   H148      1.0  0.25903  0.25322  0.50978  1.0000
  C   C97       1.0  0.03947  0.07421  0.60063  1.0000
  H   H149      1.0  0.21813  0.32491  0.58823  1.0000
  C   C98       1.0  0.04168  0.09467  0.95517  1.0000
  C   C99       1.0  0.24266  0.21849  0.67905  1.0000
  H   H150      1.0  0.15796  0.03794  0.79638  1.0000
  Fe  Fe26      1.0  0.25313  0.21770  0.54951  1.0000
  C   C100      1.0  0.07072  0.09442  0.59010  1.0000
  Fe  Fe27      1.0  0.25161  0.22245  0.61139  1.0000
  H   H151      1.0  0.25402  0.17148  0.74965  1.0000
  H   H152      1.0  0.21641  0.27913  0.52554  1.0000
  H   H153      1.0  0.05685  0.09745  0.94512  1.0000
  H   H154      1.0  0.24544  0.15104  0.72618  1.0000
  C   C101      1.0  0.23906  0.19565  0.95687  1.0000
  H   H155      1.0  0.25813  0.31547  0.75205  1.0000
  H   H156      1.0  0.20653  0.28623  0.49200  1.0000
  H   H157      1.0  0.25287  0.25683  0.76706  1.0000
  S   S44       1.0  0.22920  0.21996  0.64716  1.0000
  N   N9        1.0  0.17814  0.17686  0.64126  1.0000
  C   C102      1.0  0.18256  0.18370  0.66943  1.0000
  C   C103      1.0  0.19861  0.16577  0.62975  1.0000
  C   C104      1.0  0.17096  0.19647  0.62513  1.0000
  C   C105      1.0  0.16048  0.16158  0.64084  1.0000
  H   H158      1.0  0.16746  0.19220  0.67871  1.0000
  H   H159      1.0  0.19584  0.19515  0.67061  1.0000
  H   H160      1.0  0.18782  0.16931  0.68232  1.0000
  H   H161      1.0  0.19592  0.16047  0.60842  1.0000
  H   H162      1.0  0.21225  0.17692  0.62989  1.0000
  H   H163      1.0  0.20453  0.15094  0.64149  1.0000
  H   H164      1.0  0.16755  0.19199  0.60368  1.0000
  H   H165      1.0  0.18397  0.20833  0.62523  1.0000
  H   H166      1.0  0.15560  0.20529  0.63334  1.0000
  H   H167      1.0  0.16531  0.14671  0.65312  1.0000
  H   H168      1.0  0.15662  0.15598  0.61992  1.0000
  H   H169      1.0  0.14488  0.16942  0.64968  1.0000
  C   C106      1.0  0.23008  0.21993  0.70265  1.0000
  N   N10       1.0  0.16827  0.15887  0.89675  1.0000
  C   C107      1.0  0.17996  0.14065  0.88122  1.0000
  C   C108      1.0  0.18322  0.17648  0.90150  1.0000
  C   C109      1.0  0.16144  0.15066  0.92304  1.0000
  C   C110      1.0  0.14845  0.16767  0.88122  1.0000
  H   H170      1.0  0.16907  0.12714  0.87723  1.0000
  H   H171      1.0  0.19500  0.13353  0.89223  1.0000
  H   H172      1.0  0.18523  0.14629  0.86121  1.0000
  H   H173      1.0  0.18869  0.18311  0.88213  1.0000
  H   H174      1.0  0.17489  0.19053  0.91306  1.0000
  S   S45       1.0  0.04293  0.12074  0.69248  1.0000
  S   S46       1.0  0.22255  0.28838  0.83905  1.0000
  H   H175      1.0  0.15304  0.17389  0.86119  1.0000
  S   S47       1.0  0.23121  0.21392  0.51239  1.0000
  C   C111      1.0  0.16501  0.03288  0.74214  1.0000
  C   C112      1.0  0.23717  0.32918  0.83229  1.0000
  C   C113      1.0  0.24163  0.21604  0.47945  1.0000
  S   S48       1.0  0.25109  0.18970  0.82543  1.0000
  H   H176      1.0  0.03358  0.11863  0.60405  1.0000
  C   C114      1.0  0.24308  0.30722  0.83928  1.0000
  H   H177      1.0  0.07733  0.06331  0.62825  1.0000
  C   C115      1.0  0.02389  0.10061  0.69589  1.0000
  H   H178      1.0  0.01992  0.04816  0.71684  1.0000
  S   S49       1.0  0.25834  0.19351  0.58342  1.0000
  C   C116      1.0  0.04286  0.10995  0.62092  1.0000
  H   H179      1.0  0.23862  0.31121  0.52487  1.0000
  H   H180      1.0  0.26249  0.17162  0.71508  1.0000
  S   S50       1.0  0.06072  0.05311  0.96611  1.0000
  C   C117      1.0  0.26372  0.21634  0.73027  1.0000
  C   C118      1.0  0.03045  0.07966  0.70581  1.0000
  H   H181      1.0  0.24504  0.29190  0.58904  1.0000
  C   C119      1.0  0.15809  0.02114  0.78737  1.0000
  N   N11       1.0  0.17337  0.01831  0.76436  1.0000
  Fe  Fe28      1.0  0.25678  0.21822  0.79923  1.0000
  C   C120      1.0  0.25008  0.30723  0.58171  1.0000
  H   H182      1.0  0.08066  0.07932  0.58289  1.0000
  C   C121      1.0  0.25197  0.27498  0.76960  1.0000
  H   H183      1.0  0.08022  0.08986  0.64269  1.0000
  H   H184      1.0  0.15643  0.03274  0.89402  1.0000
  H   H185      1.0  0.26624  0.34045  0.62401  1.0000
  H   H186      1.0  0.14073  0.01870  0.78111  1.0000
  H   H187      1.0  0.20764  0.02196  0.75633  1.0000
  N   N12       1.0  0.24203  0.28380  0.49710  1.0000
  S   S51       1.0  0.16822  0.01629  0.94770  1.0000
  H   H188      1.0  0.16750  0.02284  0.49651  1.0000
  H   H189      1.0  0.25734  0.33325  0.92875  1.0000
  H   H190      1.0  0.14794  0.02947  0.73558  1.0000
  C   C122      1.0  0.25950  0.16070  0.73222  1.0000
  H   H191      1.0  0.02952  0.08159  0.58339  1.0000
  H   H192      1.0  0.25640  0.27416  0.53545  1.0000
  H   H193      1.0  0.26623  0.31295  0.78687  1.0000
  C   C123      1.0  0.21999  0.27681  0.50362  1.0000
  H   H194      1.0  0.22005  0.33440  0.82735  1.0000
  H   H195      1.0  0.22185  0.19269  0.95925  1.0000
  C   C124      1.0  0.03908  0.07423  0.96647  1.0000
  H   H196      1.0  0.03063  0.10667  0.63661  1.0000
  H   H197      1.0  0.25484  0.33777  0.89301  1.0000
  C   C125      1.0  0.25916  0.27120  0.51354  1.0000
  H   H198      1.0  0.16801  0.01948  0.84863  1.0000
  C   C126      1.0  0.16821  0.01848  0.89201  1.0000
  H   H199      1.0  0.20233  0.01353  0.79002  1.0000
  H   H200      1.0  0.25855  0.34162  0.65883  1.0000
  C   C127      1.0  0.24252  0.30750  0.50329  1.0000
  H   H201      1.0  0.26605  0.28350  0.72035  1.0000
  H   H202      1.0  0.16235  0.01223  0.52910  1.0000
  C   C128      1.0  0.15430  0.66784  0.11942  1.0000
  Fe  Fe29      1.0  0.07923  0.60664  0.20317  1.0000
  S   S52       1.0  0.09361  0.57165  0.20263  1.0000
  S   S53       1.0  0.04257  0.61561  0.21044  1.0000
  Fe  Fe30      1.0  0.12500  0.62403  0.19726  1.0000
  S   S54       1.0  0.14247  0.59000  0.19698  1.0000
  H   H203      1.0  0.02599  0.56222  0.29965  1.0000
  Fe  Fe31      1.0  0.11466  0.58200  0.16906  1.0000
  S   S55       1.0  0.12087  0.55876  0.13362  1.0000
  Fe  Fe32      1.0  0.11976  0.58316  0.23067  1.0000
  S   S56       1.0  0.12931  0.56136  0.26640  1.0000
  S   S57       1.0  0.09830  0.61648  0.16720  1.0000
  S   S58       1.0  0.10428  0.61777  0.23332  1.0000
  H   H204      1.0  0.21613  0.50068  0.36518  1.0000
  H   H205      1.0  0.15658  0.64485  0.25217  1.0000
  S   S59       1.0  0.08677  0.59141  0.45106  1.0000
  H   H206      1.0  0.08660  0.54990  0.28799  1.0000
  C   C129      1.0  0.24428  0.44980  0.17783  1.0000
  C   C130      1.0  0.20854  0.51458  0.37770  1.0000
  H   H207      1.0  0.25682  0.41292  0.26536  1.0000
  H   H208      1.0  0.14541  0.63336  0.99966  1.0000
  S   S60       1.0  0.11813  0.60168  0.01777  1.0000
  Fe  Fe33      1.0  0.11244  0.57948  0.42069  1.0000
  S   S61       1.0  0.11683  0.60098  0.38473  1.0000
  H   H209      1.0  0.07558  0.57781  0.07156  1.0000
  S   S62       1.0  0.10264  0.54491  0.41932  1.0000
  C   C131      1.0  0.17821  0.48155  0.03718  1.0000
  C   C132      1.0  0.18567  0.47103  0.01333  1.0000
  H   H210      1.0  0.05470  0.59765  0.32037  1.0000
  H   H211      1.0  0.07829  0.58122  0.02224  1.0000
  C   C133      1.0  0.15426  0.50749  0.01040  1.0000
  C   C134      1.0  0.16245  0.49979  0.03559  1.0000
  H   H212      1.0  0.21803  0.51436  0.39720  1.0000
  H   H213      1.0  0.13117  0.66030  0.03411  1.0000
  H   H214      1.0  0.14236  0.52167  0.00950  1.0000
  H   H215      1.0  0.15648  0.50806  0.05380  1.0000
  C   C135      1.0  0.12079  0.57096  0.10162  1.0000
  C   C136      1.0  0.12253  0.55752  0.07844  1.0000
  C   C137      1.0  0.12234  0.56686  0.05270  1.0000
  C   C138      1.0  0.11990  0.58967  0.04991  1.0000
  C   C139      1.0  0.11831  0.60315  0.07306  1.0000
  C   C140      1.0  0.11889  0.59381  0.09887  1.0000
  H   H216      1.0  0.12402  0.53983  0.08030  1.0000
  H   H217      1.0  0.12437  0.55635  0.03508  1.0000
  H   H218      1.0  0.11646  0.62083  0.07111  1.0000
  H   H219      1.0  0.11793  0.60433  0.11658  1.0000
  C   C141      1.0  0.12692  0.57253  0.29933  1.0000
  C   C142      1.0  0.12396  0.59523  0.30375  1.0000
  C   C143      1.0  0.12116  0.60370  0.33011  1.0000
  C   C144      1.0  0.12115  0.58955  0.35221  1.0000
  C   C145      1.0  0.12428  0.56682  0.34786  1.0000
  C   C146      1.0  0.12728  0.55835  0.32147  1.0000
  H   H220      1.0  0.12392  0.60629  0.28690  1.0000
  H   H221      1.0  0.11883  0.62129  0.33342  1.0000
  H   H222      1.0  0.12432  0.55582  0.36480  1.0000
  H   H223      1.0  0.12955  0.54076  0.31812  1.0000
  H   H224      1.0  0.03854  0.59259  0.44494  1.0000
  H   H225      1.0  0.05873  0.60487  0.27141  1.0000
  S   S63       1.0  0.14629  0.65285  0.19845  1.0000
  S   S64       1.0  0.22232  0.36397  0.08451  1.0000
  H   H226      1.0  0.02936  0.56640  0.26427  1.0000
  H   H227      1.0  0.06198  0.53865  0.29928  1.0000
  N   N13       1.0  0.18101  0.66483  0.26906  1.0000
  C   C147      1.0  0.14702  0.65819  0.14298  1.0000
  H   H228      1.0  0.04644  0.56865  0.19772  1.0000
  H   H229      1.0  0.18336  0.53220  0.41847  1.0000
  N   N14       1.0  0.25872  0.38542  0.23772  1.0000
  H   H230      1.0  0.20043  0.65294  0.01704  1.0000
  H   H231      1.0  0.21115  0.53010  0.36721  1.0000
  H   H232      1.0  0.08469  0.58814  0.27194  1.0000
  H   H233      1.0  0.19775  0.45692  0.01430  1.0000
  C   C148      1.0  0.02819  0.56516  0.03927  1.0000
  H   H234      1.0  0.17691  0.54727  0.38787  1.0000
  H   H235      1.0  0.19089  0.49196  0.41700  1.0000
  S   S65       1.0  0.18800  0.47223  0.06922  1.0000
  N   N15       1.0  0.17643  0.50987  0.13807  1.0000
  C   C149      1.0  0.15901  0.50518  0.15720  1.0000
  C   C150      1.0  0.18666  0.52987  0.14707  1.0000
  C   C151      1.0  0.16640  0.51348  0.11092  1.0000
  C   C152      1.0  0.19352  0.49103  0.13696  1.0000
  H   H236      1.0  0.15089  0.49022  0.15091  1.0000
  H   H237      1.0  0.14578  0.51907  0.15826  1.0000
  H   H238      1.0  0.16592  0.50250  0.17798  1.0000
  H   H239      1.0  0.19975  0.53396  0.13292  1.0000
  H   H240      1.0  0.17408  0.54434  0.14805  1.0000
  H   H241      1.0  0.19442  0.52779  0.16753  1.0000
  H   H242      1.0  0.15394  0.52794  0.11080  1.0000
  H   H243      1.0  0.15791  0.49898  0.10375  1.0000
  H   H244      1.0  0.17914  0.51638  0.09570  1.0000
  H   H245      1.0  0.18627  0.47571  0.13008  1.0000
  H   H246      1.0  0.20671  0.49388  0.12228  1.0000
  N   N16       1.0  0.05237  0.56640  0.04239  1.0000
  H   H247      1.0  0.24748  0.35707  0.40356  1.0000
  H   H248      1.0  0.23415  0.36212  0.23888  1.0000
  C   C153      1.0  0.16090  0.64186  0.99885  1.0000
  H   H249      1.0  0.08049  0.58093  0.32047  1.0000
  S   S66       1.0  0.10234  0.54417  0.98788  1.0000
  C   C154      1.0  0.02199  0.56562  0.46006  1.0000
  C   C155      1.0  0.15579  0.66372  0.16824  1.0000
  Fe  Fe34      1.0  0.25782  0.43427  0.10630  1.0000
  H   H250      1.0  0.05214  0.56657  0.08590  1.0000
  H   H251      1.0  0.20189  0.65244  0.30204  1.0000
  H   H252      1.0  0.05191  0.59694  0.02101  1.0000
  H   H253      1.0  0.02489  0.58967  0.28648  1.0000
  Fe  Fe35      1.0  0.07881  0.55635  0.45204  1.0000
  S   S67       1.0  0.23805  0.46230  0.39310  1.0000
  C   C156      1.0  0.17219  0.67863  0.16969  1.0000
  H   H254      1.0  0.08202  0.54427  0.04323  1.0000
  H   H255      1.0  0.14700  0.66387  0.10010  1.0000
  H   H256      1.0  0.01908  0.58181  0.03935  1.0000
  C   C157      1.0  0.05744  0.57648  0.06885  1.0000
  C   C158      1.0  0.24344  0.37113  0.22399  1.0000
  H   H257      1.0  0.17450  0.62924  0.99329  1.0000
  H   H258      1.0  0.18306  0.62380  0.04184  1.0000
  H   H259      1.0  0.24006  0.38219  0.32531  1.0000
  S   S68       1.0  0.22280  0.42531  0.10805  1.0000
  C   C159      1.0  0.02424  0.59491  0.21378  1.0000
  S   S69       1.0  0.15243  0.50950  0.45345  1.0000
  C   C160      1.0  0.06647  0.58771  0.26935  1.0000
  S   S70       1.0  0.24669  0.42944  0.32544  1.0000
  H   H260      1.0  0.25885  0.40767  0.20440  1.0000
  H   H261      1.0  0.15721  0.53038  0.40167  1.0000
  C   C161      1.0  0.06830  0.55040  0.28494  1.0000
  H   H262      1.0  0.05607  0.56980  0.33220  1.0000
  H   H263      1.0  0.17436  0.52701  0.34415  1.0000
  H   H264      1.0  0.15497  0.51001  0.35847  1.0000
  C   C162      1.0  0.24588  0.40156  0.25514  1.0000
  Fe  Fe36      1.0  0.12751  0.53914  0.45338  1.0000
  S   S71       1.0  0.13935  0.57288  0.45203  1.0000
  H   H265      1.0  0.17977  0.49759  0.34310  1.0000
  H   H266      1.0  0.21766  0.45495  0.20633  1.0000
  H   H267      1.0  0.18959  0.47720  0.38555  1.0000
  H   H268      1.0  0.21180  0.35515  0.32595  1.0000
  H   H269      1.0  0.02406  0.55704  0.01976  1.0000
  H   H270      1.0  0.19010  0.67253  0.04207  1.0000
  H   H271      1.0  0.20165  0.48782  0.15702  1.0000
  H   H272      1.0  0.18527  0.47497  0.46848  1.0000
  H   H273      1.0  0.06533  0.54422  0.26402  1.0000
  H   H274      1.0  0.02158  0.55549  0.05571  1.0000
  C   C163      1.0  0.24526  0.36485  0.32591  1.0000
  S   S72       1.0  0.04415  0.54559  0.45458  1.0000
  H   H275      1.0  0.04912  0.59340  0.07084  1.0000
  C   C164      1.0  0.18232  0.49190  0.39688  1.0000
  C   C165      1.0  0.06235  0.58065  0.31673  1.0000
  H   H276      1.0  0.17239  0.64384  0.06633  1.0000
  H   H277      1.0  0.23330  0.41197  0.24324  1.0000
  C   C166      1.0  0.03036  0.57309  0.20629  1.0000
  Fe  Fe37      1.0  0.21694  0.44613  0.07097  1.0000
  N   N17       1.0  0.05761  0.57289  0.28898  1.0000
  C   C167      1.0  0.23860  0.45641  0.44790  1.0000
  H   H278      1.0  0.23673  0.43360  0.99034  1.0000
  C   C168      1.0  0.25757  0.39042  0.43715  1.0000
  C   C169      1.0  0.17520  0.53144  0.39817  1.0000
  C   C170      1.0  0.25276  0.39832  0.38969  1.0000
  C   C171      1.0  0.23543  0.45373  0.20373  1.0000
  C   C172      1.0  0.06015  0.57994  0.02057  1.0000
  H   H279      1.0  0.18954  0.65568  0.22818  1.0000
  Fe  Fe38      1.0  0.23387  0.39795  0.07902  1.0000
  S   S73       1.0  0.22455  0.41796  0.04197  1.0000
  H   H280      1.0  0.22078  0.45980  0.44664  1.0000
  N   N18       1.0  0.18475  0.51242  0.38213  1.0000
  S   S74       1.0  0.23790  0.45970  0.25862  1.0000
  C   C173      1.0  0.16142  0.49677  0.98655  1.0000
  S   S75       1.0  0.25130  0.45722  0.07145  1.0000
  C   C174      1.0  0.03339  0.57280  0.28476  1.0000
  C   C175      1.0  0.17295  0.51172  0.35577  1.0000
  N   N19       1.0  0.16560  0.65276  0.02493  1.0000
  H   H281      1.0  0.16460  0.48965  0.40067  1.0000
  H   H282      1.0  0.06332  0.58226  0.24824  1.0000
  H   H283      1.0  0.05679  0.57271  0.00035  1.0000
  H   H284      1.0  0.23337  0.44806  0.16058  1.0000
  H   H285      1.0  0.23704  0.39337  0.27118  1.0000
  H   H286      1.0  0.06058  0.53607  0.02071  1.0000
  C   C176      1.0  0.25131  0.45727  0.42462  1.0000
  H   H287      1.0  0.20745  0.64257  0.25357  1.0000
  C   C177      1.0  0.24949  0.45577  0.22631  1.0000
  H   H288      1.0  0.15394  0.62692  0.04850  1.0000
  Fe  Fe39      1.0  0.11193  0.57849  0.98295  1.0000
  H   H289      1.0  0.25329  0.41621  0.39367  1.0000
  H   H290      1.0  0.13430  0.64684  0.14165  1.0000
  H   H291      1.0  0.25803  0.40821  0.44208  1.0000
  C   C178      1.0  0.19762  0.65819  0.24827  1.0000
  C   C179      1.0  0.16550  0.64759  0.27157  1.0000
  C   C180      1.0  0.16891  0.63610  0.04635  1.0000
  Fe  Fe40      1.0  0.25945  0.42769  0.04481  1.0000
  H   H292      1.0  0.15271  0.65213  0.28703  1.0000
  C   C181      1.0  0.17716  0.47849  0.98815  1.0000
  C   C182      1.0  0.24884  0.45072  0.47283  1.0000
  H   H293      1.0  0.23506  0.39477  0.38984  1.0000
  C   C183      1.0  0.02355  0.58764  0.45366  1.0000
  H   H294      1.0  0.05807  0.53320  0.05661  1.0000
  C   C184      1.0  0.06374  0.54401  0.04069  1.0000
  H   H295      1.0  0.17433  0.63156  0.27737  1.0000
  H   H296      1.0  0.15874  0.65389  0.98212  1.0000
  H   H297      1.0  0.24003  0.38656  0.43888  1.0000
  H   H298      1.0  0.25257  0.35875  0.21065  1.0000
  C   C185      1.0  0.19234  0.66787  0.29538  1.0000
  H   H299      1.0  0.25897  0.39489  0.36892  1.0000
  H   H300      1.0  0.23103  0.38091  0.21112  1.0000
  C   C186      1.0  0.18587  0.66441  0.02262  1.0000
  Fe  Fe41      1.0  0.25907  0.45225  0.35704  1.0000
  C   C187      1.0  0.22924  0.34948  0.32623  1.0000
  H   H301      1.0  0.02040  0.54005  0.20375  1.0000
  Fe  Fe42      1.0  0.25975  0.45204  0.29532  1.0000
  C   C188      1.0  0.14667  0.66865  0.03193  1.0000
  H   H302      1.0  0.20946  0.67099  0.24580  1.0000
  H   H303      1.0  0.18382  0.67745  0.00706  1.0000
  C   C189      1.0  0.26492  0.36152  0.40372  1.0000
  H   H304      1.0  0.14974  0.67732  0.05141  1.0000
  H   H305      1.0  0.18031  0.67315  0.31146  1.0000
  N   N20       1.0  0.26619  0.38514  0.40982  1.0000
  C   C190      1.0  0.24133  0.34613  0.57250  1.0000
  Fe  Fe43      1.0  0.07933  0.60749  0.70204  1.0000
  S   S76       1.0  0.09370  0.57251  0.70114  1.0000
  S   S77       1.0  0.04255  0.61658  0.70798  1.0000
  Fe  Fe44      1.0  0.12521  0.62502  0.69828  1.0000
  S   S78       1.0  0.14269  0.59098  0.69782  1.0000
  S   S79       1.0  0.14633  0.65400  0.69999  1.0000
  Fe  Fe45      1.0  0.11557  0.58337  0.66867  1.0000
  S   S80       1.0  0.12276  0.56082  0.63279  1.0000
  Fe  Fe46      1.0  0.11915  0.58366  0.73046  1.0000
  S   S81       1.0  0.12787  0.56120  0.76584  1.0000
  S   S82       1.0  0.09926  0.61784  0.66706  1.0000
  S   S83       1.0  0.10363  0.61824  0.73337  1.0000
  H   H306      1.0  0.19854  0.45975  0.86771  1.0000
  H   H307      1.0  0.18378  0.47808  0.65551  1.0000
  S   S84       1.0  0.08454  0.58773  0.95308  1.0000
  H   H308      1.0  0.04848  0.62210  0.56550  1.0000
  C   C191      1.0  0.16395  0.50166  0.48520  1.0000
  H   H309      1.0  0.24938  0.37851  0.61754  1.0000
  C   C192      1.0  0.05979  0.57967  0.81449  1.0000
  S   S85       1.0  0.24026  0.44067  0.89212  1.0000
  S   S86       1.0  0.11751  0.60468  0.51757  1.0000
  Fe  Fe47      1.0  0.10901  0.57558  0.92137  1.0000
  S   S87       1.0  0.11101  0.59747  0.88514  1.0000
  H   H310      1.0  0.07535  0.60915  0.55773  1.0000
  S   S88       1.0  0.09948  0.54086  0.92156  1.0000
  C   C193      1.0  0.18228  0.48792  0.53558  1.0000
  C   C194      1.0  0.18927  0.47698  0.51179  1.0000
  H   H311      1.0  0.08308  0.58815  0.77080  1.0000
  C   C195      1.0  0.18375  0.64759  0.76558  1.0000
  C   C196      1.0  0.15727  0.51291  0.50892  1.0000
  C   C197      1.0  0.16631  0.50598  0.53406  1.0000
  N   N21       1.0  0.18923  0.49041  0.88806  1.0000
  S   S89       1.0  0.15092  0.50587  0.95464  1.0000
  H   H312      1.0  0.14504  0.52684  0.50796  1.0000
  H   H313      1.0  0.16086  0.51460  0.55232  1.0000
  C   C198      1.0  0.12264  0.57328  0.60097  1.0000
  C   C199      1.0  0.12410  0.56000  0.57766  1.0000
  C   C200      1.0  0.12320  0.56952  0.55198  1.0000
  C   C201      1.0  0.12080  0.59237  0.54949  1.0000
  C   C202      1.0  0.12008  0.60568  0.57281  1.0000
  C   C203      1.0  0.12095  0.59615  0.59851  1.0000
  H   H314      1.0  0.12571  0.54229  0.57940  1.0000
  H   H315      1.0  0.12442  0.55912  0.53420  1.0000
  H   H316      1.0  0.11837  0.62338  0.57108  1.0000
  H   H317      1.0  0.12032  0.60652  0.61637  1.0000
  C   C204      1.0  0.12440  0.57147  0.79914  1.0000
  C   C205      1.0  0.12078  0.59402  0.80442  1.0000
  C   C206      1.0  0.11703  0.60172  0.83097  1.0000
  C   C207      1.0  0.11680  0.58697  0.85243  1.0000
  C   C208      1.0  0.12062  0.56439  0.84725  1.0000
  C   C209      1.0  0.12449  0.55669  0.82065  1.0000
  H   H318      1.0  0.12093  0.60556  0.78809  1.0000
  H   H319      1.0  0.11416  0.61920  0.83491  1.0000
  H   H320      1.0  0.12047  0.55292  0.86369  1.0000
  H   H321      1.0  0.12731  0.53921  0.81668  1.0000
  C   C210      1.0  0.18005  0.48375  0.48671  1.0000
  H   H322      1.0  0.24073  0.38066  0.94602  1.0000
  H   H323      1.0  0.20310  0.63541  0.54550  1.0000
  C   C211      1.0  0.15563  0.66468  0.66954  1.0000
  C   C212      1.0  0.25873  0.37577  0.94346  1.0000
  H   H324      1.0  0.02341  0.56234  0.79545  1.0000
  H   H325      1.0  0.05553  0.57291  0.50314  1.0000
  C   C213      1.0  0.01881  0.55987  0.96330  1.0000
  H   H326      1.0  0.04613  0.56926  0.69695  1.0000
  Fe  Fe48      1.0  0.11281  0.58154  0.48237  1.0000
  C   C214      1.0  0.24994  0.43924  0.67706  1.0000
  H   H327      1.0  0.23832  0.44052  0.66023  1.0000
  C   C215      1.0  0.24213  0.43927  0.70368  1.0000
  Fe  Fe49      1.0  0.26386  0.43184  0.85808  1.0000
  H   H328      1.0  0.19254  0.65361  0.71378  1.0000
  H   H329      1.0  0.17708  0.65261  0.78577  1.0000
  H   H330      1.0  0.04706  0.61185  0.49102  1.0000
  C   C216      1.0  0.15573  0.66643  0.62047  1.0000
  H   H331      1.0  0.23889  0.45016  0.49064  1.0000
  H   H332      1.0  0.21604  0.66922  0.71900  1.0000
  H   H333      1.0  0.07096  0.61881  0.50991  1.0000
  H   H334      1.0  0.17636  0.47305  0.92095  1.0000
  H   H335      1.0  0.15474  0.50105  0.89338  1.0000
  H   H336      1.0  0.21715  0.64110  0.72972  1.0000
  H   H337      1.0  0.26375  0.39707  0.89739  1.0000
  H   H338      1.0  0.17333  0.52092  0.90318  1.0000
  H   H339      1.0  0.21388  0.51298  0.89610  1.0000
  H   H340      1.0  0.19505  0.53324  0.63072  1.0000
  C   C217      1.0  0.18039  0.52624  0.62130  1.0000
  H   H341      1.0  0.16820  0.51561  0.86784  1.0000
  H   H342      1.0  0.23725  0.38626  0.89669  1.0000
  H   H343      1.0  0.02298  0.59018  0.78367  1.0000
  H   H344      1.0  0.08413  0.54949  0.78497  1.0000
  H   H345      1.0  0.05287  0.56859  0.82920  1.0000
  C   C218      1.0  0.14837  0.65728  0.64432  1.0000
  N   N22       1.0  0.17201  0.50928  0.63850  1.0000
  C   C219      1.0  0.15259  0.50059  0.62498  1.0000
  C   C220      1.0  0.18960  0.49122  0.64275  1.0000
  H   H346      1.0  0.15889  0.50680  0.67839  1.0000
  H   H347      1.0  0.14577  0.48770  0.63722  1.0000
  H   H348      1.0  0.13904  0.51386  0.62152  1.0000
  H   H349      1.0  0.15702  0.49315  0.60487  1.0000
  H   H350      1.0  0.20454  0.49722  0.65278  1.0000
  H   H351      1.0  0.19501  0.48338  0.62327  1.0000
  H   H352      1.0  0.19473  0.49326  0.93097  1.0000
  H   H353      1.0  0.05737  0.60526  0.77028  1.0000
  C   C221      1.0  0.16543  0.51910  0.66497  1.0000
  H   H354      1.0  0.18302  0.64849  0.56821  1.0000
  N   N23       1.0  0.04914  0.59961  0.53159  1.0000
  C   C222      1.0  0.02515  0.59701  0.53293  1.0000
  C   C223      1.0  0.06106  0.57845  0.52350  1.0000
  H   H355      1.0  0.14967  0.66090  0.60112  1.0000
  H   H356      1.0  0.21074  0.67370  0.79360  1.0000
  C   C224      1.0  0.18747  0.65665  0.50075  1.0000
  H   H357      1.0  0.13683  0.64474  0.64318  1.0000
  H   H358      1.0  0.05565  0.59374  0.57392  1.0000
  H   H359      1.0  0.01854  0.59140  0.51315  1.0000
  H   H360      1.0  0.07921  0.57979  0.52266  1.0000
  H   H361      1.0  0.02746  0.56759  0.76047  1.0000
  C   C225      1.0  0.20997  0.50000  0.88121  1.0000
  H   H362      1.0  0.24120  0.37942  0.65222  1.0000
  C   C226      1.0  0.06488  0.58807  0.76764  1.0000
  H   H363      1.0  0.05843  0.56519  0.53798  1.0000
  C   C227      1.0  0.06585  0.55034  0.78147  1.0000
  S   S90       1.0  0.25379  0.40795  0.82643  1.0000
  H   H364      1.0  0.15000  0.63653  0.50650  1.0000
  H   H365      1.0  0.07788  0.57931  0.81886  1.0000
  C   C228      1.0  0.16035  0.67369  0.53144  1.0000
  H   H366      1.0  0.06205  0.58329  0.74621  1.0000
  S   S91       1.0  0.10278  0.54723  0.48593  1.0000
  H   H367      1.0  0.02163  0.58460  0.54816  1.0000
  H   H368      1.0  0.24862  0.36101  0.82500  1.0000
  C   C229      1.0  0.02005  0.58256  0.96171  1.0000
  H   H369      1.0  0.19749  0.67109  0.50218  1.0000
  C   C230      1.0  0.24747  0.43458  0.97330  1.0000
  H   H370      1.0  0.15219  0.53279  0.66264  1.0000
  S   S92       1.0  0.13723  0.56952  0.95119  1.0000
  C   C231      1.0  0.21648  0.66685  0.77370  1.0000
  C   C232      1.0  0.02960  0.57424  0.70382  1.0000
  H   H371      1.0  0.17965  0.52595  0.67565  1.0000
  H   H372      1.0  0.05256  0.59674  0.81866  1.0000
  H   H373      1.0  0.22432  0.48723  0.88122  1.0000
  H   H374      1.0  0.18543  0.51932  0.60113  1.0000
  H   H375      1.0  0.16930  0.46545  0.87271  1.0000
  H   H376      1.0  0.15125  0.67225  0.55063  1.0000
  Fe  Fe50      1.0  0.12584  0.53562  0.95416  1.0000
  C   C233      1.0  0.23830  0.43694  0.94714  1.0000
  S   S93       1.0  0.22200  0.36936  0.57284  1.0000
  H   H377      1.0  0.17579  0.65929  0.48324  1.0000
  H   H378      1.0  0.16745  0.54006  0.61769  1.0000
  H   H379      1.0  0.20882  0.50747  0.86080  1.0000
  C   C234      1.0  0.16240  0.63455  0.52336  1.0000
  N   N24       1.0  0.05542  0.57283  0.78627  1.0000
  Fe  Fe51      1.0  0.23477  0.40293  0.57037  1.0000
  C   C235      1.0  0.19162  0.48066  0.91520  1.0000
  H   H380      1.0  0.22447  0.44057  0.70719  1.0000
  Fe  Fe52      1.0  0.22074  0.45200  0.56790  1.0000
  H   H381      1.0  0.20158  0.46314  0.51269  1.0000
  H   H382      1.0  0.20563  0.46770  0.91621  1.0000
  S   S94       1.0  0.19296  0.47928  0.56746  1.0000
  C   C236      1.0  0.18477  0.47313  0.86800  1.0000
  C   C237      1.0  0.25205  0.43839  0.92484  1.0000
  H   H383      1.0  0.18294  0.47984  0.84721  1.0000
  C   C238      1.0  0.25496  0.38231  0.63845  1.0000
  H   H384      1.0  0.06310  0.54481  0.76023  1.0000
  C   C239      1.0  0.25540  0.38165  0.89540  1.0000
  H   H385      1.0  0.22052  0.43739  0.94427  1.0000
  S   S95       1.0  0.22515  0.42830  0.60242  1.0000
  C   C240      1.0  0.17059  0.50777  0.88797  1.0000
  S   S96       1.0  0.22684  0.42587  0.53585  1.0000
  C   C241      1.0  0.02353  0.59634  0.71006  1.0000
  S   S97       1.0  0.24630  0.43813  0.75887  1.0000
  C   C242      1.0  0.20627  0.65668  0.72820  1.0000
  C   C243      1.0  0.03124  0.57326  0.78134  1.0000
  N   N25       1.0  0.17545  0.65381  0.52606  1.0000
  H   H386      1.0  0.01895  0.54146  0.70133  1.0000
  Fe  Fe53      1.0  0.07684  0.55265  0.95543  1.0000
  H   H387      1.0  0.17310  0.61914  0.51933  1.0000
  C   C244      1.0  0.05299  0.61651  0.51150  1.0000
  H   H388      1.0  0.04424  0.63271  0.51691  1.0000
  C   C245      1.0  0.19156  0.65037  0.54871  1.0000
  H   H389      1.0  0.15306  0.63199  0.54211  1.0000
  H   H390      1.0  0.16927  0.64533  0.75190  1.0000
  C   C246      1.0  0.05744  0.60645  0.55839  1.0000
  S   S98       1.0  0.04262  0.54116  0.96100  1.0000
  H   H391      1.0  0.18272  0.46988  0.96999  1.0000
  H   H392      1.0  0.03577  0.58902  0.95812  1.0000
  H   H393      1.0  0.05914  0.53829  0.79510  1.0000
  H   H394      1.0  0.25885  0.37485  0.87479  1.0000
  C   C247      1.0  0.25699  0.43762  0.72582  1.0000
  H   H395      1.0  0.22645  0.65097  0.77740  1.0000
  H   H396      1.0  0.19324  0.63125  0.76765  1.0000
  N   N26       1.0  0.26332  0.36584  0.91648  1.0000
  H   H397      1.0  0.14780  0.67667  0.51493  1.0000
  N   N27       1.0  0.19767  0.66410  0.75489  1.0000
  C   C248      1.0  0.26300  0.34742  0.56377  1.0000
  H   H398      1.0  0.20172  0.66462  0.55136  1.0000
  H   H399      1.0  0.23347  0.34915  0.91507  1.0000
  S   S99       1.0  0.25587  0.46111  0.57029  1.0000
  H   H400      1.0  0.25725  0.40015  0.63941  1.0000
  Fe  Fe54      1.0  0.26087  0.43520  0.60220  1.0000
  H   H401      1.0  0.19900  0.64194  0.49604  1.0000
  Fe  Fe55      1.0  0.26230  0.43358  0.54021  1.0000
  H   H402      1.0  0.26414  0.36420  0.95996  1.0000
  H   H403      1.0  0.22789  0.67837  0.76550  1.0000
  C   C249      1.0  0.25173  0.34562  0.91322  1.0000
  H   H404      1.0  0.19237  0.69943  0.14746  1.0000
  H   H405      1.0  0.20375  0.99361  0.27604  1.0000
  C   C250      1.0  0.26258  0.80387  0.25442  1.0000
  H   H406      1.0  0.24888  0.86770  0.06511  1.0000
  S   S100      1.0  0.24743  0.94275  0.99918  1.0000
  H   H407      1.0  0.23393  0.94548  0.23049  1.0000
  H   H408      1.0  0.24578  0.81286  0.25516  1.0000
  S   S101      1.0  0.22680  0.93030  0.35622  1.0000
  C   C251      1.0  0.26348  0.80778  0.08891  1.0000
  H   H409      1.0  0.24692  0.75362  0.26983  1.0000
  S   S102      1.0  0.22253  0.92899  0.28989  1.0000
  H   H410      1.0  0.23705  0.89423  0.18287  1.0000
  S   S103      1.0  0.25245  0.96527  0.32015  1.0000
  Fe  Fe56      1.0  0.23460  0.90567  0.32293  1.0000
  S   S104      1.0  0.22274  0.87180  0.32777  1.0000
  H   H411      1.0  0.26097  0.90107  0.43849  1.0000
  C   C252      1.0  0.19345  0.98412  0.38049  1.0000
  H   H412      1.0  0.17692  0.96834  0.01516  1.0000
  C   C253      1.0  0.24070  0.71455  0.98808  1.0000
  C   C254      1.0  0.17071  0.68274  0.12087  1.0000
  S   S105      1.0  0.17924  0.69477  0.09088  1.0000
  N   N28       1.0  0.20026  0.99295  0.01537  1.0000
  H   H413      1.0  0.22175  0.95264  0.44787  1.0000
  C   C255      1.0  0.24682  0.85739  0.15233  1.0000
  C   C256      1.0  0.23165  0.79200  0.00364  1.0000
  S   S106      1.0  0.22653  0.71399  0.27285  1.0000
  Fe  Fe57      1.0  0.21812  0.95441  0.32331  1.0000
  C   C257      1.0  0.26433  0.84930  0.32496  1.0000
  Fe  Fe58      1.0  0.22805  0.75981  0.08833  1.0000
  C   C258      1.0  0.16861  0.68572  0.26102  1.0000
  S   S107      1.0  0.22051  0.79636  0.08103  1.0000
  Fe  Fe59      1.0  0.20900  0.71493  0.09273  1.0000
  C   C259      1.0  0.23180  0.71396  0.46067  1.0000
  C   C260      1.0  0.18339  0.01110  0.02214  1.0000
  H   H414      1.0  0.22441  0.97109  0.03616  1.0000
  S   S108      1.0  0.23508  0.71533  0.40578  1.0000
  C   C261      1.0  0.26058  0.77264  0.97727  1.0000
  C   C262      1.0  0.25953  0.76746  0.02541  1.0000
  S   S109      1.0  0.21633  0.74097  0.12344  1.0000
  S   S110      1.0  0.21696  0.73560  0.05735  1.0000
  C   C263      1.0  0.24822  0.80846  0.33414  1.0000
  H   H415      1.0  0.19631  0.98717  0.42383  1.0000
  S   S111      1.0  0.24220  0.94997  0.13220  1.0000
  H   H416      1.0  0.20694  0.97144  0.37902  1.0000
  C   C264      1.0  0.21161  0.98483  0.04046  1.0000
  C   C265      1.0  0.24793  0.85488  0.40479  1.0000
  H   H417      1.0  0.18071  0.98046  0.98290  1.0000
  H   H418      1.0  0.24922  0.75341  0.02265  1.0000
  C   C266      1.0  0.25249  0.94768  0.16572  1.0000
  C   C267      1.0  0.23909  0.71266  0.24105  1.0000
  H   H419      1.0  0.19975  0.99579  0.24023  1.0000
  N   N29       1.0  0.24939  0.87876  0.40858  1.0000
  S   S112      1.0  0.25448  0.91486  0.06849  1.0000
  C   C268      1.0  0.23622  0.71723  0.19234  1.0000
  C   C269      1.0  0.22610  0.71642  0.21761  1.0000
  S   S113      1.0  0.26060  0.69228  0.33706  1.0000
  H   H420      1.0  0.23919  0.95340  0.40306  1.0000
  H   H421      1.0  0.22612  0.72029  0.17439  1.0000
  H   H422      1.0  0.20826  0.71916  0.21899  1.0000
  S   S114      1.0  0.24288  0.69673  0.09451  1.0000
  H   H423      1.0  0.24087  0.78119  0.46962  1.0000
  H   H424      1.0  0.25605  0.77425  0.29237  1.0000
  H   H425      1.0  0.21409  0.71599  0.45692  1.0000
  H   H426      1.0  0.22960  0.98769  0.99138  1.0000
  Fe  Fe60      1.0  0.25598  0.71890  0.36885  1.0000
  Fe  Fe61      1.0  0.25141  0.71930  0.06154  1.0000
  S   S115      1.0  0.18862  0.97977  0.32514  1.0000
  H   H427      1.0  0.22924  0.71427  0.00454  1.0000
  H   H428      1.0  0.24186  0.79282  0.33781  1.0000
  H   H429      1.0  0.23332  0.78399  0.22292  1.0000
  H   H430      1.0  0.22764  0.80394  0.98715  1.0000
  C   C270      1.0  0.24158  0.84809  0.32815  1.0000
  C   C271      1.0  0.23359  0.82760  0.33271  1.0000
  C   C272      1.0  0.25567  0.89196  0.13440  1.0000
  H   H431      1.0  0.22734  0.90831  0.41019  1.0000
  H   H432      1.0  0.20170  0.96098  0.99642  1.0000
  H   H433      1.0  0.17068  0.00558  0.03589  1.0000
  H   H434      1.0  0.21600  0.82655  0.33532  1.0000
  H   H435      1.0  0.22716  0.80048  0.02314  1.0000
  C   C273      1.0  0.23956  0.94955  0.44624  1.0000
  H   H436      1.0  0.22061  0.77844  0.00103  1.0000
  C   C274      1.0  0.25305  0.85110  0.07190  1.0000
  H   H437      1.0  0.21591  0.88438  0.42270  1.0000
  Fe  Fe62      1.0  0.25070  0.72383  0.12317  1.0000
  C   C275      1.0  0.24167  0.81455  0.08107  1.0000
  C   C276      1.0  0.23654  0.83628  0.07263  1.0000
  C   C277      1.0  0.24938  0.94973  0.42076  1.0000
  H   H438      1.0  0.21887  0.88765  0.38694  1.0000
  H   H439      1.0  0.24987  0.84508  0.16861  1.0000
  H   H440      1.0  0.21971  0.84166  0.06651  1.0000
  H   H441      1.0  0.15994  0.68397  0.24114  1.0000
  Fe  Fe63      1.0  0.25058  0.71882  0.30740  1.0000
  C   C278      1.0  0.18185  0.99138  0.35716  1.0000
  C   C279      1.0  0.26208  0.70878  0.23899  1.0000
  C   C280      1.0  0.21666  0.00100  0.99694  1.0000
  H   H442      1.0  0.25072  0.84878  0.13274  1.0000
  H   H443      1.0  0.23791  0.89847  0.13359  1.0000
  H   H444      1.0  0.22877  0.86281  0.15186  1.0000
  H   H445      1.0  0.26448  0.90474  0.38917  1.0000
  S   S116      1.0  0.24269  0.74464  0.33928  1.0000
  C   C281      1.0  0.18940  0.97488  0.00193  1.0000
  C   C282      1.0  0.23761  0.94774  0.18719  1.0000
  C   C283      1.0  0.24547  0.94550  0.21405  1.0000
  H   H446      1.0  0.25556  0.77508  0.04547  1.0000
  C   C284      1.0  0.18742  0.99312  0.40588  1.0000
  H   H447      1.0  0.21995  0.94941  0.18303  1.0000
  H   H448      1.0  0.24917  0.75787  0.22059  1.0000
  H   H449      1.0  0.25740  0.87580  0.19989  1.0000
  C   C285      1.0  0.24633  0.71310  0.43880  1.0000
  C   C286      1.0  0.26314  0.88679  0.38708  1.0000
  H   H450      1.0  0.22013  0.99798  0.05103  1.0000
  C   C287      1.0  0.20218  0.00547  0.25911  1.0000
  H   H451      1.0  0.15911  0.00266  0.24661  1.0000
  C   C288      1.0  0.25933  0.71440  0.19053  1.0000
  H   H452      1.0  0.23806  0.84809  0.42094  1.0000
  H   H453      1.0  0.26465  0.84571  0.40479  1.0000
  N   N30       1.0  0.26030  0.87621  0.15656  1.0000
  H   H454      1.0  0.17901  0.68310  0.18912  1.0000
  H   H455      1.0  0.23975  0.85125  0.38510  1.0000
  C   C289      1.0  0.24825  0.77155  0.27225  1.0000
  N   N31       1.0  0.26130  0.78000  0.25035  1.0000
  Fe  Fe64      1.0  0.25772  0.93789  0.28941  1.0000
  C   C290      1.0  0.22689  0.89026  0.40706  1.0000
  N   N32       1.0  0.25528  0.78353  0.00354  1.0000
  C   C291      1.0  0.25046  0.77578  0.22402  1.0000
  C   C292      1.0  0.25959  0.88316  0.43524  1.0000
  C   C293      1.0  0.16993  0.00968  0.40811  1.0000
  C   C294      1.0  0.25467  0.88725  0.18264  1.0000
  H   H456      1.0  0.23108  0.77970  0.27268  1.0000
  S   S117      1.0  0.26293  0.74454  0.09057  1.0000
  H   H457      1.0  0.17991  0.69905  0.25901  1.0000
  H   H458      1.0  0.19976  0.97856  0.05481  1.0000
  C   C295      1.0  0.16450  0.00810  0.35933  1.0000
  C   C296      1.0  0.17978  0.68795  0.14609  1.0000
  H   H459      1.0  0.25996  0.78164  0.20690  1.0000
  C   C297      1.0  0.26353  0.71239  0.99331  1.0000
  H   H460      1.0  0.25697  0.75519  0.47060  1.0000
  H   H461      1.0  0.16313  0.00056  0.28252  1.0000
  Fe  Fe65      1.0  0.26152  0.93942  0.35111  1.0000
  H   H462      1.0  0.25590  0.88382  0.36671  1.0000
  H   H463      1.0  0.24957  0.87756  0.45205  1.0000
  H   H464      1.0  0.20223  0.01028  0.47255  1.0000
  H   H465      1.0  0.25987  0.88423  0.11446  1.0000
  C   C298      1.0  0.25267  0.94535  0.46950  1.0000
  H   H466      1.0  0.15585  0.69132  0.27609  1.0000
  H   H467      1.0  0.20865  0.00713  0.97774  1.0000
  H   H468      1.0  0.26571  0.81033  0.02782  1.0000
  C   C299      1.0  0.25773  0.77316  0.47409  1.0000
  H   H469      1.0  0.26503  0.90116  0.18666  1.0000
  Fe  Fe66      1.0  0.26559  0.93988  0.09814  1.0000
  H   H470      1.0  0.26556  0.90632  0.13695  1.0000
  H   H471      1.0  0.20426  0.68066  0.29431  1.0000
  H   H472      1.0  0.14356  0.68144  0.01620  1.0000
  H   H473      1.0  0.25422  0.77302  0.54247  1.0000
  C   C300      1.0  0.20949  0.00464  0.49236  1.0000
  C   C301      1.0  0.25896  0.95003  0.91988  1.0000
  H   H474      1.0  0.23398  0.90142  0.67091  1.0000
  S   S118      1.0  0.23976  0.94426  0.50098  1.0000
  H   H475      1.0  0.23743  0.94597  0.73393  1.0000
  H   H476      1.0  0.24842  0.75173  0.51886  1.0000
  S   S119      1.0  0.23481  0.93059  0.85774  1.0000
  C   C302      1.0  0.24785  0.85027  0.83071  1.0000
  H   H477      1.0  0.24979  0.75910  0.97305  1.0000
  S   S120      1.0  0.22832  0.93194  0.79169  1.0000
  H   H478      1.0  0.16794  0.97421  0.51053  1.0000
  Fe  Fe67      1.0  0.22571  0.95615  0.82656  1.0000
  Fe  Fe68      1.0  0.24095  0.90717  0.82284  1.0000
  S   S121      1.0  0.22869  0.87340  0.82655  1.0000
  H   H479      1.0  0.23229  0.86854  0.92038  1.0000
  H   H480      1.0  0.25710  0.84356  0.65914  1.0000
  H   H481      1.0  0.17607  0.68716  0.68997  1.0000
  C   C303      1.0  0.26422  0.71513  0.73912  1.0000
  Fe  Fe69      1.0  0.25383  0.72562  0.80856  1.0000
  H   H482      1.0  0.21493  0.71809  0.95742  1.0000
  H   H483      1.0  0.23102  0.95406  0.94639  1.0000
  C   C304      1.0  0.25518  0.81187  0.84338  1.0000
  C   C305      1.0  0.17074  0.68271  0.62166  1.0000
  C   C306      1.0  0.22388  0.78811  0.78408  1.0000
  S   S122      1.0  0.22939  0.72448  0.77362  1.0000
  C   C307      1.0  0.25199  0.94361  0.66742  1.0000
  H   H484      1.0  0.22065  0.94597  0.68774  1.0000
  Fe  Fe70      1.0  0.22811  0.75873  0.58671  1.0000
  H   H485      1.0  0.18116  0.98384  0.77138  1.0000
  S   S123      1.0  0.21993  0.79501  0.57854  1.0000
  Fe  Fe71      1.0  0.20909  0.71414  0.59245  1.0000
  S   S124      1.0  0.24289  0.69583  0.59408  1.0000
  Fe  Fe72      1.0  0.25108  0.72324  0.62208  1.0000
  C   C308      1.0  0.24795  0.94491  0.71643  1.0000
  H   H486      1.0  0.23335  0.89516  0.90568  1.0000
  H   H487      1.0  0.19892  0.98072  0.92988  1.0000
  H   H488      1.0  0.26371  0.90207  0.93750  1.0000
  S   S125      1.0  0.21674  0.74048  0.62248  1.0000
  S   S126      1.0  0.21678  0.73412  0.55643  1.0000
  H   H489      1.0  0.20824  0.79852  0.77981  1.0000
  C   C309      1.0  0.24923  0.76976  0.52119  1.0000
  H   H490      1.0  0.25266  0.81954  0.78449  1.0000
  N   N33       1.0  0.24267  0.87443  0.64378  1.0000
  Fe  Fe73      1.0  0.25783  0.72290  0.87019  1.0000
  N   N34       1.0  0.24104  0.79145  0.76400  1.0000
  H   H491      1.0  0.21983  0.77068  0.78428  1.0000
  C   C310      1.0  0.26297  0.80656  0.58433  1.0000
  C   C311      1.0  0.18116  0.97972  0.49757  1.0000
  H   H492      1.0  0.24885  0.81073  0.50345  1.0000
  S   S127      1.0  0.26028  0.96617  0.82235  1.0000
  C   C312      1.0  0.19222  0.98923  0.91215  1.0000
  C   C313      1.0  0.24871  0.94987  0.94505  1.0000
  C   C314      1.0  0.23768  0.72179  0.69264  1.0000
  C   C315      1.0  0.22814  0.72362  0.71832  1.0000
  C   C316      1.0  0.26562  0.80190  0.50603  1.0000
  S   S128      1.0  0.17930  0.69418  0.59137  1.0000
  H   H493      1.0  0.22731  0.72418  0.67482  1.0000
  H   H494      1.0  0.21049  0.72782  0.72004  1.0000
  H   H495      1.0  0.24924  0.95488  0.90215  1.0000
  H   H496      1.0  0.17329  0.98480  0.47786  1.0000
  C   C317      1.0  0.17057  0.68104  0.67067  1.0000
  H   H497      1.0  0.24879  0.87813  0.68650  1.0000
  C   C318      1.0  0.17476  0.99516  0.75497  1.0000
  Fe  Fe74      1.0  0.26195  0.93504  0.53695  1.0000
  S   S129      1.0  0.26306  0.74351  0.58878  1.0000
  H   H498      1.0  0.23071  0.82595  0.76045  1.0000
  H   H499      1.0  0.22865  0.71280  0.50397  1.0000
  C   C319      1.0  0.26430  0.88215  0.63687  1.0000
  H   H500      1.0  0.19322  0.96525  0.49348  1.0000
  S   S130      1.0  0.19741  0.98270  0.83037  1.0000
  H   H501      1.0  0.21513  0.97622  0.53336  1.0000
  C   C320      1.0  0.24037  0.83071  0.84011  1.0000
  H   H502      1.0  0.21114  0.00369  0.54667  1.0000
  H   H503      1.0  0.16288  0.00920  0.80362  1.0000
  H   H504      1.0  0.24981  0.84318  0.62394  1.0000
  C   C321      1.0  0.23294  0.78539  0.73680  1.0000
  H   H505      1.0  0.22306  0.83015  0.84496  1.0000
  H   H506      1.0  0.24932  0.79699  0.85101  1.0000
  S   S131      1.0  0.24705  0.75041  0.84188  1.0000
  H   H507      1.0  0.18974  0.70247  0.64799  1.0000
  C   C322      1.0  0.26287  0.70939  0.49232  1.0000
  N   N35       1.0  0.26498  0.77793  0.50208  1.0000
  Fe  Fe75      1.0  0.26376  0.93996  0.78994  1.0000
  C   C323      1.0  0.24113  0.81293  0.57625  1.0000
  C   C324      1.0  0.23592  0.83411  0.56607  1.0000
  C   C325      1.0  0.23262  0.71662  0.96136  1.0000
  Fe  Fe76      1.0  0.25125  0.71788  0.56051  1.0000
  H   H508      1.0  0.19405  0.69814  0.74383  1.0000
  H   H509      1.0  0.21908  0.83913  0.55966  1.0000
  H   H510      1.0  0.24823  0.86498  0.55573  1.0000
  C   C326      1.0  0.25239  0.84883  0.56398  1.0000
  C   C327      1.0  0.19006  0.99234  0.86319  1.0000
  S   S132      1.0  0.26114  0.69747  0.83682  1.0000
  S   S133      1.0  0.25066  0.91168  0.56743  1.0000
  C   C328      1.0  0.19892  0.98169  0.88631  1.0000
  H   H511      1.0  0.26359  0.90039  0.63714  1.0000
  C   C329      1.0  0.26058  0.71707  0.69018  1.0000
  S   S134      1.0  0.23960  0.94277  0.63493  1.0000
  H   H512      1.0  0.22399  0.90066  0.62265  1.0000
  H   H513      1.0  0.21066  0.96747  0.88433  1.0000
  C   C330      1.0  0.23849  0.94497  0.69027  1.0000
  C   C331      1.0  0.24145  0.72061  0.74163  1.0000
  S   S135      1.0  0.23626  0.71947  0.90657  1.0000
  C   C332      1.0  0.23606  0.88312  0.67076  1.0000
  H   H514      1.0  0.22001  0.87732  0.67694  1.0000
  H   H515      1.0  0.16962  0.68860  0.53358  1.0000
  H   H516      1.0  0.22218  0.99073  0.48810  1.0000
  H   H517      1.0  0.25846  0.81794  0.74918  1.0000
  C   C333      1.0  0.24728  0.71674  0.93969  1.0000
  C   C334      1.0  0.24457  0.85014  0.64396  1.0000
  C   C335      1.0  0.24589  0.81475  0.76445  1.0000
  H   H518      1.0  0.26634  0.84229  0.92125  1.0000
  C   C336      1.0  0.22576  0.88237  0.62347  1.0000
  C   C337      1.0  0.26119  0.94417  0.96837  1.0000
  Fe  Fe77      1.0  0.26164  0.93541  0.59886  1.0000
  H   H519      1.0  0.23022  0.87620  0.60286  1.0000
  C   C338      1.0  0.17831  0.68983  0.64685  1.0000
  H   H520      1.0  0.26401  0.87521  0.95159  1.0000
  C   C339      1.0  0.17672  0.00754  0.91506  1.0000
  H   H521      1.0  0.20920  0.87692  0.62805  1.0000
  H   H522      1.0  0.21773  0.79586  0.73083  1.0000
  H   H523      1.0  0.19002  0.98510  0.55055  1.0000
  C   C340      1.0  0.24002  0.71221  0.48734  1.0000
  H   H524      1.0  0.22950  0.79224  0.80487  1.0000
  H   H525      1.0  0.15818  0.99025  0.74856  1.0000
  H   H526      1.0  0.22873  0.76800  0.73612  1.0000
  H   H527      1.0  0.24571  0.78699  0.72119  1.0000
  H   H528      1.0  0.18611  0.99236  0.73757  1.0000
  H   H529      1.0  0.22846  0.84365  0.64858  1.0000
  H   H530      1.0  0.17762  0.69157  0.77184  1.0000
  H   H531      1.0  0.23533  0.87107  0.88455  1.0000
  N   N36       1.0  0.19222  0.99790  0.51049  1.0000
  H   H532      1.0  0.23215  0.77779  0.51824  1.0000
  C   C341      1.0  0.24037  0.87769  0.90459  1.0000
  H   H533      1.0  0.25848  0.75975  0.76995  1.0000
  H   H534      1.0  0.16965  0.68376  0.73818  1.0000
  C   C342      1.0  0.18415  0.68532  0.75203  1.0000
  C   C343      1.0  0.26147  0.77743  0.77070  1.0000
  H   H535      1.0  0.25816  0.78432  0.96023  1.0000
  N   N37       1.0  0.26476  0.87581  0.90810  1.0000
  C   C344      1.0  0.20256  0.99042  0.53643  1.0000
  C   C345      1.0  0.17482  0.01088  0.86619  1.0000
  Fe  Fe78      1.0  0.43031  0.09962  0.22166  1.0000
  S   S136      1.0  0.46455  0.11152  0.21900  1.0000
  Fe  Fe79      1.0  0.38101  0.11554  0.21980  1.0000
  S   S137      1.0  0.37043  0.08126  0.22178  1.0000
  S   S138      1.0  0.35517  0.14463  0.21748  1.0000
  Fe  Fe80      1.0  0.39744  0.07602  0.25351  1.0000
  Fe  Fe81      1.0  0.39715  0.07311  0.19140  1.0000
  S   S139      1.0  0.40605  0.11102  0.25395  1.0000
  S   S140      1.0  0.40621  0.10770  0.18763  1.0000
  Fe  Fe82      1.0  0.27863  0.24403  0.08071  1.0000
  C   C346      1.0  0.45454  0.04488  0.38681  1.0000
  S   S141      1.0  0.28995  0.27839  0.08168  1.0000
  Fe  Fe83      1.0  0.29620  0.19635  0.09052  1.0000
  H   H536      1.0  0.43928  0.07485  0.10542  1.0000
  S   S142      1.0  0.32539  0.17159  0.09808  1.0000
  H   H537      1.0  0.35759  0.01272  0.42061  1.0000
  C   C347      1.0  0.27218  0.21737  0.44848  1.0000
  H   H538      1.0  0.43029  0.10771  0.13410  1.0000
  C   C348      1.0  0.39221  0.06656  0.32365  1.0000
  S   S143      1.0  0.29323  0.21704  0.05313  1.0000
  S   S144      1.0  0.28517  0.22415  0.11825  1.0000
  H   H539      1.0  0.45453  0.11965  0.12296  1.0000
  H   H540      1.0  0.32415  0.16513  0.00976  1.0000
  H   H541      1.0  0.46322  0.08676  0.09354  1.0000
  H   H542      1.0  0.43042  0.08036  0.40536  1.0000
  H   H543      1.0  0.40281  0.03305  0.10146  1.0000
  H   H544      1.0  0.29209  0.26902  0.14551  1.0000
  H   H545      1.0  0.38842  0.10034  0.31131  1.0000
  H   H546      1.0  0.48711  0.09621  0.16206  1.0000
  H   H547      1.0  0.37571  0.13982  0.04266  1.0000
  S   S145      1.0  0.38544  0.09444  0.41008  1.0000
  C   C349      1.0  0.39090  0.06075  0.37232  1.0000
  C   C350      1.0  0.48430  0.08823  0.14207  1.0000
  H   H548      1.0  0.30918  0.01899  0.44098  1.0000
  H   H549      1.0  0.34283  0.14725  0.27136  1.0000
  C   C351      1.0  0.48651  0.06992  0.22112  1.0000
  H   H550      1.0  0.49384  0.07180  0.14233  1.0000
  H   H551      1.0  0.45584  0.09400  0.35564  1.0000
  H   H552      1.0  0.49152  0.09832  0.12650  1.0000
  H   H553      1.0  0.49311  0.05929  0.37133  1.0000
  S   S146      1.0  0.39341  0.05085  0.15476  1.0000
  S   S147      1.0  0.47699  0.04500  0.46314  1.0000
  H   H554      1.0  0.30058  0.01508  0.39166  1.0000
  C   C352      1.0  0.44864  0.08131  0.40634  1.0000
  H   H555      1.0  0.50422  0.03769  0.22171  1.0000
  C   C353      1.0  0.45716  0.07651  0.10979  1.0000
  N   N38       1.0  0.46043  0.08638  0.13685  1.0000
  C   C354      1.0  0.28264  0.26878  0.16467  1.0000
  H   H556      1.0  0.43389  0.07053  0.15429  1.0000
  H   H557      1.0  0.45983  0.03790  0.40684  1.0000
  H   H558      1.0  0.27186  0.30445  0.13558  1.0000
  H   H559      1.0  0.28891  0.21017  0.20947  1.0000
  N   N39       1.0  0.45985  0.06795  0.38465  1.0000
  C   C355      1.0  0.39410  0.06349  0.12293  1.0000
  C   C356      1.0  0.40028  0.06050  0.07436  1.0000
  H   H560      1.0  0.39128  0.04962  0.38913  1.0000
  H   H561      1.0  0.40425  0.05044  0.05668  1.0000
  H   H562      1.0  0.45380  0.07938  0.17818  1.0000
  H   H563      1.0  0.49031  0.06207  0.40727  1.0000
  C   C357      1.0  0.34604  0.15167  0.18441  1.0000
  C   C358      1.0  0.35406  0.13927  0.16215  1.0000
  C   C359      1.0  0.34752  0.14552  0.13584  1.0000
  C   C360      1.0  0.33250  0.16398  0.13156  1.0000
  C   C361      1.0  0.32389  0.17607  0.15383  1.0000
  C   C362      1.0  0.33074  0.16999  0.18021  1.0000
  H   H564      1.0  0.36534  0.12487  0.16519  1.0000
  H   H565      1.0  0.35414  0.13599  0.11878  1.0000
  H   H566      1.0  0.31234  0.19034  0.15072  1.0000
  H   H567      1.0  0.32438  0.17965  0.19729  1.0000
  C   C363      1.0  0.38995  0.08625  0.12045  1.0000
  C   C364      1.0  0.39123  0.09614  0.09513  1.0000
  H   H568      1.0  0.38542  0.09626  0.13794  1.0000
  H   H569      1.0  0.38808  0.11379  0.09348  1.0000
  H   H570      1.0  0.45987  0.06674  0.34111  1.0000
  H   H571      1.0  0.39528  0.03478  0.34236  1.0000
  S   S148      1.0  0.39821  0.09646  0.04072  1.0000
  H   H572      1.0  0.35244  0.11045  0.05559  1.0000
  S   S149      1.0  0.27043  0.22410  0.26024  1.0000
  C   C365      1.0  0.39305  0.05237  0.34580  1.0000
  C   C366      1.0  0.38780  0.08343  0.37693  1.0000
  H   H573      1.0  0.38439  0.11523  0.35821  1.0000
  H   H574      1.0  0.29661  0.32417  0.08233  1.0000
  H   H575      1.0  0.32439  0.14091  0.29745  1.0000
  H   H576      1.0  0.28983  0.21661  0.44506  1.0000
  C   C367      1.0  0.38684  0.09766  0.35480  1.0000
  H   H577      1.0  0.45445  0.07557  0.42668  1.0000
  H   H578      1.0  0.33413  0.11562  0.99796  1.0000
  S   S150      1.0  0.41617  0.03985  0.43994  1.0000
  C   C368      1.0  0.48407  0.06895  0.38754  1.0000
  C   C369      1.0  0.38916  0.08927  0.32823  1.0000
  H   H579      1.0  0.48864  0.08618  0.38685  1.0000
  N   N40       1.0  0.34172  0.13781  0.03024  1.0000
  C   C370      1.0  0.36025  0.15066  0.03889  1.0000
  C   C371      1.0  0.32154  0.15283  0.02549  1.0000
  C   C372      1.0  0.33754  0.12203  0.05157  1.0000
  C   C373      1.0  0.34764  0.12565  0.00497  1.0000
  H   H580      1.0  0.43384  0.07628  0.35554  1.0000
  H   H581      1.0  0.36388  0.16282  0.02343  1.0000
  H   H582      1.0  0.32363  0.11209  0.04589  1.0000
  S   S151      1.0  0.26802  0.22257  0.39375  1.0000
  H   H583      1.0  0.27200  0.20401  0.16453  1.0000
  H   H584      1.0  0.46293  0.03423  0.37096  1.0000
  H   H585      1.0  0.30719  0.14372  0.01902  1.0000
  C   C374      1.0  0.27891  0.32280  0.08162  1.0000
  C   C375      1.0  0.49536  0.06593  0.46592  1.0000
  C   C376      1.0  0.45183  0.07231  0.15757  1.0000
  H   H586      1.0  0.33324  0.13061  0.07102  1.0000
  Fe  Fe84      1.0  0.40488  0.07583  0.00290  1.0000
  N   N41       1.0  0.31682  0.17265  0.27954  1.0000
  C   C377      1.0  0.30154  0.16439  0.25893  1.0000
  C   C378      1.0  0.33288  0.15445  0.28851  1.0000
  C   C379      1.0  0.30404  0.18160  0.30304  1.0000
  C   C380      1.0  0.32883  0.19014  0.26765  1.0000
  C   C381      1.0  0.27086  0.30196  0.08011  1.0000
  H   H587      1.0  0.28924  0.17776  0.25172  1.0000
  H   H588      1.0  0.29216  0.15115  0.26704  1.0000
  C   C382      1.0  0.50906  0.10017  0.21514  1.0000
  H   H589      1.0  0.35113  0.13699  0.98851  1.0000
  H   H590      1.0  0.34476  0.16014  0.30391  1.0000
  H   H591      1.0  0.29464  0.16890  0.31240  1.0000
  H   H592      1.0  0.29178  0.19539  0.29714  1.0000
  H   H593      1.0  0.31504  0.18809  0.31893  1.0000
  H   H594      1.0  0.34050  0.19687  0.28252  1.0000
  H   H595      1.0  0.31712  0.20407  0.26056  1.0000
  H   H596      1.0  0.33866  0.18385  0.24988  1.0000
  C   C383      1.0  0.39924  0.05064  0.09978  1.0000
  C   C384      1.0  0.45211  0.07663  0.35806  1.0000
  C   C385      1.0  0.50561  0.05514  0.21974  1.0000
  S   S152      1.0  0.42079  0.04124  0.00189  1.0000
  C   C386      1.0  0.39642  0.08332  0.07200  1.0000
  H   H597      1.0  0.32441  0.02980  0.12908  1.0000
  C   C387      1.0  0.27421  0.33501  0.32699  1.0000
  H   H598      1.0  0.31654  0.16221  0.04416  1.0000
  H   H599      1.0  0.29163  0.32925  0.32733  1.0000
  C   C388      1.0  0.48817  0.09249  0.21875  1.0000
  H   H600      1.0  0.45168  0.09895  0.40498  1.0000
  S   S153      1.0  0.39511  0.05515  0.29078  1.0000
  H   H601      1.0  0.36278  0.11416  0.00788  1.0000
  S   S154      1.0  0.42326  0.06431  0.22314  1.0000
  H   H602      1.0  0.45022  0.11627  0.15847  1.0000
  C   C389      1.0  0.44836  0.10848  0.13813  1.0000
  H   H603      1.0  0.34762  0.03732  0.14910  1.0000
  H   H604      1.0  0.29244  0.27662  0.18073  1.0000
  H   H605      1.0  0.28517  0.20418  0.99428  1.0000
  H   H606      1.0  0.31073  0.15756  0.24091  1.0000
  C   C390      1.0  0.33552  0.02468  0.14643  1.0000
  H   H607      1.0  0.43641  0.04348  0.38445  1.0000
  H   H608      1.0  0.47059  0.06377  0.22410  1.0000
  Fe  Fe85      1.0  0.39774  0.07293  0.44508  1.0000
  H   H609      1.0  0.46595  0.05977  0.10812  1.0000
  H   H610      1.0  0.46057  0.05551  0.15744  1.0000
  H   H611      1.0  0.35646  0.15991  0.05802  1.0000
  C   C391      1.0  0.27473  0.20206  0.97668  1.0000
  C   C392      1.0  0.27111  0.21278  0.20674  1.0000
  H   H612      1.0  0.33531  0.03043  0.40649  1.0000
  H   H613      1.0  0.27050  0.31234  0.17052  1.0000
  H   H614      1.0  0.28188  0.25126  0.17020  1.0000
  H   H615      1.0  0.32529  0.02513  0.16494  1.0000
  H   H616      1.0  0.51046  0.11762  0.21312  1.0000
  C   C393      1.0  0.34328  0.01331  0.40611  1.0000
  Fe  Fe86      1.0  0.44012  0.05145  0.47111  1.0000
  H   H617      1.0  0.37307  0.01497  0.11913  1.0000
  S   S155      1.0  0.42287  0.08531  0.47405  1.0000
  Fe  Fe87      1.0  0.41624  0.09438  0.72259  1.0000
  S   S156      1.0  0.45127  0.10387  0.72691  1.0000
  Fe  Fe88      1.0  0.36817  0.11296  0.71423  1.0000
  S   S157      1.0  0.35525  0.07973  0.71731  1.0000
  S   S158      1.0  0.34378  0.14276  0.70841  1.0000
  Fe  Fe89      1.0  0.37961  0.07455  0.75202  1.0000
  C   C394      1.0  0.50334  0.10354  0.47601  1.0000
  S   S159      1.0  0.39027  0.10869  0.75120  1.0000
  S   S160      1.0  0.39539  0.10228  0.68560  1.0000
  C   C395      1.0  0.33157  0.12799  0.88750  1.0000
  H   H618      1.0  0.50353  0.11671  0.96994  1.0000
  S   S161      1.0  0.29106  0.28525  0.57242  1.0000
  Fe  Fe90      1.0  0.29333  0.20300  0.58501  1.0000
  H   H619      1.0  0.49773  0.10850  0.72738  1.0000
  S   S162      1.0  0.32136  0.17613  0.58911  1.0000
  H   H620      1.0  0.29502  0.28379  0.72917  1.0000
  H   H621      1.0  0.33010  0.13271  0.56353  1.0000
  H   H622      1.0  0.45199  0.05814  0.83959  1.0000
  Fe  Fe91      1.0  0.38378  0.06868  0.69057  1.0000
  S   S163      1.0  0.28878  0.22479  0.54861  1.0000
  S   S164      1.0  0.28694  0.23087  0.61468  1.0000
  H   H623      1.0  0.47558  0.08682  0.78217  1.0000
  H   H624      1.0  0.33836  0.11596  0.49156  1.0000
  H   H625      1.0  0.44611  0.11669  0.81900  1.0000
  Fe  Fe92      1.0  0.39971  0.07806  0.94108  1.0000
  H   H626      1.0  0.32787  0.18313  0.87697  1.0000
  H   H627      1.0  0.48028  0.06420  0.80490  1.0000
  C   C396      1.0  0.37775  0.06914  0.82259  1.0000
  S   S165      1.0  0.37710  0.06946  0.97404  1.0000
  S   S166      1.0  0.37344  0.05678  0.79069  1.0000
  H   H628      1.0  0.44740  0.11177  0.62140  1.0000
  N   N42       1.0  0.44831  0.08234  0.80825  1.0000
  C   C397      1.0  0.47235  0.08126  0.80300  1.0000
  H   H629      1.0  0.29851  0.31053  0.84943  1.0000
  S   S167      1.0  0.38112  0.04529  0.65502  1.0000
  C   C398      1.0  0.38916  0.04511  0.60049  1.0000
  C   C399      1.0  0.29736  0.15987  0.74859  1.0000
  H   H630      1.0  0.33702  0.16136  0.85379  1.0000
  H   H631      1.0  0.27560  0.21393  0.66334  1.0000
  H   H632      1.0  0.31403  0.12512  0.88270  1.0000
  C   C400      1.0  0.35187  0.12490  0.50083  1.0000
  H   H633      1.0  0.33143  0.16582  0.50122  1.0000
  S   S168      1.0  0.42596  0.08807  0.97032  1.0000
  H   H634      1.0  0.45515  0.05611  0.71852  1.0000
  H   H635      1.0  0.29492  0.32972  0.55718  1.0000
  H   H636      1.0  0.45222  0.08607  0.85138  1.0000
  H   H637      1.0  0.45869  0.05123  0.61290  1.0000
  H   H638      1.0  0.43992  0.11077  0.65635  1.0000
  H   H639      1.0  0.27611  0.27584  0.50928  1.0000
  C   C401      1.0  0.27175  0.30851  0.57295  1.0000
  C   C402      1.0  0.27463  0.13116  0.76076  1.0000
  H   H640      1.0  0.29419  0.21272  0.70813  1.0000
  H   H641      1.0  0.34807  0.02535  0.88458  1.0000
  H   H642      1.0  0.48797  0.02980  0.71026  1.0000
  S   S169      1.0  0.28171  0.20065  0.89508  1.0000
  H   H643      1.0  0.38374  0.11862  0.85318  1.0000
  C   C403      1.0  0.29080  0.27421  0.78177  1.0000
  H   H644      1.0  0.30065  0.20615  0.94830  1.0000
  S   S170      1.0  0.39542  0.09183  0.54401  1.0000
  C   C404      1.0  0.33777  0.15170  0.67504  1.0000
  C   C405      1.0  0.34801  0.14105  0.65273  1.0000
  C   C406      1.0  0.34293  0.14863  0.62642  1.0000
  C   C407      1.0  0.32736  0.16671  0.62224  1.0000
  C   C408      1.0  0.31688  0.17711  0.64452  1.0000
  C   C409      1.0  0.32221  0.16977  0.67080  1.0000
  H   H645      1.0  0.35992  0.12708  0.65571  1.0000
  H   H646      1.0  0.35113  0.14047  0.60934  1.0000
  H   H647      1.0  0.30488  0.19100  0.64153  1.0000
  H   H648      1.0  0.31434  0.17825  0.68786  1.0000
  C   C410      1.0  0.37952  0.08066  0.62117  1.0000
  C   C411      1.0  0.38310  0.09083  0.59660  1.0000
  H   H649      1.0  0.37378  0.09051  0.63830  1.0000
  H   H650      1.0  0.38067  0.10854  0.59526  1.0000
  H   H651      1.0  0.48100  0.09193  0.81737  1.0000
  H   H652      1.0  0.37755  0.10212  0.80786  1.0000
  C   C412      1.0  0.38257  0.10112  0.85117  1.0000
  C   C413      1.0  0.49162  0.08449  0.96688  1.0000
  C   C414      1.0  0.47147  0.06192  0.71864  1.0000
  C   C415      1.0  0.38306  0.05785  0.62341  1.0000
  S   S171      1.0  0.42215  0.03799  0.50595  1.0000
  S   S172      1.0  0.27756  0.21460  0.76183  1.0000
  H   H653      1.0  0.44444  0.05028  0.79113  1.0000
  C   C416      1.0  0.38983  0.07821  0.57389  1.0000
  H   H654      1.0  0.35132  0.01667  0.67657  1.0000
  C   C417      1.0  0.27627  0.21478  0.70673  1.0000
  S   S173      1.0  0.41531  0.04367  0.93568  1.0000
  H   H655      1.0  0.42262  0.06474  0.65278  1.0000
  H   H656      1.0  0.28959  0.12023  0.76659  1.0000
  C   C418      1.0  0.47413  0.08421  0.72306  1.0000
  H   H657      1.0  0.47555  0.09015  0.66672  1.0000
  Fe  Fe93      1.0  0.40310  0.07125  0.50662  1.0000
  H   H658      1.0  0.35735  0.15938  0.55464  1.0000
  C   C419      1.0  0.44467  0.07525  0.83617  1.0000
  H   H659      1.0  0.32432  0.14699  0.93615  1.0000
  C   C420      1.0  0.37958  0.05595  0.84566  1.0000
  H   H660      1.0  0.33752  0.11676  0.90416  1.0000
  S   S174      1.0  0.40695  0.05989  0.72544  1.0000
  H   H661      1.0  0.35956  0.17144  0.90752  1.0000
  H   H662      1.0  0.39745  0.04539  0.55820  1.0000
  C   C421      1.0  0.32590  0.15439  0.51654  1.0000
  H   H663      1.0  0.34161  0.12289  0.86949  1.0000
  H   H664      1.0  0.26988  0.28400  0.85192  1.0000
  C   C422      1.0  0.49550  0.09130  0.72382  1.0000
  C   C423      1.0  0.43849  0.10517  0.80475  1.0000
  C   C424      1.0  0.49009  0.04699  0.71406  1.0000
  H   H665      1.0  0.42035  0.10659  0.80836  1.0000
  H   H666      1.0  0.31158  0.14637  0.50775  1.0000
  H   H667      1.0  0.28141  0.25907  0.73244  1.0000
  H   H668      1.0  0.37842  0.03843  0.84360  1.0000
  H   H669      1.0  0.30183  0.15601  0.91358  1.0000
  S   S175      1.0  0.37605  0.06241  0.47798  1.0000
  H   H670      1.0  0.44036  0.07246  0.76770  1.0000
  C   C425      1.0  0.36265  0.14939  0.53649  1.0000
  H   H671      1.0  0.31309  0.14963  0.75303  1.0000
  C   C426      1.0  0.43768  0.06771  0.78893  1.0000
  C   C427      1.0  0.39249  0.05528  0.57571  1.0000
  Fe  Fe94      1.0  0.39631  0.02991  0.47501  1.0000
  H   H672      1.0  0.49772  0.12001  0.48271  1.0000
  S   S176      1.0  0.47706  0.04274  0.96262  1.0000
  H   H673      1.0  0.39172  0.02741  0.60196  1.0000
  H   H674      1.0  0.36307  0.14364  0.91949  1.0000
  N   N43       1.0  0.45112  0.07947  0.63862  1.0000
  C   C428      1.0  0.47446  0.08112  0.64709  1.0000
  C   C429      1.0  0.45025  0.06815  0.61207  1.0000
  C   C430      1.0  0.43959  0.10177  0.63659  1.0000
  C   C431      1.0  0.44005  0.06686  0.65886  1.0000
  H   H675      1.0  0.44093  0.11102  0.78387  1.0000
  Fe  Fe95      1.0  0.27866  0.25181  0.57840  1.0000
  H   H676      1.0  0.48349  0.06460  0.64991  1.0000
  H   H677      1.0  0.43281  0.06665  0.60527  1.0000
  H   H678      1.0  0.45826  0.07727  0.59615  1.0000
  C   C432      1.0  0.28139  0.31579  0.84451  1.0000
  H   H679      1.0  0.42188  0.10112  0.63046  1.0000
  H   H680      1.0  0.42667  0.07565  0.84061  1.0000
  H   H681      1.0  0.32107  0.17491  0.92454  1.0000
  H   H682      1.0  0.44865  0.05016  0.66167  1.0000
  H   H683      1.0  0.43964  0.07540  0.67883  1.0000
  N   N44       1.0  0.27966  0.14630  0.73910  1.0000
  H   H684      1.0  0.38420  0.05497  0.88903  1.0000
  H   H685      1.0  0.41946  0.06836  0.79194  1.0000
  C   C433      1.0  0.37926  0.09177  0.82543  1.0000
  C   C434      1.0  0.33605  0.12330  0.54521  1.0000
  H   H686      1.0  0.36837  0.14914  0.88496  1.0000
  S   S177      1.0  0.38757  0.10030  0.90638  1.0000
  C   C435      1.0  0.38298  0.06527  0.87139  1.0000
  C   C436      1.0  0.38438  0.08792  0.87425  1.0000
  H   H687      1.0  0.34944  0.11079  0.55193  1.0000
  N   N45       1.0  0.34412  0.13799  0.52476  1.0000
  N   N46       1.0  0.33380  0.15122  0.89495  1.0000
  C   C437      1.0  0.32670  0.16542  0.87186  1.0000
  C   C438      1.0  0.31970  0.15747  0.91840  1.0000
  H   H688      1.0  0.27604  0.21296  0.49157  1.0000
  C   C439      1.0  0.35720  0.15405  0.90205  1.0000
  H   H689      1.0  0.28697  0.31492  0.76190  1.0000
  H   H690      1.0  0.47117  0.09127  0.48001  1.0000
  H   H691      1.0  0.30906  0.16377  0.86606  1.0000
  H   H692      1.0  0.30114  0.17201  0.73313  1.0000
  H   H693      1.0  0.36563  0.11239  0.50625  1.0000
  H   H694      1.0  0.36920  0.16066  0.52172  1.0000
  H   H695      1.0  0.48355  0.09007  0.63201  1.0000
  H   H696      1.0  0.32208  0.11437  0.53717  1.0000
  C   C440      1.0  0.28349  0.20304  0.95059  1.0000
  C   C441      1.0  0.49734  0.06197  0.96329  1.0000
  C   C442      1.0  0.28719  0.13350  0.71488  1.0000
  C   C443      1.0  0.51410  0.07633  0.71962  1.0000
  H   H697      1.0  0.31965  0.16459  0.53407  1.0000
  H   H698      1.0  0.29257  0.16929  0.76730  1.0000
  H   H699      1.0  0.30240  0.12244  0.71934  1.0000
  H   H700      1.0  0.28703  0.33472  0.64970  1.0000
  C   C444      1.0  0.27818  0.32866  0.56407  1.0000
  S   S178      1.0  0.26803  0.23872  0.83384  1.0000
  H   H701      1.0  0.37664  0.13747  0.54298  1.0000
  H   H702      1.0  0.35816  0.13544  0.48502  1.0000
  H   H703      1.0  0.34146  0.02422  0.62858  1.0000
  H   H704      1.0  0.26869  0.14040  0.77920  1.0000
  C   C445      1.0  0.27000  0.20058  0.92757  1.0000
  H   H705      1.0  0.27423  0.12320  0.70692  1.0000
  H   H706      1.0  0.29148  0.14448  0.69834  1.0000
  H   H707      1.0  0.30711  0.28040  0.77753  1.0000
  H   H708      1.0  0.47446  0.09052  0.96934  1.0000
  H   H709      1.0  0.37882  0.01296  0.52726  1.0000
  C   C446      1.0  0.27920  0.27729  0.73499  1.0000
  C   C447      1.0  0.51149  0.05416  0.71440  1.0000
  Fe  Fe96      1.0  0.44025  0.05302  0.96721  1.0000
  H   H710      1.0  0.28680  0.27848  0.80315  1.0000
  H   H711      1.0  0.31431  0.02479  0.91249  1.0000
  C   C448      1.0  0.50815  0.09932  0.96719  1.0000
  C   C449      1.0  0.27557  0.33764  0.83702  1.0000
  H   H712      1.0  0.29286  0.25594  0.78017  1.0000
  N   N47       1.0  0.27327  0.28358  0.76307  1.0000
  C   C450      1.0  0.27108  0.30779  0.76599  1.0000
  H   H713      1.0  0.31331  0.01862  0.63477  1.0000
  Fe  Fe97      1.0  0.39435  0.03548  0.97075  1.0000
  C   C451      1.0  0.27171  0.34538  0.64463  1.0000
  C   C452      1.0  0.48824  0.08727  0.47447  1.0000
  H   H714      1.0  0.36222  0.48986  0.28789  1.0000
  Fe  Fe98      1.0  0.43190  0.60306  0.20465  1.0000
  S   S179      1.0  0.42482  0.56778  0.20092  1.0000
  S   S180      1.0  0.46614  0.61507  0.20949  1.0000
  Fe  Fe99      1.0  0.38261  0.61904  0.20685  1.0000
  S   S181      1.0  0.37188  0.58487  0.20265  1.0000
  C   C453      1.0  0.45222  0.57672  0.26996  1.0000
  Fe  Fe100     1.0  0.39925  0.57606  0.23258  1.0000
  S   S182      1.0  0.39543  0.55287  0.26703  1.0000
  Fe  Fe101     1.0  0.39822  0.57993  0.17106  1.0000
  S   S183      1.0  0.39369  0.55840  0.13405  1.0000
  S   S184      1.0  0.40838  0.61055  0.23872  1.0000
  S   S185      1.0  0.40690  0.61496  0.17264  1.0000
  Fe  Fe102     1.0  0.28118  0.41317  0.32627  1.0000
  H   H715      1.0  0.36878  0.48681  0.25267  1.0000
  Fe  Fe103     1.0  0.30182  0.45733  0.32842  1.0000
  N   N48       1.0  0.32513  0.48048  0.01085  1.0000
  S   S186      1.0  0.33206  0.47674  0.32943  1.0000
  H   H716      1.0  0.31859  0.66886  0.38357  1.0000
  C   C454      1.0  0.27494  0.37191  0.25451  1.0000
  C   C455      1.0  0.34949  0.65236  0.29272  1.0000
  H   H717      1.0  0.37835  0.50925  0.27214  1.0000
  S   S187      1.0  0.29284  0.43413  0.36035  1.0000
  S   S188      1.0  0.29380  0.43441  0.29414  1.0000
  H   H718      1.0  0.33651  0.62185  0.42827  1.0000
  H   H719      1.0  0.46220  0.59086  0.33541  1.0000
  H   H720      1.0  0.37679  0.64389  0.38217  1.0000
  Fe  Fe104     1.0  0.39102  0.53606  0.44547  1.0000
  S   S189      1.0  0.37288  0.56969  0.44334  1.0000
  S   S190      1.0  0.37061  0.50665  0.44327  1.0000
  Fe  Fe105     1.0  0.40168  0.57752  0.41837  1.0000
  S   S191      1.0  0.39671  0.59918  0.38195  1.0000
  H   H721      1.0  0.36464  0.61916  0.41724  1.0000
  S   S192      1.0  0.38613  0.59383  0.01384  1.0000
  S   S193      1.0  0.41875  0.54336  0.41818  1.0000
  H   H722      1.0  0.35752  0.66474  0.36805  1.0000
  H   H723      1.0  0.28337  0.45607  0.24003  1.0000
  H   H724      1.0  0.34508  0.50392  0.99348  1.0000
  C   C456      1.0  0.33898  0.49918  0.01348  1.0000
  S   S194      1.0  0.28258  0.42996  0.00965  1.0000
  H   H725      1.0  0.32294  0.53952  0.27948  1.0000
  H   H726      1.0  0.35702  0.64448  0.31045  1.0000
  C   C457      1.0  0.51072  0.60504  0.21692  1.0000
  H   H727      1.0  0.36710  0.66731  0.40240  1.0000
  H   H728      1.0  0.27064  0.35786  0.08376  1.0000
  S   S195      1.0  0.42086  0.58935  0.45403  1.0000
  H   H729      1.0  0.32222  0.48936  0.27625  1.0000
  H   H730      1.0  0.32837  0.44685  0.99702  1.0000
  H   H731      1.0  0.32955  0.51396  0.02227  1.0000
  H   H732      1.0  0.49389  0.57618  0.28811  1.0000
  C   C458      1.0  0.27058  0.39714  0.21728  1.0000
  S   S196      1.0  0.26941  0.40557  0.07968  1.0000
  S   S197      1.0  0.47242  0.54675  0.46648  1.0000
  H   H733      1.0  0.30022  0.38063  0.42337  1.0000
  H   H734      1.0  0.32372  0.50686  0.45630  1.0000
  H   H735      1.0  0.28442  0.45491  0.40914  1.0000
  C   C459      1.0  0.33824  0.52871  0.28405  1.0000
  N   N49       1.0  0.46037  0.59068  0.29190  1.0000
  C   C460      1.0  0.44832  0.61278  0.29080  1.0000
  H   H736      1.0  0.45423  0.62389  0.30684  1.0000
  H   H737      1.0  0.26755  0.38116  0.45302  1.0000
  H   H738      1.0  0.29647  0.38680  0.38808  1.0000
  C   C461      1.0  0.27243  0.45425  0.22282  1.0000
  H   H739      1.0  0.35149  0.61573  0.36964  1.0000
  H   H740      1.0  0.29903  0.44940  0.19427  1.0000
  H   H741      1.0  0.30632  0.48931  0.04653  1.0000
  C   C462      1.0  0.34223  0.48539  0.36122  1.0000
  C   C463      1.0  0.35735  0.50157  0.36245  1.0000
  C   C464      1.0  0.36592  0.50847  0.38749  1.0000
  C   C465      1.0  0.35979  0.49886  0.41145  1.0000
  C   C466      1.0  0.34478  0.48259  0.41017  1.0000
  C   C467      1.0  0.33583  0.47608  0.38522  1.0000
  H   H742      1.0  0.36251  0.50881  0.34403  1.0000
  H   H743      1.0  0.37752  0.52096  0.38821  1.0000
  H   H744      1.0  0.34014  0.47484  0.42846  1.0000
  H   H745      1.0  0.32438  0.46350  0.38455  1.0000
  C   C468      1.0  0.39469  0.58581  0.35046  1.0000
  C   C469      1.0  0.39071  0.59850  0.32726  1.0000
  C   C470      1.0  0.39007  0.58837  0.30171  1.0000
  C   C471      1.0  0.39382  0.56556  0.29913  1.0000
  C   C472      1.0  0.39713  0.55278  0.32237  1.0000
  C   C473      1.0  0.39749  0.56290  0.34802  1.0000
  H   H746      1.0  0.38815  0.61622  0.32902  1.0000
  H   H747      1.0  0.38649  0.59825  0.28407  1.0000
  H   H748      1.0  0.39978  0.53507  0.32057  1.0000
  H   H749      1.0  0.40017  0.55294  0.36580  1.0000
  C   C474      1.0  0.39085  0.56872  0.10090  1.0000
  C   C475      1.0  0.39040  0.55380  0.07909  1.0000
  C   C476      1.0  0.38846  0.56130  0.05234  1.0000
  C   C477      1.0  0.38682  0.58384  0.04722  1.0000
  C   C478      1.0  0.38697  0.59880  0.06903  1.0000
  C   C479      1.0  0.38912  0.59128  0.09580  1.0000
  H   H750      1.0  0.39166  0.53634  0.08293  1.0000
  H   H751      1.0  0.38831  0.54964  0.03571  1.0000
  H   H752      1.0  0.38579  0.61625  0.06519  1.0000
  H   H753      1.0  0.38942  0.60289  0.11247  1.0000
  H   H754      1.0  0.29112  0.40805  0.41320  1.0000
  C   C480      1.0  0.49018  0.59663  0.21203  1.0000
  H   H755      1.0  0.33172  0.53539  0.23072  1.0000
  H   H756      1.0  0.35485  0.64243  0.43745  1.0000
  S   S198      1.0  0.28868  0.37620  0.32649  1.0000
  C   C481      1.0  0.30360  0.65868  0.16695  1.0000
  C   C482      1.0  0.48920  0.57389  0.21007  1.0000
  H   H757      1.0  0.33559  0.52014  0.30332  1.0000
  H   H758      1.0  0.30654  0.46101  0.03659  1.0000
  H   H759      1.0  0.29577  0.50106  0.99990  1.0000
  H   H760      1.0  0.47352  0.56719  0.20617  1.0000
  C   C483      1.0  0.33043  0.67267  0.24670  1.0000
  H   H761      1.0  0.35274  0.45588  0.01336  1.0000
  C   C484      1.0  0.32517  0.49869  0.25770  1.0000
  C   C485      1.0  0.28126  0.45056  0.19690  1.0000
  H   H762      1.0  0.35115  0.51330  0.21947  1.0000
  C   C486      1.0  0.33728  0.62787  0.37459  1.0000
  H   H763      1.0  0.29989  0.51979  0.47300  1.0000
  C   C487      1.0  0.33411  0.64541  0.13854  1.0000
  S   S199      1.0  0.35672  0.64792  0.21099  1.0000
  C   C488      1.0  0.48432  0.59260  0.28844  1.0000
  N   N50       1.0  0.46348  0.57430  0.03416  1.0000
  C   C489      1.0  0.47671  0.58300  0.05656  1.0000
  C   C490      1.0  0.44008  0.57476  0.04218  1.0000
  C   C491      1.0  0.47197  0.55141  0.02777  1.0000
  C   C492      1.0  0.46501  0.58805  0.01005  1.0000
  H   H764      1.0  0.49451  0.58272  0.05115  1.0000
  H   H765      1.0  0.47558  0.57319  0.07520  1.0000
  H   H766      1.0  0.47073  0.60032  0.06161  1.0000
  H   H767      1.0  0.42966  0.56840  0.02559  1.0000
  H   H768      1.0  0.43805  0.56454  0.06029  1.0000
  H   H769      1.0  0.32812  0.67136  0.41785  1.0000
  H   H770      1.0  0.46161  0.54409  0.01179  1.0000
  H   H771      1.0  0.47180  0.54070  0.04576  1.0000
  H   H772      1.0  0.48920  0.55049  0.02008  1.0000
  H   H773      1.0  0.48253  0.58875  0.00388  1.0000
  H   H774      1.0  0.45781  0.60521  0.01368  1.0000
  H   H775      1.0  0.45585  0.58139  0.99254  1.0000
  H   H776      1.0  0.36059  0.53567  0.23891  1.0000
  H   H777      1.0  0.35194  0.53948  0.28778  1.0000
  C   C493      1.0  0.33851  0.46112  0.99975  1.0000
  C   C494      1.0  0.27046  0.43343  0.97726  1.0000
  C   C495      1.0  0.35010  0.63121  0.42085  1.0000
  H   H778      1.0  0.29485  0.65613  0.11362  1.0000
  S   S200      1.0  0.27911  0.44275  0.14242  1.0000
  H   H779      1.0  0.31343  0.65441  0.18567  1.0000
  N   N51       1.0  0.34337  0.64345  0.39603  1.0000
  H   H780      1.0  0.28537  0.35990  0.24205  1.0000
  H   H781      1.0  0.32560  0.63070  0.13228  1.0000
  C   C496      1.0  0.28454  0.44711  0.45135  1.0000
  H   H782      1.0  0.34477  0.64070  0.15645  1.0000
  C   C497      1.0  0.26725  0.44815  0.17436  1.0000
  C   C498      1.0  0.34745  0.65572  0.24376  1.0000
  C   C499      1.0  0.33257  0.66942  0.29568  1.0000
  N   N52       1.0  0.34360  0.51281  0.26181  1.0000
  C   C500      1.0  0.36414  0.49905  0.26889  1.0000
  C   C501      1.0  0.28953  0.39037  0.40858  1.0000
  H   H783      1.0  0.43426  0.57483  0.27197  1.0000
  H   H784      1.0  0.35382  0.49508  0.02662  1.0000
  H   H785      1.0  0.46782  0.59171  0.44636  1.0000
  H   H786      1.0  0.46538  0.56394  0.31982  1.0000
  H   H787      1.0  0.45450  0.58393  0.24981  1.0000
  H   H788      1.0  0.32871  0.48645  0.24113  1.0000
  C   C502      1.0  0.35682  0.64547  0.26688  1.0000
  H   H789      1.0  0.33220  0.63657  0.35555  1.0000
  H   H790      1.0  0.49121  0.60264  0.30493  1.0000
  C   C503      1.0  0.45657  0.58065  0.31826  1.0000
  H   H791      1.0  0.36982  0.63236  0.26488  1.0000
  S   S201      1.0  0.41154  0.53663  0.98115  1.0000
  H   H792      1.0  0.45051  0.62068  0.27093  1.0000
  H   H793      1.0  0.46101  0.55994  0.26991  1.0000
  H   H794      1.0  0.33070  0.47081  0.05225  1.0000
  H   H795      1.0  0.48748  0.60068  0.26899  1.0000
  H   H796      1.0  0.30938  0.50855  0.25250  1.0000
  H   H797      1.0  0.43297  0.59177  0.04699  1.0000
  H   H798      1.0  0.27453  0.35103  0.41878  1.0000
  C   C504      1.0  0.34687  0.52479  0.23662  1.0000
  H   H799      1.0  0.43020  0.61200  0.29364  1.0000
  H   H800      1.0  0.29132  0.67267  0.17219  1.0000
  H   H801      1.0  0.30232  0.44336  0.45244  1.0000
  H   H802      1.0  0.43861  0.57887  0.32122  1.0000
  C   C505      1.0  0.27436  0.45321  0.42659  1.0000
  H   H803      1.0  0.30967  0.65087  0.40870  1.0000
  Fe  Fe106     1.0  0.43599  0.55465  0.45589  1.0000
  H   H804      1.0  0.29421  0.64439  0.16143  1.0000
  C   C506      1.0  0.31684  0.47522  0.03774  1.0000
  C   C507      1.0  0.30433  0.67005  0.12042  1.0000
  H   H805      1.0  0.50778  0.54210  0.21116  1.0000
  C   C508      1.0  0.36201  0.65539  0.38682  1.0000
  H   H806      1.0  0.51159  0.62264  0.21862  1.0000
  C   C509      1.0  0.50864  0.55969  0.21294  1.0000
  C   C510      1.0  0.30617  0.48641  0.99237  1.0000
  C   C511      1.0  0.31054  0.50409  0.47098  1.0000
  Fe  Fe107     1.0  0.39538  0.57098  0.97853  1.0000
  H   H807      1.0  0.28630  0.38229  0.26582  1.0000
  N   N53       1.0  0.31804  0.66438  0.14477  1.0000
  H   H808      1.0  0.32329  0.61853  0.38074  1.0000
  C   C512      1.0  0.32410  0.65931  0.40185  1.0000
  H   H809      1.0  0.34533  0.64915  0.12196  1.0000
  H   H810      1.0  0.29524  0.47273  0.99020  1.0000
  H   H811      1.0  0.28233  0.40800  0.22695  1.0000
  H   H812      1.0  0.34545  0.46472  0.97972  1.0000
  H   H813      1.0  0.49445  0.62025  0.44498  1.0000
  C   C513      1.0  0.26784  0.35763  0.32640  1.0000
  C   C514      1.0  0.48447  0.58815  0.45420  1.0000
  C   C515      1.0  0.49962  0.60432  0.45340  1.0000
  C   C516      1.0  0.49104  0.56742  0.46469  1.0000
  H   H814      1.0  0.28032  0.38555  0.20353  1.0000
  H   H815      1.0  0.30020  0.49163  0.46185  1.0000
  H   H816      1.0  0.27182  0.35702  0.38345  1.0000
  H   H817      1.0  0.31466  0.67451  0.10328  1.0000
  S   S202      1.0  0.32409  0.67795  0.32854  1.0000
  S   S203      1.0  0.26852  0.47669  0.32693  1.0000
  H   H818      1.0  0.26655  0.36247  0.26978  1.0000
  H   H819      1.0  0.45488  0.59660  0.57407  1.0000
  Fe  Fe108     1.0  0.43101  0.60175  0.70930  1.0000
  S   S204      1.0  0.42311  0.56702  0.70217  1.0000
  S   S205      1.0  0.46535  0.61253  0.71771  1.0000
  Fe  Fe109     1.0  0.38208  0.61897  0.70910  1.0000
  S   S206      1.0  0.37049  0.58549  0.70118  1.0000
  H   H820      1.0  0.48459  0.59334  0.77624  1.0000
  Fe  Fe110     1.0  0.39617  0.57437  0.73234  1.0000
  S   S207      1.0  0.39036  0.54981  0.76469  1.0000
  Fe  Fe111     1.0  0.39829  0.58132  0.67142  1.0000
  S   S208      1.0  0.39604  0.56153  0.63255  1.0000
  S   S209      1.0  0.40608  0.60811  0.74207  1.0000
  S   S210      1.0  0.40791  0.61586  0.67655  1.0000
  Fe  Fe112     1.0  0.28855  0.39263  0.83050  1.0000
  H   H821      1.0  0.45025  0.61472  0.81406  1.0000
  Fe  Fe113     1.0  0.30773  0.43750  0.83217  1.0000
  C   C517      1.0  0.28267  0.37496  0.67347  1.0000
  S   S211      1.0  0.33786  0.45719  0.83393  1.0000
  H   H822      1.0  0.43106  0.54862  0.54139  1.0000
  N   N54       1.0  0.45638  0.58248  0.79616  1.0000
  C   C518      1.0  0.28746  0.36039  0.91372  1.0000
  H   H823      1.0  0.48682  0.56260  0.52249  1.0000
  S   S212      1.0  0.29791  0.41500  0.86447  1.0000
  S   S213      1.0  0.30194  0.41339  0.79824  1.0000
  H   H824      1.0  0.36772  0.66326  0.90307  1.0000
  H   H825      1.0  0.34123  0.46962  0.51321  1.0000
  H   H826      1.0  0.29137  0.43477  0.73805  1.0000
  Fe  Fe114     1.0  0.38975  0.52926  0.94519  1.0000
  S   S214      1.0  0.37186  0.56312  0.94493  1.0000
  S   S215      1.0  0.36817  0.50057  0.94481  1.0000
  Fe  Fe115     1.0  0.39865  0.57087  0.91680  1.0000
  S   S216      1.0  0.39104  0.59312  0.88129  1.0000
  S   S217      1.0  0.28494  0.43686  0.50491  1.0000
  S   S218      1.0  0.38185  0.59984  0.51432  1.0000
  S   S219      1.0  0.41530  0.53658  0.91481  1.0000
  H   H827      1.0  0.45675  0.53720  0.55598  1.0000
  H   H828      1.0  0.29362  0.67211  0.66955  1.0000
  N   N55       1.0  0.34163  0.64187  0.89701  1.0000
  H   H829      1.0  0.42811  0.58592  0.52245  1.0000
  H   H830      1.0  0.45619  0.56914  0.58724  1.0000
  H   H831      1.0  0.34197  0.50844  0.52809  1.0000
  H   H832      1.0  0.35202  0.65403  0.62412  1.0000
  S   S220      1.0  0.47247  0.53943  0.95628  1.0000
  H   H833      1.0  0.43327  0.56945  0.82275  1.0000
  S   S221      1.0  0.35690  0.64843  0.71330  1.0000
  H   H834      1.0  0.32522  0.52972  0.51063  1.0000
  H   H835      1.0  0.48921  0.55966  0.55843  1.0000
  H   H836      1.0  0.44789  0.61389  0.77778  1.0000
  H   H837      1.0  0.36105  0.61566  0.91732  1.0000
  H   H838      1.0  0.31189  0.49016  0.97178  1.0000
  C   C519      1.0  0.34880  0.65258  0.79488  1.0000
  H   H839      1.0  0.48704  0.58661  0.54367  1.0000
  C   C520      1.0  0.33095  0.67377  0.74881  1.0000
  H   H840      1.0  0.45715  0.55319  0.77128  1.0000
  H   H841      1.0  0.42651  0.60421  0.79810  1.0000
  C   C521      1.0  0.28419  0.43502  0.95498  1.0000
  H   H842      1.0  0.43066  0.56864  0.77295  1.0000
  H   H843      1.0  0.30867  0.48766  0.53622  1.0000
  C   C522      1.0  0.35620  0.64562  0.76911  1.0000
  N   N56       1.0  0.32018  0.49680  0.49735  1.0000
  C   C523      1.0  0.50903  0.59981  0.72799  1.0000
  C   C524      1.0  0.27979  0.43599  0.72115  1.0000
  H   H844      1.0  0.30199  0.43426  0.95787  1.0000
  H   H845      1.0  0.28573  0.43933  0.91197  1.0000
  H   H846      1.0  0.30526  0.43515  0.69105  1.0000
  C   C525      1.0  0.48101  0.56993  0.54213  1.0000
  C   C526      1.0  0.34567  0.46958  0.86482  1.0000
  C   C527      1.0  0.36253  0.48400  0.86501  1.0000
  C   C528      1.0  0.36921  0.49400  0.88926  1.0000
  C   C529      1.0  0.35935  0.48933  0.91365  1.0000
  C   C530      1.0  0.34242  0.47499  0.91344  1.0000
  C   C531      1.0  0.33547  0.46530  0.88911  1.0000
  H   H847      1.0  0.37065  0.48731  0.84640  1.0000
  H   H848      1.0  0.38232  0.50491  0.88916  1.0000
  H   H849      1.0  0.33465  0.47127  0.93210  1.0000
  H   H850      1.0  0.32246  0.45426  0.88924  1.0000
  C   C532      1.0  0.38894  0.58047  0.84938  1.0000
  C   C533      1.0  0.38445  0.59369  0.82672  1.0000
  C   C534      1.0  0.38395  0.58420  0.80079  1.0000
  C   C535      1.0  0.38834  0.56152  0.79730  1.0000
  C   C536      1.0  0.39207  0.54818  0.82002  1.0000
  C   C537      1.0  0.39227  0.55764  0.84605  1.0000
  H   H851      1.0  0.38149  0.61132  0.82917  1.0000
  H   H852      1.0  0.38002  0.59448  0.78353  1.0000
  H   H853      1.0  0.39542  0.53059  0.81754  1.0000
  H   H854      1.0  0.39536  0.54728  0.86343  1.0000
  C   C538      1.0  0.39107  0.57282  0.60020  1.0000
  C   C539      1.0  0.39078  0.55845  0.57785  1.0000
  C   C540      1.0  0.38767  0.56661  0.55154  1.0000
  C   C541      1.0  0.38482  0.58925  0.54733  1.0000
  C   C542      1.0  0.38477  0.60369  0.56969  1.0000
  C   C543      1.0  0.38799  0.59552  0.59610  1.0000
  H   H855      1.0  0.39300  0.54089  0.58094  1.0000
  H   H856      1.0  0.38727  0.55535  0.53456  1.0000
  H   H857      1.0  0.38252  0.62124  0.56654  1.0000
  H   H858      1.0  0.38821  0.60670  0.61321  1.0000
  H   H859      1.0  0.36879  0.63211  0.76722  1.0000
  C   C544      1.0  0.48854  0.59302  0.71923  1.0000
  H   H860      1.0  0.51267  0.60967  0.64724  1.0000
  C   C545      1.0  0.27501  0.43763  0.92887  1.0000
  S   S222      1.0  0.28326  0.43721  0.63925  1.0000
  H   H861      1.0  0.32925  0.67059  0.91961  1.0000
  C   C546      1.0  0.48693  0.57094  0.71234  1.0000
  H   H862      1.0  0.45189  0.57927  0.50195  1.0000
  H   H863      1.0  0.45433  0.54136  0.52013  1.0000
  H   H864      1.0  0.43110  0.58120  0.57203  1.0000
  H   H865      1.0  0.47128  0.56551  0.70545  1.0000
  H   H866      1.0  0.35730  0.66194  0.86895  1.0000
  H   H867      1.0  0.29794  0.36486  0.68005  1.0000
  C   C547      1.0  0.29319  0.37313  0.62662  1.0000
  H   H868      1.0  0.45664  0.57984  0.83953  1.0000
  C   C548      1.0  0.44651  0.58527  0.52230  1.0000
  C   C549      1.0  0.44947  0.57986  0.57047  1.0000
  C   C550      1.0  0.28760  0.43626  0.69452  1.0000
  H   H869      1.0  0.45976  0.55396  0.82145  1.0000
  C   C551      1.0  0.48052  0.58409  0.79447  1.0000
  H   H870      1.0  0.50446  0.53876  0.70840  1.0000
  H   H871      1.0  0.45212  0.57845  0.75324  1.0000
  H   H872      1.0  0.49375  0.61404  0.93968  1.0000
  C   C552      1.0  0.33349  0.47552  0.49378  1.0000
  C   C553      1.0  0.33457  0.51333  0.50809  1.0000
  H   H873      1.0  0.33282  0.63393  0.63054  1.0000
  C   C554      1.0  0.44878  0.57013  0.77239  1.0000
  H   H874      1.0  0.31890  0.66935  0.88556  1.0000
  H   H875      1.0  0.30222  0.65870  0.61049  1.0000
  N   N57       1.0  0.45660  0.57091  0.54380  1.0000
  H   H876      1.0  0.48698  0.59284  0.81238  1.0000
  H   H877      1.0  0.26801  0.36276  0.55642  1.0000
  C   C555      1.0  0.51246  0.55596  0.96636  1.0000
  C   C556      1.0  0.34767  0.62891  0.92148  1.0000
  H   H878      1.0  0.33328  0.62087  0.92918  1.0000
  C   C557      1.0  0.32385  0.65921  0.90354  1.0000
  N   N58       1.0  0.33713  0.50794  0.78039  1.0000
  C   C558      1.0  0.36002  0.49730  0.78115  1.0000
  C   C559      1.0  0.33572  0.52637  0.76120  1.0000
  C   C560      1.0  0.33115  0.51644  0.80767  1.0000
  C   C561      1.0  0.32168  0.49169  0.77157  1.0000
  H   H879      1.0  0.36170  0.48345  0.79568  1.0000
  H   H880      1.0  0.37214  0.50916  0.78738  1.0000
  H   H881      1.0  0.36510  0.49055  0.76098  1.0000
  H   H882      1.0  0.34144  0.52084  0.74075  1.0000
  H   H883      1.0  0.31847  0.53411  0.75911  1.0000
  H   H884      1.0  0.34629  0.53945  0.76804  1.0000
  H   H885      1.0  0.31417  0.52499  0.80782  1.0000
  H   H886      1.0  0.34293  0.52824  0.81524  1.0000
  H   H887      1.0  0.33153  0.50292  0.82255  1.0000
  H   H888      1.0  0.30418  0.49897  0.77128  1.0000
  H   H889      1.0  0.32257  0.47740  0.78539  1.0000
  H   H890      1.0  0.32560  0.48513  0.75095  1.0000
  N   N59       1.0  0.32248  0.66664  0.64479  1.0000
  C   C562      1.0  0.31028  0.67283  0.61950  1.0000
  S   S223      1.0  0.42050  0.58226  0.95021  1.0000
  H   H891      1.0  0.32309  0.46254  0.48619  1.0000
  H   H892      1.0  0.34853  0.51543  0.49423  1.0000
  H   H893      1.0  0.51034  0.61683  0.73362  1.0000
  Fe  Fe116     1.0  0.43536  0.54746  0.95052  1.0000
  C   C563      1.0  0.44938  0.54854  0.54019  1.0000
  C   C564      1.0  0.27178  0.44559  0.47449  1.0000
  H   H894      1.0  0.29889  0.64445  0.65690  1.0000
  C   C565      1.0  0.33375  0.62726  0.87551  1.0000
  H   H895      1.0  0.29630  0.39085  0.62664  1.0000
  C   C566      1.0  0.27272  0.43784  0.67239  1.0000
  C   C567      1.0  0.33246  0.67018  0.79774  1.0000
  C   C568      1.0  0.44477  0.60481  0.79656  1.0000
  H   H896      1.0  0.29149  0.35271  0.89365  1.0000
  C   C569      1.0  0.49089  0.56030  0.95578  1.0000
  H   H897      1.0  0.28639  0.39248  0.67465  1.0000
  H   H898      1.0  0.34681  0.61403  0.87006  1.0000
  H   H899      1.0  0.48978  0.56755  0.79301  1.0000
  C   C570      1.0  0.49904  0.59782  0.94713  1.0000
  S   S224      1.0  0.29658  0.35584  0.83506  1.0000
  C   C571      1.0  0.30695  0.65900  0.66463  1.0000
  H   H900      1.0  0.35381  0.63937  0.93808  1.0000
  C   C572      1.0  0.48432  0.58124  0.94586  1.0000
  H   H901      1.0  0.35585  0.64437  0.81264  1.0000
  C   C573      1.0  0.45138  0.57092  0.82108  1.0000
  C   C574      1.0  0.34746  0.65631  0.74597  1.0000
  H   H902      1.0  0.45116  0.60241  0.52463  1.0000
  H   H903      1.0  0.37498  0.63944  0.88228  1.0000
  H   H904      1.0  0.46785  0.58473  0.93736  1.0000
  H   H905      1.0  0.31894  0.61925  0.88190  1.0000
  H   H906      1.0  0.30871  0.65210  0.91066  1.0000
  H   H907      1.0  0.32916  0.63654  0.85672  1.0000
  C   C575      1.0  0.50576  0.55580  0.71400  1.0000
  C   C576      1.0  0.36128  0.65209  0.88746  1.0000
  S   S225      1.0  0.27082  0.40837  0.57218  1.0000
  C   C577      1.0  0.30212  0.49422  0.51650  1.0000
  H   H908      1.0  0.34953  0.64372  0.65754  1.0000
  H   H909      1.0  0.29413  0.34868  0.92950  1.0000
  Fe  Fe117     1.0  0.39386  0.57787  0.47933  1.0000
  S   S226      1.0  0.41004  0.54368  0.48352  1.0000
  S   S227      1.0  0.27407  0.45590  0.82787  1.0000
  H   H910      1.0  0.30915  0.36355  0.63175  1.0000
  C   C578      1.0  0.33995  0.64881  0.63894  1.0000
  H   H911      1.0  0.29223  0.51011  0.52051  1.0000
  Fe  Fe118     1.0  0.26748  0.43027  0.79636  1.0000
  N   N60       1.0  0.27564  0.36893  0.64581  1.0000
  H   H912      1.0  0.26949  0.37290  0.68841  1.0000
  H   H913      1.0  0.31563  0.65429  0.68399  1.0000
  H   H914      1.0  0.29045  0.48253  0.50844  1.0000
  H   H915      1.0  0.29665  0.37537  0.91554  1.0000
  H   H916      1.0  0.28853  0.36855  0.60557  1.0000
  H   H917      1.0  0.34709  0.47681  0.47912  1.0000
  H   H918      1.0  0.26758  0.39084  0.94670  1.0000
  C   C579      1.0  0.51286  0.56303  0.47445  1.0000
  S   S228      1.0  0.32391  0.67873  0.83053  1.0000
  H   H919      1.0  0.32146  0.67877  0.60411  1.0000
  H   H920      1.0  0.31995  0.98555  0.15630  1.0000
  S   S229      1.0  0.27912  0.94067  0.25271  1.0000
  H   H921      1.0  0.33657  0.98016  0.97581  1.0000
  C   C580      1.0  0.26830  0.94344  0.21952  1.0000
  Fe  Fe119     1.0  0.26823  0.93530  0.03661  1.0000
  C   C581      1.0  0.31852  0.00249  0.44033  1.0000
  H   H922      1.0  0.34059  0.67971  0.17153  1.0000
  C   C582      1.0  0.36632  0.98800  0.04464  1.0000
  Fe  Fe120     1.0  0.27806  0.75205  0.33573  1.0000
  C   C583      1.0  0.33903  0.97490  0.41312  1.0000
  S   S230      1.0  0.28985  0.78599  0.33145  1.0000
  S   S231      1.0  0.37839  0.99906  0.47075  1.0000
  Fe  Fe121     1.0  0.30914  0.94339  0.06917  1.0000
  H   H923      1.0  0.32750  0.96232  0.41792  1.0000
  S   S232      1.0  0.33954  0.96248  0.07265  1.0000
  S   S233      1.0  0.30232  0.91758  0.03795  1.0000
  H   H924      1.0  0.27193  0.81096  0.23802  1.0000
  S   S234      1.0  0.29960  0.92292  0.10394  1.0000
  C   C584      1.0  0.27569  0.94178  0.46718  1.0000
  H   H925      1.0  0.31494  0.99306  0.37261  1.0000
  H   H926      1.0  0.28689  0.94574  0.15492  1.0000
  H   H927      1.0  0.30714  0.99020  0.44667  1.0000
  H   H928      1.0  0.35214  0.99620  0.18411  1.0000
  C   C585      1.0  0.30904  0.99821  0.39312  1.0000
  H   H929      1.0  0.33862  0.96953  0.13427  1.0000
  H   H930      1.0  0.37514  0.98976  0.06356  1.0000
  S   S235      1.0  0.29608  0.86243  0.07976  1.0000
  Fe  Fe122     1.0  0.28906  0.89899  0.07231  1.0000
  C   C586      1.0  0.33011  0.68342  0.15318  1.0000
  H   H931      1.0  0.37071  0.98009  0.16212  1.0000
  H   H932      1.0  0.38740  0.00827  0.02298  1.0000
  C   C587      1.0  0.28392  0.76872  0.25085  1.0000
  S   S236      1.0  0.28484  0.94426  0.38647  1.0000
  C   C588      1.0  0.36280  0.99562  0.99662  1.0000
  H   H933      1.0  0.30326  0.93846  0.44004  1.0000
  S   S237      1.0  0.27567  0.96223  0.06577  1.0000
  H   H934      1.0  0.29392  0.93491  0.98439  1.0000
  H   H935      1.0  0.29007  0.70727  0.21254  1.0000
  H   H936      1.0  0.29244  0.77120  0.27068  1.0000
  S   S238      1.0  0.27011  0.91286  0.32032  1.0000
  H   H937      1.0  0.28027  0.87856  0.38751  1.0000
  H   H938      1.0  0.30991  0.69249  0.27449  1.0000
  H   H939      1.0  0.34618  0.97042  0.39302  1.0000
  C   C589      1.0  0.27528  0.94553  0.17123  1.0000
  H   H940      1.0  0.32306  0.68070  0.22898  1.0000
  S   S239      1.0  0.27273  0.71704  0.15971  1.0000
  H   H941      1.0  0.29438  0.77488  0.23484  1.0000
  C   C590      1.0  0.34824  0.97509  0.04313  1.0000
  C   C591      1.0  0.33745  0.97248  0.01822  1.0000
  C   C592      1.0  0.28313  0.94349  0.19803  1.0000
  H   H942      1.0  0.33203  0.00256  0.45585  1.0000
  H   H943      1.0  0.28050  0.70967  0.42699  1.0000
  H   H944      1.0  0.32356  0.96251  0.01677  1.0000
  C   C593      1.0  0.37340  0.99845  0.02157  1.0000
  H   H945      1.0  0.37434  0.00861  0.16827  1.0000
  C   C594      1.0  0.34484  0.98254  0.99501  1.0000
  C   C595      1.0  0.32295  0.67942  0.27254  1.0000
  C   C596      1.0  0.28549  0.94180  0.44167  1.0000
  H   H946      1.0  0.27209  0.70470  0.25670  1.0000
  S   S240      1.0  0.28503  0.72835  0.30133  1.0000
  C   C597      1.0  0.27896  0.83016  0.32640  1.0000
  N   N61       1.0  0.34698  0.00262  0.14173  1.0000
  H   H947      1.0  0.30080  0.94196  0.20219  1.0000
  S   S241      1.0  0.29113  0.72790  0.36742  1.0000
  H   H948      1.0  0.27070  0.86494  0.32129  1.0000
  H   H949      1.0  0.36917  0.98649  0.11278  1.0000
  H   H950      1.0  0.29628  0.98708  0.39865  1.0000
  H   H951      1.0  0.29655  0.83122  0.32381  1.0000
  H   H952      1.0  0.29473  0.88228  0.15902  1.0000
  H   H953      1.0  0.29681  0.81720  0.09429  1.0000
  Fe  Fe123     1.0  0.29477  0.70337  0.33288  1.0000
  N   N62       1.0  0.32747  0.99724  0.41316  1.0000
  C   C598      1.0  0.27998  0.82259  0.08817  1.0000
  H   H954      1.0  0.27715  0.76050  0.02609  1.0000
  H   H955      1.0  0.34986  0.00744  0.09901  1.0000
  C   C599      1.0  0.28411  0.86836  0.15665  1.0000
  C   C600      1.0  0.27744  0.70841  0.47045  1.0000
  H   H956      1.0  0.29592  0.71076  0.97559  1.0000
  H   H957      1.0  0.34116  0.68826  0.13699  1.0000
  H   H958      1.0  0.28359  0.75068  0.24749  1.0000
  C   C601      1.0  0.27233  0.94552  0.41836  1.0000
  H   H959      1.0  0.35288  0.97354  0.42830  1.0000
  H   H960      1.0  0.28841  0.85671  0.17338  1.0000
  H   H961      1.0  0.28726  0.79597  0.00838  1.0000
  H   H962      1.0  0.28885  0.85974  0.13733  1.0000
  C   C602      1.0  0.27486  0.84431  0.07972  1.0000
  C   C603      1.0  0.36039  0.00293  0.11711  1.0000
  C   C604      1.0  0.26921  0.71041  0.44374  1.0000
  H   H963      1.0  0.31844  0.69799  0.15815  1.0000
  C   C605      1.0  0.36167  0.99658  0.16511  1.0000
  H   H964      1.0  0.31928  0.99029  0.12043  1.0000
  S   S242      1.0  0.27418  0.70993  0.02665  1.0000
  C   C606      1.0  0.33045  0.98632  0.13815  1.0000
  C   C607      1.0  0.27098  0.80968  0.33096  1.0000
  C   C608      1.0  0.27221  0.70987  0.21385  1.0000
  H   H965      1.0  0.27120  0.80737  0.27388  1.0000
  H   H966      1.0  0.27662  0.87480  0.43709  1.0000
  H   H967      1.0  0.26931  0.77887  0.45902  1.0000
  C   C609      1.0  0.26933  0.80188  0.00806  1.0000
  H   H968      1.0  0.29206  0.68434  0.12435  1.0000
  H   H969      1.0  0.26765  0.79121  0.09573  1.0000
  H   H970      1.0  0.27803  0.76518  0.97692  1.0000
  H   H971      1.0  0.26657  0.81443  0.99202  1.0000
  H   H972      1.0  0.35013  0.00999  0.38557  1.0000
  H   H973      1.0  0.29514  0.70620  0.47420  1.0000
  C   C610      1.0  0.28447  0.94264  0.69698  1.0000
  S   S243      1.0  0.27371  0.70768  0.52561  1.0000
  H   H974      1.0  0.33028  0.98307  0.85892  1.0000
  C   C611      1.0  0.27378  0.71347  0.71347  1.0000
  C   C612      1.0  0.35789  0.99178  0.54773  1.0000
  C   C613      1.0  0.32098  0.99330  0.87448  1.0000
  C   C614      1.0  0.27823  0.71245  0.97165  1.0000
  C   C615      1.0  0.27063  0.88468  0.93497  1.0000
  H   H975      1.0  0.36451  0.01105  0.91034  1.0000
  S   S244      1.0  0.29423  0.94200  0.88595  1.0000
  H   H976      1.0  0.36687  0.97093  0.65438  1.0000
  H   H977      1.0  0.28557  0.94148  0.65343  1.0000
  Fe  Fe124     1.0  0.30355  0.94306  0.56861  1.0000
  H   H978      1.0  0.36060  0.99910  0.56740  1.0000
  S   S245      1.0  0.33187  0.96462  0.57405  1.0000
  H   H979      1.0  0.27617  0.86579  0.81712  1.0000
  S   S246      1.0  0.29682  0.91913  0.53512  1.0000
  S   S247      1.0  0.29641  0.91976  0.60155  1.0000
  C   C616      1.0  0.27503  0.94242  0.67085  1.0000
  C   C617      1.0  0.36018  0.98404  0.64035  1.0000
  C   C618      1.0  0.32245  0.97641  0.64901  1.0000
  H   H980      1.0  0.27695  0.80879  0.49155  1.0000
  H   H981      1.0  0.32405  0.68213  0.73106  1.0000
  H   H982      1.0  0.31077  0.69412  0.77649  1.0000
  H   H983      1.0  0.31195  0.93443  0.93976  1.0000
  H   H984      1.0  0.29149  0.70956  0.71172  1.0000
  C   C619      1.0  0.33272  0.68594  0.65609  1.0000
  H   H985      1.0  0.34927  0.96494  0.47745  1.0000
  H   H986      1.0  0.32867  0.00404  0.60841  1.0000
  H   H987      1.0  0.30229  0.94177  0.69956  1.0000
  H   H988      1.0  0.28892  0.88443  0.93792  1.0000
  C   C620      1.0  0.28506  0.83206  0.82796  1.0000
  H   H989      1.0  0.28155  0.71478  0.92835  1.0000
  C   C621      1.0  0.36825  0.99965  0.52502  1.0000
  C   C622      1.0  0.27026  0.85091  0.82471  1.0000
  Fe  Fe125     1.0  0.29637  0.70608  0.83454  1.0000
  H   H990      1.0  0.30592  0.98492  0.87912  1.0000
  H   H991      1.0  0.28599  0.93892  0.48498  1.0000
  C   C623      1.0  0.28168  0.94413  0.91778  1.0000
  Fe  Fe126     1.0  0.28599  0.89747  0.56800  1.0000
  S   S248      1.0  0.28930  0.73274  0.80421  1.0000
  H   H992      1.0  0.29628  0.81629  0.58868  1.0000
  H   H993      1.0  0.32912  0.96471  0.91509  1.0000
  H   H994      1.0  0.34456  0.69221  0.64177  1.0000
  C   C624      1.0  0.36526  0.98996  0.49959  1.0000
  C   C625      1.0  0.29433  0.93899  0.94119  1.0000
  H   H995      1.0  0.36420  0.00003  0.87659  1.0000
  C   C626      1.0  0.34413  0.97451  0.54505  1.0000
  C   C627      1.0  0.34077  0.96514  0.51954  1.0000
  C   C628      1.0  0.35151  0.97268  0.49695  1.0000
  H   H996      1.0  0.35954  0.97657  0.61970  1.0000
  S   S249      1.0  0.29515  0.86075  0.57066  1.0000
  H   H997      1.0  0.33034  0.95173  0.51732  1.0000
  H   H998      1.0  0.26852  0.90615  0.88840  1.0000
  S   S250      1.0  0.29629  0.78884  0.83962  1.0000
  C   C629      1.0  0.28410  0.93909  0.96649  1.0000
  C   C630      1.0  0.27751  0.81240  0.83696  1.0000
  S   S251      1.0  0.27658  0.91355  0.81886  1.0000
  H   H999      1.0  0.29307  0.76967  0.52833  1.0000
  H   H1000     1.0  0.35354  0.97613  0.92815  1.0000
  C   C631      1.0  0.27455  0.88853  0.88692  1.0000
  H   H1001     1.0  0.30235  0.83258  0.82302  1.0000
  C   C632      1.0  0.34302  0.97449  0.90965  1.0000
  H   H1002     1.0  0.35318  0.96470  0.89450  1.0000
  S   S252      1.0  0.29377  0.72929  0.87046  1.0000
  H   H1003     1.0  0.32810  0.96311  0.66334  1.0000
  C   C633      1.0  0.33969  0.00354  0.67603  1.0000
  H   H1004     1.0  0.26781  0.78113  0.79137  1.0000
  C   C634      1.0  0.27944  0.82128  0.58223  1.0000
  N   N63       1.0  0.33470  0.99624  0.89905  1.0000
  H   H1005     1.0  0.32078  0.96860  0.62872  1.0000
  H   H1006     1.0  0.29975  0.77268  0.49333  1.0000
  H   H1007     1.0  0.29185  0.85056  0.90815  1.0000
  S   S253      1.0  0.28359  0.94419  0.75223  1.0000
  H   H1008     1.0  0.26716  0.79042  0.59256  1.0000
  H   H1009     1.0  0.31996  0.69965  0.66082  1.0000
  H   H1010     1.0  0.27007  0.88269  0.86635  1.0000
  N   N64       1.0  0.33806  0.99372  0.64867  1.0000
  Fe  Fe127     1.0  0.28315  0.75531  0.83999  1.0000
  H   H1011     1.0  0.27762  0.87611  0.65137  1.0000
  H   H1012     1.0  0.30556  0.98314  0.65513  1.0000
  H   H1013     1.0  0.28744  0.74869  0.50421  1.0000
  H   H1014     1.0  0.30683  0.99915  0.92562  1.0000
  C   C635      1.0  0.32341  0.68063  0.77458  1.0000
  C   C636      1.0  0.28731  0.76680  0.50717  1.0000
  H   H1015     1.0  0.27453  0.71210  0.75688  1.0000
  C   C637      1.0  0.35367  0.00872  0.89230  1.0000
  C   C638      1.0  0.27099  0.94379  0.71986  1.0000
  H   H1016     1.0  0.29297  0.88755  0.88863  1.0000
  S   S254      1.0  0.27325  0.71583  0.65842  1.0000
  H   H1017     1.0  0.27499  0.77974  0.75633  1.0000
  C   C639      1.0  0.27347  0.85250  0.90575  1.0000
  C   C640      1.0  0.27418  0.84253  0.57227  1.0000
  H   H1018     1.0  0.37231  0.99675  0.63991  1.0000
  H   H1019     1.0  0.26955  0.87644  0.61634  1.0000
  Fe  Fe128     1.0  0.26967  0.93902  0.85143  1.0000
  H   H1020     1.0  0.34584  0.99101  0.69114  1.0000
  H   H1021     1.0  0.29698  0.68626  0.62311  1.0000
  H   H1022     1.0  0.31526  0.00933  0.86520  1.0000
  S   S255      1.0  0.26926  0.96036  0.56834  1.0000
  H   H1023     1.0  0.27160  0.80591  0.52676  1.0000
  H   H1024     1.0  0.26941  0.84547  0.88557  1.0000
  C   C641      1.0  0.27014  0.71475  0.94491  1.0000
  C   C642      1.0  0.32998  0.01093  0.62929  1.0000
  H   H1025     1.0  0.34200  0.68184  0.67526  1.0000
  S   S256      1.0  0.37197  0.00766  0.96699  1.0000
  H   H1026     1.0  0.33094  0.01105  0.93855  1.0000
  C   C643      1.0  0.32107  0.00838  0.91980  1.0000
  H   H1027     1.0  0.32330  0.01105  0.68292  1.0000
  H   H1028     1.0  0.67018  0.04439  0.39350  1.0000
  H   H1029     1.0  0.64156  0.02681  0.28582  1.0000
  H   H1030     1.0  0.63883  0.02244  0.40296  1.0000
  C   C644      1.0  0.63798  0.26888  0.37400  1.0000
  C   C645      1.0  0.75809  0.22593  0.20453  1.0000
  S   S257      1.0  0.64473  0.09582  0.46443  1.0000
  H   H1031     1.0  0.71717  0.01518  0.17605  1.0000
  S   S258      1.0  0.74274  0.23574  0.03888  1.0000
  C   C646      1.0  0.68168  0.03002  0.39951  1.0000
  S   S259      1.0  0.74818  0.23474  0.17247  1.0000
  H   H1032     1.0  0.56467  0.06236  0.33382  1.0000
  S   S260      1.0  0.60995  0.11390  0.99443  1.0000
  Fe  Fe129     1.0  0.73710  0.25404  0.35564  1.0000
  Fe  Fe130     1.0  0.58131  0.11177  0.46701  1.0000
  H   H1033     1.0  0.68168  0.03675  0.45329  1.0000
  Fe  Fe131     1.0  0.71869  0.20909  0.35836  1.0000
  S   S261      1.0  0.75260  0.19090  0.35767  1.0000
  S   S262      1.0  0.68693  0.19187  0.35802  1.0000
  H   H1034     1.0  0.68939  0.15814  0.99251  1.0000
  H   H1035     1.0  0.68366  0.02459  0.14758  1.0000
  H   H1036     1.0  0.56197  0.06239  0.07515  1.0000
  N   N65       1.0  0.71757  0.17730  0.99380  1.0000
  S   S263      1.0  0.72715  0.23368  0.39014  1.0000
  S   S264      1.0  0.72560  0.23094  0.32375  1.0000
  S   S265      1.0  0.64922  0.15817  0.46786  1.0000
  C   C647      1.0  0.66653  0.03031  0.44433  1.0000
  H   H1037     1.0  0.75713  0.28794  0.24115  1.0000
  C   C648      1.0  0.74448  0.23934  0.98418  1.0000
  H   H1038     1.0  0.54437  0.10093  0.26472  1.0000
  H   H1039     1.0  0.72217  0.33545  0.33581  1.0000
  Fe  Fe132     1.0  0.62732  0.08001  0.99271  1.0000
  S   S266      1.0  0.63568  0.05830  0.02890  1.0000
  Fe  Fe133     1.0  0.61848  0.08933  0.43361  1.0000
  S   S267      1.0  0.62793  0.06868  0.39677  1.0000
  C   C649      1.0  0.73950  0.17705  0.98105  1.0000
  S   S268      1.0  0.60196  0.12369  0.43360  1.0000
  Fe  Fe134     1.0  0.61901  0.07836  0.18574  1.0000
  S   S269      1.0  0.62370  0.09782  0.14788  1.0000
  Fe  Fe135     1.0  0.61412  0.08583  0.24685  1.0000
  S   S270      1.0  0.60571  0.05140  0.25388  1.0000
  S   S271      1.0  0.61389  0.11075  0.28098  1.0000
  Fe  Fe136     1.0  0.58438  0.05607  0.21649  1.0000
  H   H1040     1.0  0.69279  0.27052  0.38927  1.0000
  S   S272      1.0  0.64338  0.07634  0.22075  1.0000
  S   S273      1.0  0.59058  0.09134  0.21170  1.0000
  C   C650      1.0  0.75607  0.23257  0.00772  1.0000
  C   C651      1.0  0.52814  0.08540  0.21380  1.0000
  H   H1041     1.0  0.63674  0.28168  0.35810  1.0000
  C   C652      1.0  0.66926  0.24931  0.35222  1.0000
  H   H1042     1.0  0.65901  0.23599  0.34521  1.0000
  H   H1043     1.0  0.54406  0.09152  0.21078  1.0000
  S   S274      1.0  0.72535  0.29000  0.35102  1.0000
  H   H1044     1.0  0.56846  0.05686  0.02617  1.0000
  C   C653      1.0  0.73918  0.33088  0.34185  1.0000
  H   H1045     1.0  0.53222  0.09573  0.02094  1.0000
  H   H1046     1.0  0.59109  0.07387  0.02797  1.0000
  S   S275      1.0  0.61141  0.04314  0.18828  1.0000
  H   H1047     1.0  0.55934  0.12203  0.05928  1.0000
  C   C654      1.0  0.62496  0.08103  0.36485  1.0000
  C   C655      1.0  0.61678  0.10303  0.36202  1.0000
  C   C656      1.0  0.61379  0.11217  0.33621  1.0000
  C   C657      1.0  0.61895  0.09935  0.31311  1.0000
  C   C658      1.0  0.62780  0.07758  0.31593  1.0000
  C   C659      1.0  0.63069  0.06842  0.34174  1.0000
  H   H1048     1.0  0.61254  0.11296  0.37966  1.0000
  H   H1049     1.0  0.60708  0.12909  0.33416  1.0000
  H   H1050     1.0  0.63240  0.06773  0.29827  1.0000
  H   H1051     1.0  0.63726  0.05146  0.34377  1.0000
  C   C660      1.0  0.63219  0.06936  0.06191  1.0000
  C   C661      1.0  0.63160  0.05514  0.08393  1.0000
  C   C662      1.0  0.62872  0.06356  0.11042  1.0000
  C   C663      1.0  0.62666  0.08629  0.11504  1.0000
  C   C664      1.0  0.62715  0.10046  0.09298  1.0000
  C   C665      1.0  0.62982  0.09205  0.06653  1.0000
  H   H1052     1.0  0.63342  0.03755  0.08049  1.0000
  H   H1053     1.0  0.62837  0.05251  0.12726  1.0000
  H   H1054     1.0  0.62572  0.11806  0.09644  1.0000
  H   H1055     1.0  0.63058  0.10316  0.04982  1.0000
  C   C666      1.0  0.67710  0.18214  0.38871  1.0000
  C   C667      1.0  0.68672  0.18730  0.41363  1.0000
  C   C668      1.0  0.67794  0.18005  0.43777  1.0000
  C   C669      1.0  0.65995  0.16698  0.43716  1.0000
  C   C670      1.0  0.65056  0.16158  0.41220  1.0000
  C   C671      1.0  0.65887  0.16943  0.38813  1.0000
  H   H1056     1.0  0.70082  0.19700  0.41439  1.0000
  H   H1057     1.0  0.75513  0.30990  0.10384  1.0000
  H   H1058     1.0  0.63658  0.15172  0.41146  1.0000
  H   H1059     1.0  0.65105  0.16562  0.36905  1.0000
  N   N66       1.0  0.67171  0.01665  0.41997  1.0000
  H   H1060     1.0  0.66934  0.26163  0.33585  1.0000
  H   H1061     1.0  0.75807  0.25507  0.28749  1.0000
  H   H1062     1.0  0.72798  0.24762  0.98549  1.0000
  C   C672      1.0  0.74537  0.30944  0.35068  1.0000
  C   C673      1.0  0.52650  0.06283  0.21615  1.0000
  H   H1063     1.0  0.53820  0.04851  0.30064  1.0000
  H   H1064     1.0  0.56422  0.11784  0.02378  1.0000
  H   H1065     1.0  0.68648  0.24170  0.35467  1.0000
  H   H1066     1.0  0.73790  0.21232  0.43970  1.0000
  C   C674      1.0  0.55806  0.09551  0.27905  1.0000
  C   C675      1.0  0.74298  0.22593  0.22573  1.0000
  C   C676      1.0  0.75015  0.21969  0.25186  1.0000
  C   C677      1.0  0.51763  0.06104  0.45890  1.0000
  C   C678      1.0  0.70620  0.15830  0.98371  1.0000
  H   H1067     1.0  0.52755  0.09873  0.05653  1.0000
  H   H1068     1.0  0.72561  0.23082  0.22187  1.0000
  H   H1069     1.0  0.73831  0.21966  0.26791  1.0000
  N   N67       1.0  0.56116  0.08824  0.04594  1.0000
  H   H1070     1.0  0.58613  0.11116  0.04800  1.0000
  H   H1071     1.0  0.62693  0.25601  0.36773  1.0000
  S   S276      1.0  0.55017  0.04388  0.21605  1.0000
  H   H1072     1.0  0.57533  0.08850  0.32900  1.0000
  C   C679      1.0  0.76412  0.32481  0.01592  1.0000
  C   C680      1.0  0.53698  0.08860  0.04104  1.0000
  N   N68       1.0  0.67775  0.13245  0.30805  1.0000
  C   C681      1.0  0.67789  0.12322  0.33553  1.0000
  C   C682      1.0  0.69839  0.14317  0.30407  1.0000
  C   C683      1.0  0.65848  0.14886  0.30482  1.0000
  C   C684      1.0  0.67624  0.11459  0.28779  1.0000
  H   H1073     1.0  0.69196  0.11047  0.33854  1.0000
  H   H1074     1.0  0.66233  0.11539  0.33942  1.0000
  H   H1075     1.0  0.67946  0.13621  0.35129  1.0000
  H   H1076     1.0  0.69880  0.15039  0.28356  1.0000
  H   H1077     1.0  0.70004  0.15676  0.31904  1.0000
  H   H1078     1.0  0.71332  0.13133  0.30642  1.0000
  H   H1079     1.0  0.65757  0.15585  0.28414  1.0000
  H   H1080     1.0  0.65933  0.16277  0.31950  1.0000
  H   H1081     1.0  0.64262  0.14143  0.30806  1.0000
  H   H1082     1.0  0.69074  0.10212  0.28919  1.0000
  H   H1083     1.0  0.67534  0.12101  0.26681  1.0000
  H   H1084     1.0  0.66113  0.10580  0.29061  1.0000
  Fe  Fe137     1.0  0.63348  0.04201  0.22555  1.0000
  H   H1085     1.0  0.73050  0.16065  0.02949  1.0000
  H   H1086     1.0  0.76542  0.29467  0.05546  1.0000
  H   H1087     1.0  0.66954  0.28517  0.40536  1.0000
  H   H1088     1.0  0.67924  0.23509  0.40253  1.0000
  H   H1089     1.0  0.53134  0.07174  0.04117  1.0000
  C   C685      1.0  0.74835  0.21337  0.45742  1.0000
  H   H1090     1.0  0.63128  0.27668  0.39297  1.0000
  H   H1091     1.0  0.71566  0.14244  0.98885  1.0000
  N   N69       1.0  0.66111  0.25943  0.37786  1.0000
  C   C686      1.0  0.70410  0.19790  0.98695  1.0000
  C   C687      1.0  0.57284  0.07413  0.02528  1.0000
  H   H1092     1.0  0.58510  0.07873  0.07714  1.0000
  C   C688      1.0  0.67520  0.27703  0.38614  1.0000
  H   H1093     1.0  0.65460  0.04472  0.43950  1.0000
  H   H1094     1.0  0.52912  0.06474  0.27190  1.0000
  H   H1095     1.0  0.57182  0.08753  0.26685  1.0000
  H   H1096     1.0  0.58378  0.06571  0.30723  1.0000
  H   H1097     1.0  0.74869  0.19089  0.98861  1.0000
  H   H1098     1.0  0.67526  0.28992  0.37043  1.0000
  H   H1099     1.0  0.69732  0.03630  0.40717  1.0000
  C   C689      1.0  0.66200  0.24247  0.39900  1.0000
  H   H1100     1.0  0.53726  0.10671  0.32515  1.0000
  C   C690      1.0  0.56799  0.11082  0.04420  1.0000
  C   C691      1.0  0.56690  0.07940  0.07308  1.0000
  H   H1101     1.0  0.70420  0.17635  0.03370  1.0000
  H   H1102     1.0  0.72780  0.34184  0.09589  1.0000
  C   C692      1.0  0.76077  0.32534  0.09781  1.0000
  H   H1103     1.0  0.68525  0.18450  0.45691  1.0000
  S   S277      1.0  0.75748  0.26327  0.10635  1.0000
  C   C693      1.0  0.56941  0.07396  0.31823  1.0000
  H   H1104     1.0  0.71126  0.21245  0.99622  1.0000
  H   H1105     1.0  0.52326  0.04459  0.45217  1.0000
  H   H1106     1.0  0.74471  0.28893  0.03048  1.0000
  H   H1107     1.0  0.65578  0.24937  0.41864  1.0000
  H   H1108     1.0  0.55687  0.05199  0.27362  1.0000
  Fe  Fe138     1.0  0.76026  0.21495  0.32580  1.0000
  N   N70       1.0  0.55077  0.08040  0.29950  1.0000
  C   C694      1.0  0.65510  0.01430  0.28865  1.0000
  H   H1109     1.0  0.74601  0.32606  0.01127  1.0000
  H   H1110     1.0  0.72911  0.19010  0.03172  1.0000
  C   C695      1.0  0.72048  0.17599  0.02348  1.0000
  C   C696      1.0  0.53220  0.09160  0.31478  1.0000
  H   H1111     1.0  0.65193  0.22868  0.39312  1.0000
  H   H1112     1.0  0.52630  0.08070  0.33044  1.0000
  H   H1113     1.0  0.55872  0.08980  0.08930  1.0000
  Fe  Fe139     1.0  0.76155  0.21692  0.38737  1.0000
  H   H1114     1.0  0.74999  0.16160  0.98544  1.0000
  H   H1115     1.0  0.56870  0.08015  0.00457  1.0000
  C   C697      1.0  0.74529  0.34350  0.09340  1.0000
  C   C698      1.0  0.76288  0.28864  0.03444  1.0000
  H   H1116     1.0  0.54967  0.07335  0.45455  1.0000
  H   H1117     1.0  0.66652  0.01737  0.17473  1.0000
  S   S278      1.0  0.66016  0.01439  0.23299  1.0000
  H   H1118     1.0  0.65133  0.01315  0.33192  1.0000
  H   H1119     1.0  0.56429  0.11046  0.28856  1.0000
  H   H1120     1.0  0.65891  0.02081  0.46022  1.0000
  H   H1121     1.0  0.75265  0.29263  0.98180  1.0000
  S   S279      1.0  0.54416  0.11947  0.47182  1.0000
  H   H1122     1.0  0.74407  0.28229  0.28761  1.0000
  C   C699      1.0  0.54339  0.06056  0.28590  1.0000
  H   H1123     1.0  0.68684  0.19787  0.99438  1.0000
  H   H1124     1.0  0.68567  0.02029  0.38077  1.0000
  C   C700      1.0  0.53268  0.07732  0.46036  1.0000
  S   S280      1.0  0.59603  0.07695  0.46439  1.0000
  C   C701      1.0  0.52563  0.09865  0.46903  1.0000
  Fe  Fe140     1.0  0.62721  0.12979  0.46609  1.0000
  H   H1125     1.0  0.51788  0.09664  0.30110  1.0000
  Fe  Fe141     1.0  0.76618  0.23783  0.07442  1.0000
  H   H1126     1.0  0.76367  0.27425  0.31384  1.0000
  C   C702      1.0  0.76021  0.27268  0.29182  1.0000
  H   H1127     1.0  0.76504  0.31422  0.27929  1.0000
  H   H1128     1.0  0.76630  0.33214  0.03644  1.0000
  S   S281      1.0  0.74620  0.22859  0.67216  1.0000
  H   H1129     1.0  0.70289  0.03972  0.94492  1.0000
  H   H1130     1.0  0.67331  0.19016  0.50675  1.0000
  H   H1131     1.0  0.65561  0.01440  0.67553  1.0000
  S   S282      1.0  0.75942  0.19541  0.85906  1.0000
  C   C703      1.0  0.75616  0.27449  0.79271  1.0000
  H   H1132     1.0  0.55129  0.06577  0.58831  1.0000
  S   S283      1.0  0.73958  0.22186  0.53804  1.0000
  H   H1133     1.0  0.75287  0.31675  0.77987  1.0000
  H   H1134     1.0  0.63668  0.11080  0.84242  1.0000
  H   H1135     1.0  0.63587  0.11661  0.79306  1.0000
  H   H1136     1.0  0.60898  0.15995  0.80866  1.0000
  Fe  Fe142     1.0  0.73646  0.25653  0.85526  1.0000
  S   S284      1.0  0.60370  0.06731  0.96191  1.0000
  C   C704      1.0  0.75401  0.23516  0.95882  1.0000
  Fe  Fe143     1.0  0.72368  0.20897  0.85849  1.0000
  H   H1137     1.0  0.73870  0.28131  0.78927  1.0000
  S   S285      1.0  0.69890  0.18308  0.85795  1.0000
  H   H1138     1.0  0.66250  0.12737  0.79499  1.0000
  H   H1139     1.0  0.67425  0.02907  0.65638  1.0000
  C   C705      1.0  0.60815  0.01441  0.86924  1.0000
  C   C706      1.0  0.74413  0.33796  0.58732  1.0000
  S   S286      1.0  0.72799  0.23524  0.88986  1.0000
  S   S287      1.0  0.72803  0.23157  0.82364  1.0000
  H   H1140     1.0  0.68459  0.03147  0.88762  1.0000
  H   H1141     1.0  0.52298  0.08980  0.54295  1.0000
  Fe  Fe144     1.0  0.76230  0.22967  0.57303  1.0000
  H   H1142     1.0  0.56404  0.02399  0.86638  1.0000
  S   S288      1.0  0.53444  0.03518  0.70763  1.0000
  H   H1143     1.0  0.66494  0.15372  0.52311  1.0000
  Fe  Fe145     1.0  0.62047  0.08717  0.49560  1.0000
  S   S289      1.0  0.62772  0.06299  0.52965  1.0000
  Fe  Fe146     1.0  0.62650  0.07919  0.93110  1.0000
  S   S290      1.0  0.63842  0.05862  0.89507  1.0000
  S   S291      1.0  0.60480  0.12164  0.49991  1.0000
  S   S292      1.0  0.60868  0.11296  0.92813  1.0000
  Fe  Fe147     1.0  0.60558  0.07019  0.68714  1.0000
  S   S293      1.0  0.61272  0.09222  0.65231  1.0000
  Fe  Fe148     1.0  0.59839  0.07292  0.74832  1.0000
  S   S294      1.0  0.58901  0.03833  0.75053  1.0000
  S   S295      1.0  0.59557  0.09480  0.78538  1.0000
  Fe  Fe149     1.0  0.56898  0.04643  0.71279  1.0000
  H   H1144     1.0  0.52879  0.06886  0.51782  1.0000
  S   S296      1.0  0.62860  0.06477  0.72321  1.0000
  S   S297      1.0  0.57631  0.08168  0.71257  1.0000
  H   H1145     1.0  0.75305  0.30313  0.59062  1.0000
  H   H1146     1.0  0.72237  0.33835  0.83511  1.0000
  Fe  Fe150     1.0  0.58770  0.10181  0.96168  1.0000
  C   C707      1.0  0.53634  0.06929  0.96049  1.0000
  C   C708      1.0  0.67735  0.15529  0.53976  1.0000
  H   H1147     1.0  0.53043  0.08206  0.72014  1.0000
  S   S298      1.0  0.65181  0.08869  0.96178  1.0000
  H   H1148     1.0  0.71822  0.15444  0.56119  1.0000
  C   C709      1.0  0.68769  0.03091  0.94200  1.0000
  H   H1149     1.0  0.67600  0.19930  0.54126  1.0000
  H   H1150     1.0  0.70397  0.15870  0.96134  1.0000
  S   S299      1.0  0.55073  0.11111  0.96553  1.0000
  H   H1151     1.0  0.70434  0.01920  0.68978  1.0000
  C   C710      1.0  0.62610  0.06803  0.86448  1.0000
  C   C711      1.0  0.60613  0.08138  0.86441  1.0000
  C   C712      1.0  0.59667  0.08918  0.83994  1.0000
  C   C713      1.0  0.60680  0.08322  0.81537  1.0000
  C   C714      1.0  0.62649  0.06941  0.81532  1.0000
  C   C715      1.0  0.63622  0.06199  0.83991  1.0000
  H   H1152     1.0  0.59791  0.08569  0.88318  1.0000
  H   H1153     1.0  0.58142  0.09986  0.84007  1.0000
  H   H1154     1.0  0.63458  0.06503  0.79641  1.0000
  H   H1155     1.0  0.65187  0.05200  0.83992  1.0000
  C   C716      1.0  0.62372  0.07125  0.56374  1.0000
  C   C717      1.0  0.62299  0.05519  0.58371  1.0000
  C   C718      1.0  0.61932  0.06130  0.61095  1.0000
  C   C719      1.0  0.61669  0.08354  0.61840  1.0000
  C   C720      1.0  0.61747  0.09954  0.59841  1.0000
  C   C721      1.0  0.62082  0.09345  0.57118  1.0000
  H   H1156     1.0  0.62523  0.03797  0.57810  1.0000
  H   H1157     1.0  0.61879  0.04885  0.62621  1.0000
  H   H1158     1.0  0.61552  0.11677  0.60408  1.0000
  H   H1159     1.0  0.62148  0.10597  0.55605  1.0000
  C   C722      1.0  0.68652  0.17496  0.88788  1.0000
  C   C723      1.0  0.68066  0.15331  0.88976  1.0000
  C   C724      1.0  0.66885  0.14671  0.91205  1.0000
  C   C725      1.0  0.66281  0.16180  0.93269  1.0000
  C   C726      1.0  0.66893  0.18339  0.93102  1.0000
  C   C727      1.0  0.68087  0.18994  0.90878  1.0000
  H   H1160     1.0  0.68548  0.14157  0.87397  1.0000
  H   H1161     1.0  0.66455  0.12995  0.91338  1.0000
  H   H1162     1.0  0.66407  0.19519  0.94678  1.0000
  H   H1163     1.0  0.68502  0.20676  0.90735  1.0000
  H   H1164     1.0  0.72089  0.21835  0.48460  1.0000
  H   H1165     1.0  0.73792  0.17863  0.95868  1.0000
  N   N71       1.0  0.69508  0.16891  0.53161  1.0000
  C   C728      1.0  0.75212  0.21757  0.50626  1.0000
  H   H1166     1.0  0.60929  0.02689  0.81724  1.0000
  S   S300      1.0  0.75290  0.25655  0.60330  1.0000
  C   C729      1.0  0.73873  0.21649  0.48298  1.0000
  H   H1167     1.0  0.72656  0.33613  0.58541  1.0000
  S   S301      1.0  0.59678  0.03528  0.68468  1.0000
  H   H1168     1.0  0.55911  0.03766  0.55194  1.0000
  H   H1169     1.0  0.71331  0.02857  0.89808  1.0000
  C   C730      1.0  0.74396  0.22282  0.72659  1.0000
  H   H1170     1.0  0.72498  0.18035  0.54856  1.0000
  H   H1171     1.0  0.66896  0.15791  0.82646  1.0000
  C   C731      1.0  0.75259  0.21939  0.75285  1.0000
  H   H1172     1.0  0.64143  0.13292  0.86524  1.0000
  H   H1173     1.0  0.72618  0.22455  0.72329  1.0000
  H   H1174     1.0  0.74145  0.21835  0.76949  1.0000
  H   H1175     1.0  0.74493  0.24048  0.94088  1.0000
  H   H1176     1.0  0.64599  0.17432  0.81175  1.0000
  H   H1177     1.0  0.66826  0.16256  0.55756  1.0000
  H   H1178     1.0  0.52434  0.03705  0.95742  1.0000
  H   H1179     1.0  0.57643  0.07767  0.58087  1.0000
  H   H1180     1.0  0.55073  0.09454  0.58050  1.0000
  C   C732      1.0  0.66826  0.01258  0.65938  1.0000
  C   C733      1.0  0.56635  0.05056  0.54013  1.0000
  H   H1181     1.0  0.58442  0.04961  0.54507  1.0000
  C   C734      1.0  0.69794  0.01990  0.89654  1.0000
  H   H1182     1.0  0.64950  0.01612  0.82489  1.0000
  H   H1183     1.0  0.74908  0.28893  0.74218  1.0000
  H   H1184     1.0  0.56472  0.04629  0.51827  1.0000
  S   S302      1.0  0.72501  0.29265  0.84970  1.0000
  H   H1185     1.0  0.55350  0.06328  0.95795  1.0000
  C   C735      1.0  0.55853  0.07788  0.57524  1.0000
  H   H1186     1.0  0.67430  0.04302  0.93431  1.0000
  C   C736      1.0  0.71096  0.17084  0.55437  1.0000
  H   H1187     1.0  0.69517  0.15617  0.49089  1.0000
  C   C737      1.0  0.68518  0.19102  0.52412  1.0000
  C   C738      1.0  0.70683  0.15853  0.50814  1.0000
  H   H1188     1.0  0.71983  0.16881  0.50092  1.0000
  N   N72       1.0  0.55548  0.07266  0.54622  1.0000
  C   C739      1.0  0.61459  0.14783  0.82446  1.0000
  H   H1189     1.0  0.66348  0.12087  0.84439  1.0000
  Fe  Fe151     1.0  0.63252  0.12182  0.96084  1.0000
  C   C740      1.0  0.56555  0.08907  0.52986  1.0000
  H   H1190     1.0  0.69815  0.20184  0.51833  1.0000
  Fe  Fe152     1.0  0.76403  0.22288  0.88859  1.0000
  H   H1191     1.0  0.62529  0.01575  0.86201  1.0000
  Fe  Fe153     1.0  0.76407  0.21969  0.82639  1.0000
  C   C741      1.0  0.75810  0.22393  0.70459  1.0000
  C   C742      1.0  0.53156  0.07315  0.53949  1.0000
  H   H1192     1.0  0.68415  0.13836  0.54514  1.0000
  Fe  Fe154     1.0  0.61758  0.03058  0.72273  1.0000
  H   H1193     1.0  0.64715  0.16964  0.84753  1.0000
  H   H1194     1.0  0.63921  0.14328  0.77991  1.0000
  H   H1195     1.0  0.60512  0.13317  0.82105  1.0000
  H   H1196     1.0  0.71505  0.14207  0.51324  1.0000
  H   H1197     1.0  0.60973  0.15511  0.84447  1.0000
  H   H1198     1.0  0.58704  0.04241  0.83413  1.0000
  C   C743      1.0  0.74482  0.31235  0.85147  1.0000
  C   C744      1.0  0.73909  0.33381  0.84233  1.0000
  N   N73       1.0  0.63875  0.14187  0.82332  1.0000
  C   C745      1.0  0.65066  0.16179  0.82741  1.0000
  C   C746      1.0  0.64540  0.12594  0.84480  1.0000
  C   C747      1.0  0.64436  0.13186  0.79666  1.0000
  H   H1199     1.0  0.70292  0.17952  0.57206  1.0000
  H   H1200     1.0  0.55773  0.10601  0.53357  1.0000
  H   H1201     1.0  0.70309  0.20042  0.96471  1.0000
  S   S303      1.0  0.64873  0.15394  0.96150  1.0000
  H   H1202     1.0  0.52326  0.06123  0.55175  1.0000
  H   H1203     1.0  0.63606  0.02484  0.77824  1.0000
  H   H1204     1.0  0.58359  0.08915  0.53436  1.0000
  H   H1205     1.0  0.58123  0.02229  0.80876  1.0000
  H   H1206     1.0  0.75707  0.25652  0.78849  1.0000
  H   H1207     1.0  0.56365  0.08554  0.50791  1.0000
  H   H1208     1.0  0.75992  0.27671  0.81454  1.0000
  C   C748      1.0  0.59260  0.02583  0.82586  1.0000
  H   H1209     1.0  0.60252  0.03046  0.87891  1.0000
  H   H1210     1.0  0.68263  0.02561  0.96227  1.0000
  C   C749      1.0  0.53055  0.09182  0.96393  1.0000
  C   C750      1.0  0.51978  0.05445  0.96017  1.0000
  C   C751      1.0  0.75912  0.31923  0.59036  1.0000
  C   C752      1.0  0.76627  0.28202  0.74711  1.0000
  Fe  Fe155     1.0  0.76625  0.23224  0.63463  1.0000
  C   C753      1.0  0.52921  0.56811  0.21766  1.0000
  S   S304      1.0  0.61616  0.56526  0.04455  1.0000
  Fe  Fe156     1.0  0.72866  0.46940  0.09312  1.0000
  H   H1211     1.0  0.55168  0.60499  0.11091  1.0000
  S   S305      1.0  0.70025  0.49571  0.09824  1.0000
  Fe  Fe157     1.0  0.74418  0.42088  0.08453  1.0000
  C   C754      1.0  0.66273  0.65159  0.40556  1.0000
  S   S306      1.0  0.73262  0.38669  0.08316  1.0000
  N   N74       1.0  0.55611  0.57748  0.13775  1.0000
  H   H1212     1.0  0.65785  0.63254  0.18340  1.0000
  H   H1213     1.0  0.61682  0.62960  0.10528  1.0000
  S   S307      1.0  0.74421  0.44688  0.40351  1.0000
  S   S308      1.0  0.73591  0.44139  0.12152  1.0000
  S   S309      1.0  0.73319  0.44807  0.05567  1.0000
  Fe  Fe158     1.0  0.62152  0.58538  0.25516  1.0000
  S   S310      1.0  0.61302  0.55032  0.25419  1.0000
  S   S311      1.0  0.62632  0.60644  0.29244  1.0000
  Fe  Fe159     1.0  0.61980  0.58883  0.19359  1.0000
  S   S312      1.0  0.61073  0.55421  0.18810  1.0000
  H   H1214     1.0  0.58364  0.59177  0.36257  1.0000
  Fe  Fe160     1.0  0.58761  0.56192  0.22256  1.0000
  Fe  Fe161     1.0  0.63697  0.54612  0.21968  1.0000
  S   S313      1.0  0.66294  0.51727  0.21593  1.0000
  S   S314      1.0  0.59457  0.59727  0.22567  1.0000
  S   S315      1.0  0.64753  0.58037  0.22320  1.0000
  H   H1215     1.0  0.63090  0.54610  0.35779  1.0000
  H   H1216     1.0  0.68679  0.63491  0.18937  1.0000
  S   S316      1.0  0.74529  0.44145  0.26881  1.0000
  H   H1217     1.0  0.53526  0.56471  0.41122  1.0000
  N   N75       1.0  0.67169  0.65687  0.15939  1.0000
  H   H1218     1.0  0.75910  0.37676  0.21121  1.0000
  C   C755      1.0  0.65844  0.52851  0.00408  1.0000
  H   H1219     1.0  0.64786  0.65978  0.07900  1.0000
  C   C756      1.0  0.75762  0.46436  0.98326  1.0000
  C   C757      1.0  0.75597  0.44935  0.43620  1.0000
  H   H1220     1.0  0.74595  0.46758  0.99943  1.0000
  H   H1221     1.0  0.66328  0.55106  0.05061  1.0000
  C   C758      1.0  0.52144  0.59993  0.46310  1.0000
  H   H1222     1.0  0.64647  0.49533  0.03438  1.0000
  H   H1223     1.0  0.68254  0.48979  0.01113  1.0000
  H   H1224     1.0  0.55633  0.56948  0.34131  1.0000
  C   C759      1.0  0.68961  0.67141  0.38290  1.0000
  H   H1225     1.0  0.55732  0.60753  0.16084  1.0000
  S   S317      1.0  0.60251  0.62305  0.44134  1.0000
  N   N76       1.0  0.55991  0.57474  0.38411  1.0000
  C   C760      1.0  0.55977  0.58792  0.11161  1.0000
  C   C761      1.0  0.56543  0.59048  0.15986  1.0000
  H   H1226     1.0  0.65212  0.51500  0.99166  1.0000
  N   N77       1.0  0.66913  0.52016  0.02944  1.0000
  H   H1227     1.0  0.75006  0.36278  0.33322  1.0000
  C   C762      1.0  0.69480  0.66269  0.43019  1.0000
  H   H1228     1.0  0.53541  0.55859  0.36135  1.0000
  C   C763      1.0  0.54566  0.57855  0.40795  1.0000
  H   H1229     1.0  0.53481  0.58773  0.35613  1.0000
  C   C764      1.0  0.74659  0.45152  0.21521  1.0000
  H   H1230     1.0  0.68943  0.54722  0.03384  1.0000
  H   H1231     1.0  0.72891  0.45570  0.21673  1.0000
  H   H1232     1.0  0.74735  0.45948  0.17299  1.0000
  H   H1233     1.0  0.72008  0.51349  0.27654  1.0000
  H   H1234     1.0  0.61403  0.61159  0.06026  1.0000
  H   H1235     1.0  0.68526  0.53291  0.06460  1.0000
  H   H1236     1.0  0.73104  0.39843  0.16396  1.0000
  C   C765      1.0  0.62785  0.60904  0.34766  1.0000
  H   H1237     1.0  0.56338  0.58282  0.17979  1.0000
  H   H1238     1.0  0.69922  0.65586  0.37661  1.0000
  C   C766      1.0  0.69050  0.50181  0.13122  1.0000
  C   C767      1.0  0.67407  0.51919  0.13512  1.0000
  C   C768      1.0  0.66576  0.52420  0.16107  1.0000
  C   C769      1.0  0.67362  0.51173  0.18328  1.0000
  C   C770      1.0  0.69020  0.49448  0.17945  1.0000
  C   C771      1.0  0.69868  0.48960  0.15354  1.0000
  H   H1239     1.0  0.66772  0.52883  0.11807  1.0000
  H   H1240     1.0  0.65322  0.53765  0.16387  1.0000
  H   H1241     1.0  0.69642  0.48477  0.19649  1.0000
  H   H1242     1.0  0.71134  0.47626  0.15084  1.0000
  C   C772      1.0  0.61983  0.57874  0.07567  1.0000
  C   C773      1.0  0.62468  0.56610  0.09873  1.0000
  C   C774      1.0  0.62657  0.57629  0.12410  1.0000
  C   C775      1.0  0.62330  0.59913  0.12668  1.0000
  H   H1243     1.0  0.62694  0.54836  0.09703  1.0000
  H   H1244     1.0  0.63076  0.56643  0.14160  1.0000
  C   C776      1.0  0.62974  0.57779  0.37766  1.0000
  C   C777      1.0  0.62776  0.59497  0.32499  1.0000
  C   C778      1.0  0.62884  0.57225  0.32873  1.0000
  C   C779      1.0  0.63001  0.56369  0.35501  1.0000
  H   H1245     1.0  0.62895  0.56129  0.31139  1.0000
  H   H1246     1.0  0.52897  0.56819  0.16114  1.0000
  H   H1247     1.0  0.58494  0.59493  0.39863  1.0000
  S   S318      1.0  0.62326  0.61186  0.15879  1.0000
  H   H1248     1.0  0.70462  0.64695  0.42525  1.0000
  H   H1249     1.0  0.69649  0.49736  0.04157  1.0000
  H   H1250     1.0  0.62708  0.62663  0.34484  1.0000
  H   H1251     1.0  0.53435  0.59386  0.40603  1.0000
  H   H1252     1.0  0.57777  0.58895  0.10810  1.0000
  H   H1253     1.0  0.62873  0.61149  0.39123  1.0000
  H   H1254     1.0  0.66043  0.50305  0.06490  1.0000
  S   S319      1.0  0.59216  0.62053  0.00796  1.0000
  C   C780      1.0  0.54596  0.57253  0.35961  1.0000
  N   N78       1.0  0.69561  0.49078  0.28334  1.0000
  C   C781      1.0  0.71220  0.49987  0.26611  1.0000
  C   C782      1.0  0.67811  0.50828  0.29029  1.0000
  C   C783      1.0  0.70648  0.48211  0.30846  1.0000
  C   C784      1.0  0.68563  0.47284  0.26846  1.0000
  H   H1255     1.0  0.72563  0.48703  0.26052  1.0000
  C   C785      1.0  0.52796  0.57925  0.47384  1.0000
  H   H1256     1.0  0.70449  0.50644  0.24692  1.0000
  H   H1257     1.0  0.66953  0.51524  0.27186  1.0000
  H   H1258     1.0  0.66522  0.50196  0.30313  1.0000
  H   H1259     1.0  0.68505  0.52214  0.30141  1.0000
  H   H1260     1.0  0.69447  0.47500  0.32189  1.0000
  H   H1261     1.0  0.71431  0.49516  0.32012  1.0000
  H   H1262     1.0  0.71977  0.46885  0.30408  1.0000
  H   H1263     1.0  0.67301  0.46552  0.28073  1.0000
  H   H1264     1.0  0.69845  0.45940  0.26288  1.0000
  H   H1265     1.0  0.67733  0.47887  0.24936  1.0000
  Fe  Fe162     1.0  0.57691  0.61246  0.46973  1.0000
  S   S320      1.0  0.59160  0.57764  0.47104  1.0000
  S   S321      1.0  0.55335  0.54974  0.21944  1.0000
  H   H1266     1.0  0.58536  0.55502  0.13439  1.0000
  H   H1267     1.0  0.67790  0.65036  0.11725  1.0000
  H   H1268     1.0  0.73669  0.37617  0.14052  1.0000
  H   H1269     1.0  0.55326  0.57844  0.09434  1.0000
  C   C786      1.0  0.64402  0.65852  0.03560  1.0000
  H   H1270     1.0  0.67017  0.53685  0.99150  1.0000
  S   S322      1.0  0.75402  0.41120  0.33827  1.0000
  H   H1271     1.0  0.66409  0.62962  0.13394  1.0000
  C   C787      1.0  0.65246  0.66664  0.06009  1.0000
  H   H1272     1.0  0.54583  0.59757  0.22372  1.0000
  H   H1273     1.0  0.63655  0.65789  0.15180  1.0000
  C   C788      1.0  0.57340  0.59355  0.38108  1.0000
  H   H1274     1.0  0.54354  0.56910  0.97639  1.0000
  C   C789      1.0  0.68802  0.50404  0.02292  1.0000
  C   C790      1.0  0.65289  0.50943  0.04555  1.0000
  S   S323      1.0  0.63873  0.65826  0.97987  1.0000
  H   H1275     1.0  0.55580  0.58047  0.42666  1.0000
  H   H1276     1.0  0.67761  0.67627  0.36631  1.0000
  C   C791      1.0  0.64941  0.66765  0.01103  1.0000
  H   H1277     1.0  0.70568  0.66365  0.16603  1.0000
  H   H1278     1.0  0.58345  0.59168  0.15725  1.0000
  H   H1279     1.0  0.73094  0.37049  0.17505  1.0000
  C   C792      1.0  0.73946  0.38155  0.16181  1.0000
  C   C793      1.0  0.57468  0.55440  0.38790  1.0000
  Fe  Fe163     1.0  0.61018  0.58677  0.00811  1.0000
  H   H1280     1.0  0.58638  0.55148  0.37084  1.0000
  H   H1281     1.0  0.70666  0.67553  0.43315  1.0000
  H   H1282     1.0  0.63309  0.64545  0.03576  1.0000
  H   H1283     1.0  0.52434  0.56732  0.12530  1.0000
  C   C794      1.0  0.61745  0.60168  0.07800  1.0000
  C   C795      1.0  0.67071  0.64445  0.18472  1.0000
  H   H1284     1.0  0.75793  0.40483  0.20080  1.0000
  S   S324      1.0  0.63832  0.59502  0.98229  1.0000
  C   C796      1.0  0.67716  0.53866  0.04527  1.0000
  C   C797      1.0  0.75698  0.45341  0.19029  1.0000
  C   C798      1.0  0.75237  0.36389  0.08643  1.0000
  H   H1285     1.0  0.72413  0.45409  0.45522  1.0000
  S   S325      1.0  0.62971  0.56657  0.41028  1.0000
  C   C799      1.0  0.61915  0.61187  0.10351  1.0000
  C   C800      1.0  0.53016  0.59085  0.21981  1.0000
  C   C801      1.0  0.67699  0.64144  0.13666  1.0000
  C   C802      1.0  0.74191  0.45291  0.45842  1.0000
  H   H1286     1.0  0.64408  0.54068  0.00819  1.0000
  Fe  Fe164     1.0  0.61843  0.58877  0.44527  1.0000
  H   H1287     1.0  0.56289  0.60940  0.37974  1.0000
  H   H1288     1.0  0.66654  0.65557  0.20225  1.0000
  H   H1289     1.0  0.63843  0.52116  0.05083  1.0000
  H   H1290     1.0  0.69320  0.63174  0.13994  1.0000
  H   H1291     1.0  0.56045  0.54450  0.12161  1.0000
  S   S326      1.0  0.76345  0.47953  0.09340  1.0000
  H   H1292     1.0  0.56517  0.54674  0.15749  1.0000
  H   H1293     1.0  0.70066  0.51157  0.01087  1.0000
  C   C803      1.0  0.56724  0.55494  0.13778  1.0000
  C   C804      1.0  0.62876  0.60050  0.37392  1.0000
  H   H1294     1.0  0.56512  0.53975  0.38955  1.0000
  C   C805      1.0  0.68904  0.67240  0.16218  1.0000
  Fe  Fe165     1.0  0.61928  0.62822  0.97990  1.0000
  H   H1295     1.0  0.68669  0.66064  0.44995  1.0000
  H   H1296     1.0  0.67156  0.63545  0.40001  1.0000
  C   C806      1.0  0.75897  0.44427  0.23808  1.0000
  C   C807      1.0  0.64998  0.66919  0.15400  1.0000
  H   H1297     1.0  0.58494  0.55532  0.40671  1.0000
  H   H1298     1.0  0.65378  0.64925  0.42460  1.0000
  N   N79       1.0  0.67823  0.66890  0.40874  1.0000
  C   C808      1.0  0.53210  0.57656  0.14191  1.0000
  N   N80       1.0  0.76338  0.38112  0.16856  1.0000
  H   H1299     1.0  0.75134  0.38344  0.45850  1.0000
  H   H1300     1.0  0.76372  0.40751  0.47013  1.0000
  S   S327      1.0  0.54035  0.62020  0.45996  1.0000
  H   H1301     1.0  0.52327  0.59332  0.14312  1.0000
  H   H1302     1.0  0.64996  0.65580  0.38959  1.0000
  Fe  Fe166     1.0  0.76587  0.43596  0.36797  1.0000
  C   C809      1.0  0.75495  0.34644  0.34045  1.0000
  C   C810      1.0  0.76270  0.38973  0.47413  1.0000
  Fe  Fe167     1.0  0.76631  0.43245  0.30598  1.0000
  H   H1303     1.0  0.76629  0.41341  0.15356  1.0000
  C   C811      1.0  0.76627  0.38811  0.19704  1.0000
  H   H1304     1.0  0.65015  0.67867  0.13492  1.0000
  H   H1305     1.0  0.75039  0.36585  0.83507  1.0000
  S   S328      1.0  0.61608  0.56647  0.54191  1.0000
  Fe  Fe168     1.0  0.72580  0.46447  0.59492  1.0000
  S   S329      1.0  0.53833  0.61497  0.95964  1.0000
  S   S330      1.0  0.69607  0.48917  0.59965  1.0000
  Fe  Fe169     1.0  0.74305  0.41638  0.58734  1.0000
  H   H1306     1.0  0.64756  0.63966  0.63253  1.0000
  S   S331      1.0  0.73231  0.38202  0.58344  1.0000
  H   H1307     1.0  0.68379  0.54689  0.50382  1.0000
  H   H1308     1.0  0.69677  0.64311  0.67784  1.0000
  H   H1309     1.0  0.73479  0.41145  0.67816  1.0000
  C   C812      1.0  0.75071  0.45513  0.48472  1.0000
  S   S332      1.0  0.73484  0.43727  0.62398  1.0000
  S   S333      1.0  0.73036  0.44252  0.55809  1.0000
  Fe  Fe170     1.0  0.61729  0.58040  0.75637  1.0000
  S   S334      1.0  0.61017  0.54496  0.75609  1.0000
  S   S335      1.0  0.62066  0.60206  0.79342  1.0000
  Fe  Fe171     1.0  0.61462  0.58332  0.69458  1.0000
  S   S336      1.0  0.60684  0.54820  0.68982  1.0000
  H   H1310     1.0  0.51880  0.58846  0.67154  1.0000
  Fe  Fe172     1.0  0.58408  0.55541  0.72481  1.0000
  Fe  Fe173     1.0  0.63370  0.54136  0.72108  1.0000
  S   S337      1.0  0.66095  0.51357  0.71777  1.0000
  S   S338      1.0  0.58975  0.59106  0.72716  1.0000
  S   S339      1.0  0.64291  0.57618  0.72388  1.0000
  H   H1311     1.0  0.63080  0.54255  0.85991  1.0000
  C   C813      1.0  0.76007  0.44434  0.73844  1.0000
  S   S340      1.0  0.74694  0.44052  0.76923  1.0000
  H   H1312     1.0  0.74270  0.35509  0.49167  1.0000
  C   C814      1.0  0.65804  0.64047  0.65115  1.0000
  H   H1313     1.0  0.63160  0.65349  0.53444  1.0000
  C   C815      1.0  0.65494  0.51754  0.51558  1.0000
  H   H1314     1.0  0.66357  0.63886  0.89588  1.0000
  C   C816      1.0  0.62681  0.57449  0.87917  1.0000
  H   H1315     1.0  0.54340  0.58997  0.73700  1.0000
  H   H1316     1.0  0.63958  0.52898  0.51651  1.0000
  H   H1317     1.0  0.67557  0.46438  0.78511  1.0000
  H   H1318     1.0  0.66314  0.55932  0.52619  1.0000
  C   C817      1.0  0.56555  0.58634  0.90444  1.0000
  H   H1319     1.0  0.55797  0.56439  0.64339  1.0000
  C   C818      1.0  0.64438  0.66478  0.53390  1.0000
  H   H1320     1.0  0.54464  0.57569  0.48162  1.0000
  H   H1321     1.0  0.76493  0.39270  0.54270  1.0000
  S   S341      1.0  0.64361  0.65909  0.47836  1.0000
  C   C819      1.0  0.68745  0.47136  0.77142  1.0000
  H   H1322     1.0  0.69880  0.66814  0.62473  1.0000
  H   H1323     1.0  0.56939  0.61896  0.67187  1.0000
  N   N81       1.0  0.67281  0.65844  0.64990  1.0000
  H   H1324     1.0  0.72321  0.46916  0.80467  1.0000
  Fe  Fe174     1.0  0.57480  0.60830  0.97076  1.0000
  C   C820      1.0  0.52049  0.59359  0.95814  1.0000
  H   H1325     1.0  0.64621  0.65602  0.91825  1.0000
  Fe  Fe175     1.0  0.61705  0.58591  0.94701  1.0000
  C   C821      1.0  0.73423  0.39373  0.67280  1.0000
  C   C822      1.0  0.74701  0.44960  0.71542  1.0000
  C   C823      1.0  0.66359  0.64915  0.91462  1.0000
  H   H1326     1.0  0.72915  0.45188  0.71695  1.0000
  H   H1327     1.0  0.74676  0.45651  0.67293  1.0000
  C   C824      1.0  0.75696  0.45195  0.69035  1.0000
  C   C825      1.0  0.62357  0.59713  0.87496  1.0000
  H   H1328     1.0  0.56735  0.54300  0.91174  1.0000
  C   C826      1.0  0.61510  0.60106  0.57857  1.0000
  N   N82       1.0  0.67257  0.52514  0.53349  1.0000
  C   C827      1.0  0.68041  0.50752  0.79148  1.0000
  H   H1329     1.0  0.73249  0.46727  0.95174  1.0000
  C   C828      1.0  0.68687  0.49605  0.63274  1.0000
  C   C829      1.0  0.66921  0.51226  0.63631  1.0000
  C   C830      1.0  0.66141  0.51793  0.66230  1.0000
  C   C831      1.0  0.67097  0.50722  0.68498  1.0000
  C   C832      1.0  0.68872  0.49108  0.68150  1.0000
  C   C833      1.0  0.69672  0.48561  0.65549  1.0000
  H   H1330     1.0  0.66138  0.52049  0.61904  1.0000
  H   H1331     1.0  0.64788  0.53049  0.66470  1.0000
  H   H1332     1.0  0.69627  0.48274  0.69891  1.0000
  H   H1333     1.0  0.71038  0.47322  0.65309  1.0000
  C   C834      1.0  0.61642  0.57828  0.57453  1.0000
  C   C835      1.0  0.61820  0.56442  0.59693  1.0000
  C   C836      1.0  0.61873  0.57323  0.62321  1.0000
  C   C837      1.0  0.61703  0.59596  0.62735  1.0000
  H   H1334     1.0  0.61915  0.54678  0.59404  1.0000
  H   H1335     1.0  0.62055  0.56233  0.64017  1.0000
  H   H1336     1.0  0.66836  0.63812  0.93190  1.0000
  C   C838      1.0  0.62302  0.59094  0.82614  1.0000
  C   C839      1.0  0.62619  0.56827  0.83032  1.0000
  C   C840      1.0  0.62822  0.56009  0.85678  1.0000
  H   H1337     1.0  0.62732  0.55709  0.81318  1.0000
  H   H1338     1.0  0.52435  0.58474  0.88535  1.0000
  N   N83       1.0  0.55790  0.56989  0.88513  1.0000
  H   H1339     1.0  0.55693  0.60297  0.90111  1.0000
  H   H1340     1.0  0.69909  0.50804  0.51101  1.0000
  C   C841      1.0  0.73251  0.39764  0.50505  1.0000
  H   H1341     1.0  0.66018  0.51651  0.49412  1.0000
  C   C842      1.0  0.56991  0.54824  0.89064  1.0000
  H   H1342     1.0  0.58365  0.58769  0.90278  1.0000
  S   S342      1.0  0.60003  0.61969  0.94248  1.0000
  C   C843      1.0  0.68638  0.65889  0.67498  1.0000
  S   S343      1.0  0.75468  0.46119  0.90118  1.0000
  H   H1343     1.0  0.67785  0.53150  0.57587  1.0000
  H   H1344     1.0  0.57885  0.58033  0.65758  1.0000
  H   H1345     1.0  0.70754  0.64612  0.92495  1.0000
  H   H1346     1.0  0.74679  0.35700  0.64497  1.0000
  H   H1347     1.0  0.56439  0.53528  0.87670  1.0000
  H   H1348     1.0  0.66754  0.62413  0.65336  1.0000
  H   H1349     1.0  0.69793  0.63890  0.62780  1.0000
  H   H1350     1.0  0.70016  0.45784  0.76577  1.0000
  H   H1351     1.0  0.58043  0.57793  0.85438  1.0000
  N   N84       1.0  0.54726  0.59843  0.65121  1.0000
  C   C844      1.0  0.52631  0.56263  0.72245  1.0000
  H   H1352     1.0  0.62273  0.60838  0.89199  1.0000
  S   S344      1.0  0.63999  0.59657  0.48078  1.0000
  H   H1353     1.0  0.70606  0.51456  0.54556  1.0000
  S   S345      1.0  0.59494  0.62348  0.50706  1.0000
  N   N85       1.0  0.67869  0.66680  0.91259  1.0000
  H   H1354     1.0  0.66829  0.50155  0.80570  1.0000
  H   H1355     1.0  0.72040  0.39130  0.49040  1.0000
  N   N86       1.0  0.75674  0.38221  0.67217  1.0000
  H   H1356     1.0  0.68900  0.49275  0.53841  1.0000
  H   H1357     1.0  0.64661  0.64267  0.66858  1.0000
  N   N87       1.0  0.75489  0.38625  0.50178  1.0000
  H   H1358     1.0  0.53006  0.56308  0.90909  1.0000
  C   C845      1.0  0.75003  0.46421  0.95621  1.0000
  H   H1359     1.0  0.67819  0.47655  0.75258  1.0000
  H   H1360     1.0  0.71333  0.67007  0.90661  1.0000
  C   C846      1.0  0.75402  0.36249  0.50645  1.0000
  C   C847      1.0  0.56089  0.57792  0.65793  1.0000
  H   H1361     1.0  0.69111  0.55341  0.53824  1.0000
  C   C848      1.0  0.75175  0.35896  0.58690  1.0000
  H   H1362     1.0  0.65988  0.51027  0.56849  1.0000
  H   H1363     1.0  0.54164  0.63143  0.66699  1.0000
  C   C849      1.0  0.69257  0.50946  0.53190  1.0000
  S   S346      1.0  0.61593  0.60733  0.66025  1.0000
  H   H1364     1.0  0.61386  0.62752  0.60795  1.0000
  C   C850      1.0  0.66476  0.52641  0.56163  1.0000
  C   C851      1.0  0.52717  0.57254  0.96766  1.0000
  H   H1365     1.0  0.74794  0.35942  0.52709  1.0000
  H   H1366     1.0  0.74556  0.35048  0.68013  1.0000
  C   C852      1.0  0.53384  0.56848  0.88838  1.0000
  H   H1367     1.0  0.55091  0.59278  0.60841  1.0000
  H   H1368     1.0  0.71803  0.49598  0.81944  1.0000
  H   H1369     1.0  0.65013  0.53848  0.56387  1.0000
  H   H1370     1.0  0.72564  0.39281  0.65275  1.0000
  C   C853      1.0  0.55158  0.61567  0.67140  1.0000
  C   C854      1.0  0.65319  0.67013  0.50914  1.0000
  H   H1371     1.0  0.55368  0.59286  0.85248  1.0000
  H   H1372     1.0  0.72616  0.39543  0.52577  1.0000
  S   S347      1.0  0.75991  0.47616  0.59329  1.0000
  H   H1373     1.0  0.54286  0.62088  0.61802  1.0000
  C   C855      1.0  0.67795  0.54714  0.52503  1.0000
  H   H1374     1.0  0.73257  0.41561  0.50174  1.0000
  S   S348      1.0  0.62848  0.56370  0.91211  1.0000
  H   H1375     1.0  0.65040  0.50103  0.52151  1.0000
  H   H1376     1.0  0.51966  0.58170  0.63627  1.0000
  H   H1377     1.0  0.51809  0.54704  0.48264  1.0000
  C   C856      1.0  0.70157  0.65708  0.90807  1.0000
  H   H1378     1.0  0.54742  0.61073  0.69212  1.0000
  C   C857      1.0  0.62176  0.60531  0.84855  1.0000
  H   H1379     1.0  0.61388  0.61189  0.56142  1.0000
  S   S349      1.0  0.54977  0.54340  0.72311  1.0000
  H   H1380     1.0  0.67089  0.51364  0.77327  1.0000
  H   H1381     1.0  0.61938  0.62286  0.84541  1.0000
  C   C858      1.0  0.61531  0.60989  0.60496  1.0000
  H   H1382     1.0  0.73974  0.45815  0.50161  1.0000
  H   H1383     1.0  0.69873  0.47563  0.82394  1.0000
  C   C859      1.0  0.52782  0.58464  0.72976  1.0000
  Fe  Fe176     1.0  0.61143  0.58908  0.50636  1.0000
  N   N88       1.0  0.69780  0.48996  0.78436  1.0000
  C   C860      1.0  0.71337  0.49856  0.76530  1.0000
  C   C861      1.0  0.70994  0.48240  0.80919  1.0000
  H   H1384     1.0  0.68762  0.52188  0.80115  1.0000
  H   H1385     1.0  0.72666  0.48566  0.75946  1.0000
  H   H1386     1.0  0.72155  0.51261  0.77426  1.0000
  H   H1387     1.0  0.70467  0.50438  0.74634  1.0000
  H   H1388     1.0  0.57080  0.60938  0.62355  1.0000
  C   C862      1.0  0.68751  0.65478  0.62641  1.0000
  C   C863      1.0  0.56240  0.57655  0.85728  1.0000
  H   H1389     1.0  0.58810  0.54869  0.88812  1.0000
  C   C864      1.0  0.55313  0.60569  0.62408  1.0000
  H   H1390     1.0  0.67780  0.65455  0.60710  1.0000
  C   C865      1.0  0.76492  0.45995  0.93492  1.0000
  H   H1391     1.0  0.52732  0.55652  0.87380  1.0000
  H   H1392     1.0  0.69773  0.67228  0.67465  1.0000
  H   H1393     1.0  0.56235  0.58186  0.92561  1.0000
  Fe  Fe177     1.0  0.62227  0.63042  0.47887  1.0000
  H   H1394     1.0  0.55712  0.56440  0.84206  1.0000
  H   H1395     1.0  0.70271  0.64721  0.88899  1.0000
  H   H1396     1.0  0.55722  0.57214  0.67847  1.0000
  H   H1397     1.0  0.64438  0.67073  0.57693  1.0000
  H   H1398     1.0  0.72373  0.38651  0.68799  1.0000
  C   C866      1.0  0.65168  0.67455  0.55797  1.0000
  C   C867      1.0  0.52355  0.59442  0.65149  1.0000
  H   H1399     1.0  0.76192  0.39182  0.63139  1.0000
  C   C868      1.0  0.75492  0.34942  0.84230  1.0000
  S   S350      1.0  0.75678  0.41689  0.84193  1.0000
  H   H1400     1.0  0.68349  0.66939  0.95561  1.0000
  S   S351      1.0  0.59085  0.57399  0.97317  1.0000
  H   H1401     1.0  0.67579  0.66164  0.69312  1.0000
  Fe  Fe178     1.0  0.76531  0.45190  0.55887  1.0000
  C   C869      1.0  0.75519  0.35881  0.66499  1.0000
  H   H1402     1.0  0.75797  0.37677  0.71510  1.0000
  H   H1403     1.0  0.67174  0.67206  0.87030  1.0000
  H   H1404     1.0  0.51769  0.53978  0.97401  1.0000
  Fe  Fe179     1.0  0.74766  0.72313  0.06076  1.0000
  S   S352      1.0  0.71339  0.74046  0.06088  1.0000
  Fe  Fe180     1.0  0.74927  0.71734  0.12214  1.0000
  S   S353      1.0  0.71512  0.73402  0.12667  1.0000
  S   S354      1.0  0.72415  0.71746  0.40893  1.0000
  Fe  Fe181     1.0  0.70630  0.71410  0.09005  1.0000
  H   H1405     1.0  0.75860  0.85215  0.24651  1.0000
  Fe  Fe182     1.0  0.72594  0.75856  0.09724  1.0000
  S   S355      1.0  0.73995  0.69562  0.08764  1.0000
  H   H1406     1.0  0.70884  0.93576  0.00638  1.0000
  C   C870      1.0  0.74551  0.77531  0.41030  1.0000
  H   H1407     1.0  0.66747  0.69225  0.99249  1.0000
  H   H1408     1.0  0.72686  0.85867  0.27860  1.0000
  C   C871      1.0  0.66581  0.68994  0.41633  1.0000
  C   C872      1.0  0.72445  0.94213  0.00179  1.0000
  Fe  Fe183     1.0  0.74749  0.72193  0.37458  1.0000
  H   H1409     1.0  0.72222  0.95465  0.24129  1.0000
  H   H1410     1.0  0.67710  0.70333  0.41884  1.0000
  Fe  Fe184     1.0  0.73011  0.90750  0.36560  1.0000
  C   C873      1.0  0.75224  0.77290  0.21141  1.0000
  H   H1411     1.0  0.74209  0.78031  0.22829  1.0000
  S   S356      1.0  0.68457  0.98070  0.35188  1.0000
  H   H1412     1.0  0.73760  0.79501  0.34840  1.0000
  S   S357      1.0  0.71805  0.79501  0.10559  1.0000
  H   H1413     1.0  0.71960  0.75547  0.18348  1.0000
  C   C874      1.0  0.73283  0.83580  0.11308  1.0000
  Fe  Fe185     1.0  0.76045  0.93625  0.15258  1.0000
  C   C875      1.0  0.68439  0.98929  0.27035  1.0000
  C   C876      1.0  0.69004  0.98163  0.29647  1.0000
  C   C877      1.0  0.67815  0.99017  0.31879  1.0000
  H   H1414     1.0  0.70148  0.68429  0.38449  1.0000
  H   H1415     1.0  0.73972  0.95428  0.28685  1.0000
  H   H1416     1.0  0.69355  0.98249  0.25319  1.0000
  C   C878      1.0  0.74628  0.89359  0.26216  1.0000
  H   H1417     1.0  0.75722  0.75115  0.16407  1.0000
  C   C879      1.0  0.66068  0.00655  0.31478  1.0000
  H   H1418     1.0  0.71556  0.84132  0.11604  1.0000
  S   S358      1.0  0.72443  0.92889  0.32918  1.0000
  C   C880      1.0  0.67238  0.69245  0.03557  1.0000
  H   H1419     1.0  0.70344  0.96899  0.29931  1.0000
  H   H1420     1.0  0.76250  0.89725  0.31274  1.0000
  S   S359      1.0  0.71824  0.87341  0.36451  1.0000
  H   H1421     1.0  0.71157  0.82817  0.35526  1.0000
  H   H1422     1.0  0.72850  0.78374  0.40855  1.0000
  Fe  Fe186     1.0  0.71406  0.95584  0.35867  1.0000
  S   S360      1.0  0.71649  0.93363  0.39489  1.0000
  H   H1423     1.0  0.72611  0.71046  0.17665  1.0000
  N   N89       1.0  0.69293  0.99287  0.16478  1.0000
  H   H1424     1.0  0.68320  0.70562  0.03540  1.0000
  S   S361      1.0  0.74829  0.91331  0.12117  1.0000
  C   C881      1.0  0.75966  0.80811  0.42875  1.0000
  C   C882      1.0  0.72392  0.72106  0.46422  1.0000
  C   C883      1.0  0.75267  0.94508  0.22075  1.0000
  S   S362      1.0  0.73165  0.94237  0.05667  1.0000
  H   H1425     1.0  0.73001  0.78908  0.45868  1.0000
  H   H1426     1.0  0.71086  0.71502  0.22280  1.0000
  H   H1427     1.0  0.72696  0.95273  0.45812  1.0000
  H   H1428     1.0  0.74403  0.86785  0.12067  1.0000
  H   H1429     1.0  0.72218  0.72230  0.00741  1.0000
  H   H1430     1.0  0.68058  0.98721  0.44255  1.0000
  C   C884      1.0  0.70861  0.00153  0.18460  1.0000
  H   H1431     1.0  0.69023  0.68214  0.14352  1.0000
  H   H1432     1.0  0.66381  0.00473  0.14203  1.0000
  C   C885      1.0  0.74715  0.78084  0.45860  1.0000
  H   H1433     1.0  0.65711  0.68860  0.43585  1.0000
  C   C886      1.0  0.76129  0.80668  0.10334  1.0000
  H   H1434     1.0  0.67264  0.98054  0.19540  1.0000
  H   H1435     1.0  0.71788  0.97083  0.14591  1.0000
  S   S363      1.0  0.73890  0.74718  0.34267  1.0000
  C   C887      1.0  0.68197  0.97482  0.17706  1.0000
  S   S364      1.0  0.67681  0.69374  0.09114  1.0000
  C   C888      1.0  0.73900  0.86505  0.29315  1.0000
  C   C889      1.0  0.74401  0.81071  0.35225  1.0000
  S   S365      1.0  0.74817  0.96700  0.36498  1.0000
  H   H1436     1.0  0.75382  0.77705  0.39069  1.0000
  H   H1437     1.0  0.72955  0.87678  0.30707  1.0000
  S   S366      1.0  0.73935  0.94431  0.18900  1.0000
  C   C890      1.0  0.73729  0.85012  0.36085  1.0000
  C   C891      1.0  0.72862  0.71331  0.22006  1.0000
  H   H1438     1.0  0.67005  0.96785  0.16270  1.0000
  H   H1439     1.0  0.71268  0.77847  0.16177  1.0000
  C   C892      1.0  0.75527  0.71572  0.99229  1.0000
  H   H1440     1.0  0.73465  0.88747  0.24677  1.0000
  C   C893      1.0  0.76017  0.85178  0.36170  1.0000
  C   C894      1.0  0.68753  0.99771  0.42719  1.0000
  C   C895      1.0  0.73985  0.95042  0.24357  1.0000
  C   C896      1.0  0.67600  0.01066  0.15689  1.0000
  C   C897      1.0  0.73888  0.81361  0.10698  1.0000
  Fe  Fe187     1.0  0.75164  0.94245  0.39865  1.0000
  C   C898      1.0  0.72928  0.82953  0.35615  1.0000
  H   H1441     1.0  0.74609  0.85097  0.30548  1.0000
  H   H1442     1.0  0.70337  0.00313  0.43556  1.0000
  H   H1443     1.0  0.65307  0.69522  0.40074  1.0000
  C   C899      1.0  0.73687  0.71709  0.44117  1.0000
  N   N90       1.0  0.74297  0.77999  0.18479  1.0000
  C   C900      1.0  0.74284  0.71354  0.24274  1.0000
  H   H1444     1.0  0.75274  0.75473  0.21348  1.0000
  H   H1445     1.0  0.73675  0.89350  0.00057  1.0000
  H   H1446     1.0  0.65431  0.99827  0.39036  1.0000
  H   H1447     1.0  0.76288  0.88455  0.06810  1.0000
  H   H1448     1.0  0.69426  0.96118  0.18343  1.0000
  C   C901      1.0  0.72008  0.77357  0.18183  1.0000
  H   H1449     1.0  0.75986  0.80952  0.18358  1.0000
  C   C902      1.0  0.76147  0.95124  0.46967  1.0000
  C   C903      1.0  0.76015  0.70852  0.19020  1.0000
  C   C904      1.0  0.75901  0.95559  0.01694  1.0000
  Fe  Fe188     1.0  0.75880  0.93857  0.33772  1.0000
  H   H1450     1.0  0.75902  0.90182  0.25111  1.0000
  Fe  Fe189     1.0  0.75732  0.93765  0.09059  1.0000
  C   C905      1.0  0.74899  0.85092  0.11569  1.0000
  S   S367      1.0  0.73112  0.71690  0.27507  1.0000
  C   C906      1.0  0.74968  0.94992  0.26942  1.0000
  Fe  Fe190     1.0  0.75185  0.72106  0.31304  1.0000
  H   H1451     1.0  0.70910  0.78143  0.19767  1.0000
  C   C907      1.0  0.73893  0.94726  0.02299  1.0000
  C   C908      1.0  0.73722  0.71086  0.19390  1.0000
  S   S368      1.0  0.75705  0.69498  0.34473  1.0000
  H   H1452     1.0  0.75020  0.77424  0.14284  1.0000
  H   H1453     1.0  0.76438  0.84868  0.00692  1.0000
  H   H1454     1.0  0.69174  0.98707  0.40920  1.0000
  H   H1455     1.0  0.73123  0.87156  0.02288  1.0000
  C   C909      1.0  0.70515  0.98444  0.14062  1.0000
  H   H1456     1.0  0.72159  0.98855  0.19105  1.0000
  H   H1457     1.0  0.74583  0.76303  0.46210  1.0000
  H   H1458     1.0  0.73674  0.90641  0.27452  1.0000
  H   H1459     1.0  0.74289  0.81709  0.42693  1.0000
  C   C910      1.0  0.66687  0.00559  0.26630  1.0000
  H   H1460     1.0  0.70604  0.72346  0.46224  1.0000
  H   H1461     1.0  0.74379  0.75753  0.41297  1.0000
  H   H1462     1.0  0.69386  0.97787  0.12511  1.0000
  C   C911      1.0  0.65107  0.00860  0.40881  1.0000
  C   C912      1.0  0.73220  0.71937  0.98967  1.0000
  N   N91       1.0  0.75830  0.78434  0.43286  1.0000
  N   N92       1.0  0.75654  0.87568  0.27922  1.0000
  H   H1463     1.0  0.73521  0.80993  0.16303  1.0000
  C   C913      1.0  0.66673  0.68358  0.06013  1.0000
  C   C914      1.0  0.74060  0.88630  0.02084  1.0000
  S   S369      1.0  0.76072  0.74304  0.09497  1.0000
  H   H1464     1.0  0.69999  0.00787  0.20318  1.0000
  C   C915      1.0  0.73015  0.94498  0.97468  1.0000
  C   C916      1.0  0.75991  0.71371  0.44401  1.0000
  H   H1465     1.0  0.73395  0.89860  0.03612  1.0000
  H   H1466     1.0  0.64308  0.99847  0.42368  1.0000
  C   C917      1.0  0.66351  0.68473  0.01118  1.0000
  H   H1467     1.0  0.76060  0.85711  0.05580  1.0000
  C   C918      1.0  0.75678  0.76934  0.16316  1.0000
  H   H1468     1.0  0.71391  0.99749  0.13098  1.0000
  C   C919      1.0  0.74278  0.80412  0.18261  1.0000
  H   H1469     1.0  0.73297  0.81274  0.19898  1.0000
  C   C920      1.0  0.76579  0.71117  0.23910  1.0000
  N   N93       1.0  0.76469  0.88085  0.02486  1.0000
  C   C921      1.0  0.76451  0.95883  0.98987  1.0000
  H   H1470     1.0  0.68553  0.68429  0.17913  1.0000
  S   S370      1.0  0.76582  0.96224  0.12244  1.0000
  S   S371      1.0  0.76541  0.91482  0.37165  1.0000
  H   H1471     1.0  0.76624  0.78971  0.09848  1.0000
  H   H1472     1.0  0.64533  0.68105  0.17062  1.0000
  S   S372      1.0  0.71645  0.92602  0.82904  1.0000
  S   S373      1.0  0.71470  0.74737  0.55940  1.0000
  Fe  Fe191     1.0  0.74924  0.72358  0.62139  1.0000
  S   S374      1.0  0.71509  0.74039  0.62509  1.0000
  S   S375      1.0  0.71202  0.87228  0.86849  1.0000
  Fe  Fe192     1.0  0.70687  0.72086  0.58794  1.0000
  H   H1473     1.0  0.72467  0.85668  0.78097  1.0000
  Fe  Fe193     1.0  0.72652  0.76516  0.59640  1.0000
  S   S376      1.0  0.74041  0.70212  0.58636  1.0000
  C   C922      1.0  0.73609  0.86270  0.79667  1.0000
  C   C923      1.0  0.75719  0.72003  0.49249  1.0000
  S   S377      1.0  0.74763  0.92310  0.61803  1.0000
  H   H1474     1.0  0.76561  0.79714  0.59507  1.0000
  Fe  Fe194     1.0  0.70387  0.95422  0.85575  1.0000
  H   H1475     1.0  0.68463  0.95662  0.79614  1.0000
  H   H1476     1.0  0.66957  0.96876  0.65198  1.0000
  H   H1477     1.0  0.71778  0.78743  0.89567  1.0000
  H   H1478     1.0  0.73090  0.76300  0.96286  1.0000
  H   H1479     1.0  0.68920  0.69334  0.93715  1.0000
  H   H1480     1.0  0.70143  0.79298  0.92535  1.0000
  C   C924      1.0  0.67096  0.00082  0.92003  1.0000
  S   S378      1.0  0.67460  0.97908  0.84772  1.0000
  C   C925      1.0  0.71623  0.78309  0.91729  1.0000
  H   H1481     1.0  0.75561  0.81398  0.94358  1.0000
  C   C926      1.0  0.74323  0.80938  0.68234  1.0000
  Fe  Fe195     1.0  0.74633  0.72234  0.87469  1.0000
  N   N94       1.0  0.75472  0.87298  0.78456  1.0000
  H   H1482     1.0  0.74283  0.81569  0.91076  1.0000
  C   C927      1.0  0.67422  0.97158  0.79232  1.0000
  C   C928      1.0  0.66767  0.98568  0.81380  1.0000
  H   H1483     1.0  0.70430  0.72309  0.96202  1.0000
  H   H1484     1.0  0.59027  0.98275  0.81764  1.0000
  N   N95       1.0  0.74325  0.78523  0.68387  1.0000
  H   H1485     1.0  0.71299  0.78427  0.66064  1.0000
  S   S379      1.0  0.67661  0.70163  0.58808  1.0000
  C   C929      1.0  0.74640  0.95658  0.52325  1.0000
  H   H1486     1.0  0.75707  0.75672  0.66216  1.0000
  C   C930      1.0  0.73640  0.71651  0.69337  1.0000
  H   H1487     1.0  0.67140  0.96533  0.74938  1.0000
  H   H1488     1.0  0.73592  0.81555  0.66276  1.0000
  S   S380      1.0  0.71807  0.80139  0.60584  1.0000
  H   H1489     1.0  0.71896  0.94090  0.95849  1.0000
  H   H1490     1.0  0.57014  0.99532  0.87345  1.0000
  C   C931      1.0  0.73496  0.71596  0.94073  1.0000
  N   N96       1.0  0.68667  0.99607  0.66665  1.0000
  Fe  Fe196     1.0  0.72207  0.90710  0.86756  1.0000
  H   H1491     1.0  0.74223  0.78471  0.72734  1.0000
  H   H1492     1.0  0.64903  0.68000  0.62808  1.0000
  C   C932      1.0  0.67785  0.97455  0.67064  1.0000
  Fe  Fe197     1.0  0.75001  0.93753  0.83796  1.0000
  H   H1493     1.0  0.71961  0.79036  0.97095  1.0000
  C   C933      1.0  0.65421  0.00503  0.80847  1.0000
  H   H1494     1.0  0.71008  0.01001  0.64112  1.0000
  H   H1495     1.0  0.66987  0.69361  0.64595  1.0000
  C   C934      1.0  0.74050  0.81082  0.85397  1.0000
  C   C935      1.0  0.64659  0.00995  0.78210  1.0000
  H   H1496     1.0  0.72397  0.72574  0.50751  1.0000
  C   C936      1.0  0.73872  0.95324  0.47476  1.0000
  C   C937      1.0  0.72774  0.71844  0.71956  1.0000
  H   H1497     1.0  0.69128  0.96174  0.67631  1.0000
  H   H1498     1.0  0.70743  0.82707  0.85588  1.0000
  S   S381      1.0  0.73715  0.96713  0.86189  1.0000
  S   S382      1.0  0.73782  0.74823  0.84364  1.0000
  C   C938      1.0  0.65251  0.99553  0.76076  1.0000
  C   C939      1.0  0.69755  0.00300  0.69195  1.0000
  H   H1499     1.0  0.70932  0.78665  0.69656  1.0000
  C   C940      1.0  0.67727  0.69437  0.53281  1.0000
  S   S383      1.0  0.72235  0.71820  0.90847  1.0000
  C   C941      1.0  0.75240  0.77758  0.71033  1.0000
  C   C942      1.0  0.74861  0.94794  0.72048  1.0000
  H   H1500     1.0  0.73612  0.90419  0.77839  1.0000
  H   H1501     1.0  0.75095  0.85589  0.53044  1.0000
  S   S384      1.0  0.75771  0.95830  0.93509  1.0000
  C   C943      1.0  0.72030  0.77901  0.68059  1.0000
  H   H1502     1.0  0.60111  0.97393  0.85021  1.0000
  H   H1503     1.0  0.68575  0.00446  0.70901  1.0000
  H   H1504     1.0  0.71739  0.95766  0.73943  1.0000
  H   H1505     1.0  0.75157  0.91456  0.55001  1.0000
  H   H1506     1.0  0.75835  0.84942  0.75195  1.0000
  Fe  Fe198     1.0  0.74074  0.94509  0.89798  1.0000
  C   C944      1.0  0.73122  0.95605  0.50150  1.0000
  H   H1507     1.0  0.73249  0.95363  0.78609  1.0000
  C   C945      1.0  0.75469  0.85219  0.86694  1.0000
  H   H1508     1.0  0.71969  0.76090  0.68177  1.0000
  H   H1509     1.0  0.71362  0.95768  0.50538  1.0000
  N   N97       1.0  0.59305  0.00883  0.84689  1.0000
  H   H1510     1.0  0.73514  0.89154  0.54900  1.0000
  S   S385      1.0  0.70632  0.93440  0.89392  1.0000
  S   S386      1.0  0.73012  0.72035  0.77474  1.0000
  H   H1511     1.0  0.73488  0.79504  0.84863  1.0000
  S   S387      1.0  0.75581  0.69605  0.84390  1.0000
  H   H1512     1.0  0.72609  0.87452  0.80995  1.0000
  C   C946      1.0  0.60092  0.98724  0.83506  1.0000
  C   C947      1.0  0.57046  0.00789  0.85741  1.0000
  H   H1513     1.0  0.68990  0.70582  0.53222  1.0000
  H   H1514     1.0  0.72533  0.71674  0.67603  1.0000
  C   C948      1.0  0.73218  0.84261  0.61235  1.0000
  C   C949      1.0  0.73476  0.95239  0.74267  1.0000
  C   C950      1.0  0.72206  0.71956  0.96391  1.0000
  C   C951      1.0  0.73406  0.72249  0.48987  1.0000
  C   C952      1.0  0.73838  0.82051  0.60578  1.0000
  S   S388      1.0  0.73725  0.95042  0.68764  1.0000
  S   S389      1.0  0.73661  0.95950  0.55664  1.0000
  C   C953      1.0  0.70301  0.99411  0.64468  1.0000
  C   C954      1.0  0.75241  0.89634  0.55075  1.0000
  C   C955      1.0  0.72497  0.82901  0.85805  1.0000
  H   H1515     1.0  0.75642  0.78722  0.47619  1.0000
  H   H1516     1.0  0.74302  0.87508  0.61854  1.0000
  H   H1517     1.0  0.55862  0.00368  0.84109  1.0000
  C   C956      1.0  0.67153  0.68132  0.88984  1.0000
  C   C957      1.0  0.74327  0.95001  0.76912  1.0000
  H   H1518     1.0  0.75312  0.75578  0.92194  1.0000
  C   C958      1.0  0.74189  0.71781  0.74235  1.0000
  H   H1519     1.0  0.67334  0.98637  0.90607  1.0000
  Fe  Fe199     1.0  0.74889  0.72979  0.56015  1.0000
  H   H1520     1.0  0.71503  0.84774  0.61670  1.0000
  N   N98       1.0  0.73653  0.78699  0.93299  1.0000
  C   C959      1.0  0.73200  0.84977  0.86444  1.0000
  H   H1521     1.0  0.76035  0.81464  0.68378  1.0000
  C   C960      1.0  0.66664  0.97650  0.76585  1.0000
  S   S390      1.0  0.64215  0.00079  0.72775  1.0000
  H   H1522     1.0  0.71150  0.99091  0.69807  1.0000
  H   H1523     1.0  0.70534  0.99014  0.95416  1.0000
  H   H1524     1.0  0.68266  0.69480  0.88784  1.0000
  H   H1525     1.0  0.76030  0.86804  0.87206  1.0000
  C   C961      1.0  0.74802  0.85815  0.61340  1.0000
  H   H1526     1.0  0.73495  0.88524  0.75048  1.0000
  Fe  Fe200     1.0  0.75081  0.72290  0.81310  1.0000
  H   H1527     1.0  0.75954  0.89891  0.75690  1.0000
  H   H1528     1.0  0.61812  0.98722  0.82750  1.0000
  H   H1529     1.0  0.65440  0.68910  0.89275  1.0000
  C   C962      1.0  0.66812  0.68939  0.55751  1.0000
  H   H1530     1.0  0.70997  0.72035  0.72222  1.0000
  C   C963      1.0  0.76563  0.94299  0.77346  1.0000
  H   H1531     1.0  0.74214  0.84841  0.80929  1.0000
  C   C964      1.0  0.76485  0.71518  0.73878  1.0000
  C   C965      1.0  0.73389  0.78065  0.96141  1.0000
  H   H1532     1.0  0.60923  0.00175  0.88525  1.0000
  H   H1533     1.0  0.75081  0.78052  0.64184  1.0000
  S   S391      1.0  0.75672  0.91639  0.87444  1.0000
  H   H1534     1.0  0.74023  0.88739  0.49947  1.0000
  H   H1535     1.0  0.66551  0.97539  0.68711  1.0000
  H   H1536     1.0  0.72619  0.82116  0.94007  1.0000
  C   C966      1.0  0.75706  0.77490  0.66205  1.0000
  H   H1537     1.0  0.66546  0.99486  0.93975  1.0000
  H   H1538     1.0  0.73327  0.81777  0.69874  1.0000
  H   H1539     1.0  0.71282  0.76546  0.91777  1.0000
  C   C967      1.0  0.76319  0.81319  0.85664  1.0000
  H   H1540     1.0  0.71712  0.98177  0.64956  1.0000
  C   C968      1.0  0.75789  0.71150  0.94350  1.0000
  C   C969      1.0  0.75933  0.71384  0.68977  1.0000
  C   C970      1.0  0.74593  0.89107  0.76680  1.0000
  C   C971      1.0  0.74044  0.81050  0.93189  1.0000
  Fe  Fe201     1.0  0.75980  0.94874  0.59134  1.0000
  Fe  Fe202     1.0  0.76007  0.94306  0.65251  1.0000
  S   S392      1.0  0.76132  0.74948  0.59497  1.0000
  C   C972      1.0  0.76059  0.81405  0.60025  1.0000
  C   C973      1.0  0.75560  0.77359  0.92132  1.0000
  H   H1541     1.0  0.75803  0.77780  0.89980  1.0000
  H   H1542     1.0  0.65965  0.00790  0.64041  1.0000
  H   H1543     1.0  0.75279  0.75938  0.71185  1.0000
  H   H1544     1.0  0.75888  0.89147  0.57113  1.0000
  H   H1545     1.0  0.71272  0.98188  0.92034  1.0000
  H   H1546     1.0  0.69545  0.98877  0.62529  1.0000
  C   C974      1.0  0.67811  0.67981  0.93799  1.0000
  H   H1547     1.0  0.67651  0.68923  0.48963  1.0000
  H   H1548     1.0  0.66106  0.68728  0.94223  1.0000
  C   C975      1.0  0.75018  0.95347  0.96866  1.0000
  C   C976      1.0  0.70948  0.99640  0.93400  1.0000
  H   H1549     1.0  0.75890  0.89416  0.81895  1.0000
  C   C977      1.0  0.75718  0.89278  0.50255  1.0000
  H   H1550     1.0  0.70106  0.00603  0.88186  1.0000
  H   H1551     1.0  0.75580  0.91096  0.50047  1.0000
  C   C978      1.0  0.66967  0.68493  0.50868  1.0000
  H   H1552     1.0  0.72540  0.00412  0.93638  1.0000
  C   C979      1.0  0.65927  0.67965  0.64702  1.0000
  H   H1553     1.0  0.64782  0.68290  0.66424  1.0000
  H   H1554     1.0  0.74902  0.78303  0.97379  1.0000
  H   H1555     1.0  0.65721  0.01210  0.91148  1.0000
  N   N99       1.0  0.69154  0.01201  0.92316  1.0000
  Fe  Fe203     1.0  0.90360  0.09299  0.44454  1.0000
  S   S393      1.0  0.91075  0.12819  0.44123  1.0000
  S   S394      1.0  0.89588  0.07058  0.40939  1.0000
  Fe  Fe204     1.0  0.91718  0.09318  0.00603  1.0000
  S   S395      1.0  0.92740  0.12742  0.01169  1.0000
  S   S396      1.0  0.91612  0.06870  0.03952  1.0000
  C   C980      1.0  0.85517  0.15187  0.41496  1.0000
  H   H1556     1.0  0.80561  0.28368  0.02085  1.0000
  C   C981      1.0  0.79782  0.30089  0.02117  1.0000
  H   H1557     1.0  0.98645  0.08469  0.98971  1.0000
  N   N100      1.0  0.83083  0.15370  0.41111  1.0000
  H   H1558     1.0  0.77203  0.33526  0.00129  1.0000
  Fe  Fe205     1.0  0.89549  0.03766  0.21923  1.0000
  S   S397      1.0  0.87671  0.07106  0.22235  1.0000
  Fe  Fe206     1.0  0.94059  0.05711  0.21702  1.0000
  S   S398      1.0  0.92482  0.09151  0.21950  1.0000
  S   S399      1.0  0.97787  0.04965  0.21213  1.0000
  Fe  Fe207     1.0  0.90363  0.07911  0.25177  1.0000
  S   S400      1.0  0.89816  0.10218  0.28782  1.0000
  Fe  Fe208     1.0  0.89962  0.08027  0.19000  1.0000
  S   S401      1.0  0.88887  0.10344  0.15610  1.0000
  S   S402      1.0  0.92098  0.04508  0.25130  1.0000
  S   S403      1.0  0.91681  0.04643  0.18489  1.0000
  C   C982      1.0  0.77706  0.34067  0.34794  1.0000
  H   H1559     1.0  0.80503  0.20817  0.23962  1.0000
  H   H1560     1.0  0.79225  0.21944  0.19334  1.0000
  C   C983      1.0  0.83563  0.01622  0.28338  1.0000
  H   H1561     1.0  0.80167  0.16120  0.43504  1.0000
  C   C984      1.0  0.99616  0.07073  0.21292  1.0000
  C   C985      1.0  0.98887  0.09255  0.21915  1.0000
  C   C986      1.0  0.01255  0.07378  0.46789  1.0000
  H   H1562     1.0  0.86063  0.13886  0.42978  1.0000
  Fe  Fe209     1.0  0.94834  0.11960  0.97519  1.0000
  H   H1563     1.0  0.97180  0.09682  0.22445  1.0000
  C   C987      1.0  0.77143  0.21143  0.45499  1.0000
  Fe  Fe210     1.0  0.76994  0.23738  0.13608  1.0000
  H   H1564     1.0  0.82489  0.03195  0.28387  1.0000
  H   H1565     1.0  0.81332  0.27250  0.27068  1.0000
  H   H1566     1.0  0.82867  0.11902  0.41569  1.0000
  S   S404      1.0  0.93394  0.08341  0.46968  1.0000
  H   H1567     1.0  0.96671  0.09970  0.10441  1.0000
  C   C988      1.0  0.84849  0.18794  0.06743  1.0000
  S   S405      1.0  0.88832  0.10229  0.97812  1.0000
  S   S406      1.0  0.83904  0.19697  0.09963  1.0000
  S   S407      1.0  0.87499  0.16567  0.98433  1.0000
  C   C989      1.0  0.90559  0.07854  0.07071  1.0000
  C   C990      1.0  0.90114  0.10106  0.07587  1.0000
  C   C991      1.0  0.89531  0.10857  0.10199  1.0000
  C   C992      1.0  0.89390  0.09360  0.12299  1.0000
  C   C993      1.0  0.89741  0.07108  0.11755  1.0000
  C   C994      1.0  0.90331  0.06357  0.09149  1.0000
  H   H1568     1.0  0.90272  0.11271  0.05992  1.0000
  H   H1569     1.0  0.89249  0.12604  0.10602  1.0000
  H   H1570     1.0  0.89565  0.05939  0.13339  1.0000
  H   H1571     1.0  0.90643  0.04612  0.08750  1.0000
  C   C995      1.0  0.89613  0.07964  0.37568  1.0000
  C   C996      1.0  0.89776  0.10173  0.36970  1.0000
  C   C997      1.0  0.89836  0.10835  0.34265  1.0000
  C   C998      1.0  0.89768  0.09294  0.32140  1.0000
  C   C999      1.0  0.89624  0.07081  0.32736  1.0000
  C   C1000     1.0  0.89525  0.06423  0.35443  1.0000
  H   H1572     1.0  0.89841  0.11373  0.38584  1.0000
  H   H1573     1.0  0.89944  0.12550  0.33811  1.0000
  H   H1574     1.0  0.89561  0.05884  0.31111  1.0000
  H   H1575     1.0  0.89399  0.04711  0.35894  1.0000
  C   C1001     1.0  0.86549  0.17085  0.06548  1.0000
  C   C1002     1.0  0.87352  0.16361  0.04007  1.0000
  C   C1003     1.0  0.86479  0.17364  0.01651  1.0000
  C   C1004     1.0  0.84769  0.19060  0.01846  1.0000
  C   C1005     1.0  0.83946  0.19762  0.04381  1.0000
  H   H1576     1.0  0.87260  0.16327  0.08362  1.0000
  H   H1577     1.0  0.88665  0.15048  0.03878  1.0000
  H   H1578     1.0  0.84091  0.19846  0.00033  1.0000
  H   H1579     1.0  0.80348  0.20957  0.97910  1.0000
  H   H1580     1.0  0.82636  0.21071  0.04502  1.0000
  H   H1581     1.0  0.83222  0.16742  0.37137  1.0000
  H   H1582     1.0  0.82473  0.14688  0.45279  1.0000
  C   C1006     1.0  0.78343  0.32741  0.09500  1.0000
  S   S408      1.0  0.80343  0.30524  0.10096  1.0000
  H   H1583     1.0  0.96727  0.07275  0.08889  1.0000
  H   H1584     1.0  0.96695  0.04741  0.36242  1.0000
  H   H1585     1.0  0.77789  0.27523  0.98558  1.0000
  C   C1007     1.0  0.82006  0.15948  0.43718  1.0000
  H   H1586     1.0  0.95957  0.10392  0.15404  1.0000
  H   H1587     1.0  0.93682  0.09084  0.40474  1.0000
  H   H1588     1.0  0.96113  0.09896  0.42168  1.0000
  Fe  Fe211     1.0  0.80956  0.22230  0.10148  1.0000
  H   H1589     1.0  0.95648  0.10509  0.38664  1.0000
  C   C1008     1.0  0.00377  0.10898  0.21870  1.0000
  N   N101      1.0  0.83418  0.14832  0.15365  1.0000
  C   C1009     1.0  0.81443  0.16437  0.15437  1.0000
  C   C1010     1.0  0.83616  0.13810  0.12642  1.0000
  C   C1011     1.0  0.83191  0.13112  0.17390  1.0000
  C   C1012     1.0  0.85427  0.15965  0.15993  1.0000
  H   H1590     1.0  0.81556  0.17760  0.13937  1.0000
  H   H1591     1.0  0.81249  0.17247  0.17458  1.0000
  H   H1592     1.0  0.79898  0.15642  0.14955  1.0000
  H   H1593     1.0  0.83803  0.15061  0.11065  1.0000
  H   H1594     1.0  0.84649  0.11869  0.17388  1.0000
  H   H1595     1.0  0.81697  0.12218  0.16973  1.0000
  H   H1596     1.0  0.83060  0.13821  0.19470  1.0000
  H   H1597     1.0  0.86948  0.14801  0.15948  1.0000
  H   H1598     1.0  0.85345  0.16758  0.18030  1.0000
  H   H1599     1.0  0.85655  0.17267  0.14496  1.0000
  H   H1600     1.0  0.85091  0.12590  0.12524  1.0000
  C   C1013     1.0  0.82385  0.13242  0.40112  1.0000
  H   H1601     1.0  0.94209  0.08570  0.10211  1.0000
  S   S409      1.0  0.78222  0.20652  0.28993  1.0000
  H   H1602     1.0  0.82133  0.12940  0.12086  1.0000
  H   H1603     1.0  0.86390  0.14764  0.39571  1.0000
  H   H1604     1.0  0.80595  0.17271  0.38773  1.0000
  H   H1605     1.0  0.99401  0.06298  0.15670  1.0000
  H   H1606     1.0  0.80023  0.31473  0.36301  1.0000
  H   H1607     1.0  0.80088  0.30775  0.04175  1.0000
  H   H1608     1.0  0.99341  0.08606  0.37608  1.0000
  N   N102      1.0  0.96542  0.07317  0.13237  1.0000
  C   C1014     1.0  0.98962  0.07150  0.13736  1.0000
  C   C1015     1.0  0.95422  0.08696  0.15372  1.0000
  C   C1016     1.0  0.95755  0.05094  0.13274  1.0000
  C   C1017     1.0  0.96027  0.08326  0.10577  1.0000
  C   C1018     1.0  0.77292  0.27822  0.24667  1.0000
  H   H1609     1.0  0.00042  0.05831  0.38731  1.0000
  H   H1610     1.0  0.99603  0.08801  0.13878  1.0000
  C   C1019     1.0  0.77254  0.21336  0.25701  1.0000
  H   H1611     1.0  0.80350  0.26795  0.30410  1.0000
  N   N103      1.0  0.77385  0.30177  0.01465  1.0000
  C   C1020     1.0  0.99626  0.11089  0.45952  1.0000
  H   H1612     1.0  0.96111  0.04293  0.15264  1.0000
  C   C1021     1.0  0.78318  0.31930  0.35709  1.0000
  Fe  Fe212     1.0  0.93988  0.11902  0.46885  1.0000
  H   H1613     1.0  0.87332  0.02041  0.16494  1.0000
  H   H1614     1.0  0.83175  0.12755  0.38150  1.0000
  N   N104      1.0  0.96683  0.07116  0.39494  1.0000
  C   C1022     1.0  0.99065  0.07411  0.39217  1.0000
  C   C1023     1.0  0.96398  0.05505  0.41635  1.0000
  C   C1024     1.0  0.95781  0.06309  0.36909  1.0000
  C   C1025     1.0  0.95480  0.09245  0.40226  1.0000
  H   H1615     1.0  0.95779  0.07992  0.17405  1.0000
  H   H1616     1.0  0.93935  0.05152  0.12911  1.0000
  H   H1617     1.0  0.99778  0.08054  0.41129  1.0000
  H   H1618     1.0  0.97090  0.06046  0.43607  1.0000
  H   H1619     1.0  0.94611  0.05280  0.41938  1.0000
  H   H1620     1.0  0.97256  0.03868  0.41137  1.0000
  H   H1621     1.0  0.94009  0.05992  0.37103  1.0000
  H   H1622     1.0  0.95861  0.07529  0.35270  1.0000
  C   C1026     1.0  0.78050  0.21946  0.20957  1.0000
  H   H1623     1.0  0.99863  0.06194  0.12103  1.0000
  H   H1624     1.0  0.86105  0.16750  0.42296  1.0000
  S   S410      1.0  0.80076  0.24730  0.06950  1.0000
  S   S411      1.0  0.80499  0.24670  0.13602  1.0000
  S   S412      1.0  0.78396  0.20811  0.42315  1.0000
  C   C1027     1.0  0.78707  0.21803  0.98046  1.0000
  Fe  Fe213     1.0  0.79280  0.27080  0.10390  1.0000
  H   H1625     1.0  0.82888  0.18736  0.39847  1.0000
  C   C1028     1.0  0.82424  0.17100  0.39123  1.0000
  H   H1626     1.0  0.78662  0.21695  0.02403  1.0000
  H   H1627     1.0  0.96555  0.04006  0.11684  1.0000
  H   H1628     1.0  0.80556  0.13317  0.39801  1.0000
  H   H1629     1.0  0.93590  0.08833  0.15079  1.0000
  C   C1029     1.0  0.78767  0.21309  0.23576  1.0000
  C   C1030     1.0  0.77760  0.22235  0.00592  1.0000
  H   H1630     1.0  0.80674  0.31048  0.00656  1.0000
  H   H1631     1.0  0.99795  0.12580  0.22361  1.0000
  H   H1632     1.0  0.82505  0.17544  0.44533  1.0000
  C   C1031     1.0  0.79920  0.26701  0.28216  1.0000
  Fe  Fe214     1.0  0.89998  0.13613  0.98158  1.0000
  C   C1032     1.0  0.78081  0.30373  0.28256  1.0000
  C   C1033     1.0  0.00169  0.08745  0.97977  1.0000
  N   N105      1.0  0.77829  0.28043  0.27578  1.0000
  H   H1633     1.0  0.79794  0.24935  0.27705  1.0000
  C   C1034     1.0  0.77058  0.29259  0.98720  1.0000
  H   H1634     1.0  0.79383  0.31040  0.27025  1.0000
  S   S413      1.0  0.97322  0.13070  0.45908  1.0000
  H   H1635     1.0  0.78572  0.30581  0.30413  1.0000
  H   H1636     1.0  0.78625  0.28377  0.23387  1.0000
  H   H1637     1.0  0.76967  0.27119  0.03368  1.0000
  C   C1035     1.0  0.99455  0.08985  0.46960  1.0000
  S   S414      1.0  0.77231  0.23944  0.35556  1.0000
  H   H1638     1.0  0.77236  0.28744  0.36578  1.0000
  H   H1639     1.0  0.85036  0.01896  0.27099  1.0000
  H   H1640     1.0  0.80363  0.01823  0.24405  1.0000
  S   S415      1.0  0.77530  0.21101  0.10409  1.0000
  C   C1036     1.0  0.76742  0.30376  0.35850  1.0000
  C   C1037     1.0  0.01638  0.11597  0.44856  1.0000
  H   H1641     1.0  0.77096  0.26083  0.24094  1.0000
  H   H1642     1.0  0.84174  0.01266  0.30434  1.0000
  Fe  Fe215     1.0  0.91265  0.09702  0.94427  1.0000
  S   S416      1.0  0.92191  0.13168  0.94524  1.0000
  S   S417      1.0  0.90731  0.07657  0.90639  1.0000
  Fe  Fe216     1.0  0.91295  0.09280  0.50560  1.0000
  S   S418      1.0  0.92120  0.12787  0.50688  1.0000
  S   S419      1.0  0.91639  0.07158  0.54244  1.0000
  H   H1643     1.0  0.85793  0.19768  0.90564  1.0000
  C   C1038     1.0  0.97276  0.12015  0.80148  1.0000
  H   H1644     1.0  0.97871  0.13678  0.80421  1.0000
  C   C1039     1.0  0.86460  0.05276  0.57863  1.0000
  C   C1040     1.0  0.96889  0.08938  0.77120  1.0000
  H   H1645     1.0  0.88264  0.26667  0.53146  1.0000
  Fe  Fe217     1.0  0.88891  0.05019  0.72162  1.0000
  S   S420      1.0  0.87603  0.08581  0.72507  1.0000
  Fe  Fe218     1.0  0.93638  0.06209  0.71229  1.0000
  S   S421      1.0  0.92640  0.09815  0.71450  1.0000
  S   S422      1.0  0.97277  0.05038  0.70822  1.0000
  Fe  Fe219     1.0  0.90655  0.09004  0.75037  1.0000
  S   S423      1.0  0.90916  0.11289  0.78669  1.0000
  Fe  Fe220     1.0  0.89718  0.09018  0.68911  1.0000
  S   S424      1.0  0.88371  0.11142  0.65456  1.0000
  S   S425      1.0  0.91812  0.05416  0.74979  1.0000
  S   S426      1.0  0.90835  0.05432  0.68410  1.0000
  Fe  Fe221     1.0  0.78813  0.26483  0.60025  1.0000
  H   H1646     1.0  0.85731  0.19128  0.94089  1.0000
  N   N106      1.0  0.85766  0.24376  0.53006  1.0000
  H   H1647     1.0  0.97780  0.05851  0.94329  1.0000
  H   H1648     1.0  0.80702  0.28380  0.76991  1.0000
  C   C1041     1.0  0.99228  0.06969  0.70238  1.0000
  C   C1042     1.0  0.98577  0.09054  0.69213  1.0000
  H   H1649     1.0  0.98119  0.10924  0.81700  1.0000
  H   H1650     1.0  0.97119  0.08264  0.75038  1.0000
  H   H1651     1.0  0.86834  0.15206  0.93006  1.0000
  H   H1652     1.0  0.96866  0.09477  0.68639  1.0000
  H   H1653     1.0  0.99628  0.12202  0.68104  1.0000
  H   H1654     1.0  0.81258  0.19451  0.55012  1.0000
  H   H1655     1.0  0.00789  0.12616  0.76999  1.0000
  H   H1656     1.0  0.96822  0.12026  0.73297  1.0000
  H   H1657     1.0  0.84604  0.01443  0.57386  1.0000
  H   H1658     1.0  0.83340  0.20503  0.92482  1.0000
  H   H1659     1.0  0.87007  0.26312  0.49870  1.0000
  H   H1660     1.0  0.79652  0.25786  0.77682  1.0000
  H   H1661     1.0  0.77498  0.31214  0.80403  1.0000
  C   C1043     1.0  0.78974  0.21799  0.73536  1.0000
  C   C1044     1.0  0.86676  0.26397  0.52077  1.0000
  C   C1045     1.0  0.90946  0.08524  0.57301  1.0000
  C   C1046     1.0  0.89323  0.10303  0.57395  1.0000
  C   C1047     1.0  0.88578  0.11158  0.59908  1.0000
  C   C1048     1.0  0.89487  0.10263  0.62319  1.0000
  C   C1049     1.0  0.91205  0.08583  0.62206  1.0000
  C   C1050     1.0  0.91903  0.07688  0.59708  1.0000
  H   H1662     1.0  0.88581  0.10960  0.55539  1.0000
  H   H1663     1.0  0.87265  0.12477  0.59976  1.0000
  H   H1664     1.0  0.91984  0.07949  0.64043  1.0000
  H   H1665     1.0  0.93182  0.06335  0.59642  1.0000
  C   C1051     1.0  0.90774  0.08715  0.87336  1.0000
  C   C1052     1.0  0.91117  0.10912  0.86865  1.0000
  C   C1053     1.0  0.91158  0.11680  0.84198  1.0000
  C   C1054     1.0  0.90867  0.10260  0.81987  1.0000
  C   C1055     1.0  0.90559  0.08058  0.82459  1.0000
  C   C1056     1.0  0.90509  0.07292  0.85124  1.0000
  H   H1666     1.0  0.91327  0.12022  0.88551  1.0000
  H   H1667     1.0  0.91394  0.13388  0.83846  1.0000
  H   H1668     1.0  0.90328  0.06951  0.80775  1.0000
  H   H1669     1.0  0.90246  0.05591  0.85473  1.0000
  C   C1057     1.0  0.86363  0.16954  0.56479  1.0000
  C   C1058     1.0  0.86967  0.16197  0.53877  1.0000
  C   C1059     1.0  0.85547  0.16689  0.51667  1.0000
  C   C1060     1.0  0.83475  0.17839  0.52092  1.0000
  C   C1061     1.0  0.82857  0.18564  0.54698  1.0000
  H   H1670     1.0  0.87503  0.16636  0.58165  1.0000
  H   H1671     1.0  0.88567  0.15306  0.53576  1.0000
  H   H1672     1.0  0.82354  0.18189  0.50398  1.0000
  H   H1673     1.0  0.01059  0.09881  0.78344  1.0000
  H   H1674     1.0  0.84877  0.05421  0.56682  1.0000
  H   H1675     1.0  0.84668  0.23060  0.56710  1.0000
  S   S427      1.0  0.83718  0.19372  0.60065  1.0000
  C   C1062     1.0  0.96817  0.06164  0.87557  1.0000
  C   C1063     1.0  0.78227  0.32224  0.86073  1.0000
  H   H1676     1.0  0.81128  0.18503  0.89163  1.0000
  H   H1677     1.0  0.86764  0.20923  0.53231  1.0000
  C   C1064     1.0  0.83662  0.24088  0.51536  1.0000
  N   N107      1.0  0.97706  0.11142  0.77388  1.0000
  H   H1678     1.0  0.97504  0.04474  0.86990  1.0000
  C   C1065     1.0  0.77665  0.34361  0.85137  1.0000
  H   H1679     1.0  0.94715  0.12792  0.75727  1.0000
  H   H1680     1.0  0.76728  0.26421  0.74167  1.0000
  C   C1066     1.0  0.84327  0.18181  0.56881  1.0000
  H   H1681     1.0  0.94980  0.06148  0.87631  1.0000
  H   H1682     1.0  0.83910  0.23924  0.49316  1.0000
  C   C1067     1.0  0.84683  0.04039  0.61824  1.0000
  C   C1068     1.0  0.84729  0.19208  0.92181  1.0000
  N   N108      1.0  0.83900  0.17060  0.91493  1.0000
  C   C1069     1.0  0.00174  0.06796  0.90057  1.0000
  H   H1683     1.0  0.87834  0.04962  0.56397  1.0000
  H   H1684     1.0  0.86905  0.24768  0.57117  1.0000
  Fe  Fe222     1.0  0.80607  0.21676  0.60110  1.0000
  H   H1685     1.0  0.00711  0.07891  0.88463  1.0000
  S   S428      1.0  0.80088  0.24243  0.63381  1.0000
  H   H1686     1.0  0.97431  0.09709  0.92809  1.0000
  S   S429      1.0  0.78676  0.21374  0.79040  1.0000
  H   H1687     1.0  0.77845  0.30217  0.97160  1.0000
  H   H1688     1.0  0.84862  0.05629  0.62901  1.0000
  C   C1070     1.0  0.86208  0.01397  0.58522  1.0000
  Fe  Fe223     1.0  0.89136  0.13340  0.47953  1.0000
  N   N109      1.0  0.83569  0.16290  0.67414  1.0000
  C   C1071     1.0  0.83706  0.18669  0.67025  1.0000
  C   C1072     1.0  0.85432  0.15408  0.69164  1.0000
  C   C1073     1.0  0.83695  0.15141  0.64763  1.0000
  C   C1074     1.0  0.81443  0.15943  0.68701  1.0000
  H   H1689     1.0  0.83648  0.19587  0.68984  1.0000
  H   H1690     1.0  0.82307  0.19386  0.65736  1.0000
  H   H1691     1.0  0.85266  0.18989  0.65996  1.0000
  H   H1692     1.0  0.85410  0.16240  0.71179  1.0000
  H   H1693     1.0  0.85378  0.13614  0.69497  1.0000
  H   H1694     1.0  0.87060  0.15615  0.68224  1.0000
  H   H1695     1.0  0.83642  0.13336  0.64979  1.0000
  H   H1696     1.0  0.85272  0.15392  0.63725  1.0000
  H   H1697     1.0  0.82313  0.15753  0.63384  1.0000
  H   H1698     1.0  0.80003  0.16596  0.67429  1.0000
  H   H1699     1.0  0.81291  0.16795  0.70704  1.0000
  H   H1700     1.0  0.81281  0.14165  0.69025  1.0000
  H   H1701     1.0  0.88870  0.04924  0.62521  1.0000
  H   H1702     1.0  0.81054  0.17618  0.94032  1.0000
  H   H1703     1.0  0.83035  0.04152  0.60783  1.0000
  H   H1704     1.0  0.83573  0.17764  0.87248  1.0000
  H   H1705     1.0  0.78561  0.21523  0.52166  1.0000
  H   H1706     1.0  0.84144  0.25989  0.56434  1.0000
  N   N110      1.0  0.97731  0.06869  0.90185  1.0000
  S   S430      1.0  0.86398  0.16072  0.48341  1.0000
  H   H1707     1.0  0.85236  0.13745  0.90625  1.0000
  H   H1708     1.0  0.95467  0.12163  0.80579  1.0000
  H   H1709     1.0  0.88783  0.02020  0.62843  1.0000
  H   H1710     1.0  0.97188  0.07289  0.85910  1.0000
  C   C1075     1.0  0.88649  0.03381  0.61367  1.0000
  H   H1711     1.0  0.80749  0.21622  0.73875  1.0000
  S   S431      1.0  0.86270  0.02601  0.72620  1.0000
  H   H1712     1.0  0.81852  0.14776  0.93265  1.0000
  C   C1076     1.0  0.00438  0.10795  0.96865  1.0000
  C   C1077     1.0  0.82572  0.17253  0.88959  1.0000
  C   C1078     1.0  0.85798  0.15390  0.91130  1.0000
  C   C1079     1.0  0.00114  0.10980  0.76876  1.0000
  H   H1713     1.0  0.88999  0.22638  0.53490  1.0000
  C   C1080     1.0  0.77550  0.21706  0.75739  1.0000
  S   S432      1.0  0.88179  0.09877  0.48073  1.0000
  H   H1714     1.0  0.79898  0.31766  0.86796  1.0000
  S   S433      1.0  0.79651  0.23999  0.56746  1.0000
  C   C1081     1.0  0.96817  0.09139  0.90816  1.0000
  N   N111      1.0  0.86499  0.03521  0.59894  1.0000
  C   C1082     1.0  0.00151  0.10591  0.68891  1.0000
  H   H1715     1.0  0.82406  0.25501  0.51898  1.0000
  H   H1716     1.0  0.77782  0.28984  0.73378  1.0000
  H   H1717     1.0  0.85502  0.27873  0.52462  1.0000
  S   S434      1.0  0.80114  0.29825  0.59669  1.0000
  C   C1083     1.0  0.82498  0.16393  0.93703  1.0000
  C   C1084     1.0  0.87372  0.22459  0.52470  1.0000
  C   C1085     1.0  0.78481  0.21198  0.47830  1.0000
  C   C1086     1.0  0.78185  0.32138  0.59289  1.0000
  N   N112      1.0  0.77181  0.28538  0.77599  1.0000
  C   C1087     1.0  0.85353  0.24561  0.55941  1.0000
  C   C1088     1.0  0.78108  0.22148  0.70900  1.0000
  C   C1089     1.0  0.77014  0.30915  0.78258  1.0000
  H   H1718     1.0  0.79209  0.22235  0.69215  1.0000
  H   H1719     1.0  0.97778  0.07743  0.78519  1.0000
  H   H1720     1.0  0.84182  0.02304  0.78180  1.0000
  H   H1721     1.0  0.97278  0.10322  0.89281  1.0000
  S   S435      1.0  0.77275  0.24568  0.85617  1.0000
  H   H1722     1.0  0.81910  0.15668  0.88381  1.0000
  H   H1723     1.0  0.78123  0.31811  0.76986  1.0000
  H   H1724     1.0  0.82924  0.22583  0.52190  1.0000
  H   H1725     1.0  0.86896  0.15841  0.89484  1.0000
  H   H1726     1.0  0.95088  0.08984  0.77546  1.0000
  H   H1727     1.0  0.00902  0.07341  0.92007  1.0000
  C   C1090     1.0  0.96539  0.12636  0.75403  1.0000
  H   H1728     1.0  0.80265  0.21028  0.47655  1.0000
  S   S436      1.0  0.78647  0.21676  0.92513  1.0000
  C   C1091     1.0  0.97109  0.05377  0.92317  1.0000
  H   H1729     1.0  0.87666  0.22205  0.50268  1.0000
  H   H1730     1.0  0.97758  0.03648  0.91900  1.0000
  H   H1731     1.0  0.95271  0.05407  0.92483  1.0000
  H   H1732     1.0  0.94977  0.09265  0.90905  1.0000
  H   H1733     1.0  0.79906  0.27753  0.80361  1.0000
  H   H1734     1.0  0.90066  0.03104  0.59959  1.0000
  C   C1092     1.0  0.77510  0.22405  0.95681  1.0000
  H   H1735     1.0  0.97116  0.14313  0.75541  1.0000
  H   H1736     1.0  0.80708  0.34414  0.59417  1.0000
  C   C1093     1.0  0.79463  0.27576  0.78178  1.0000
  H   H1737     1.0  0.00933  0.05102  0.89633  1.0000
  S   S437      1.0  0.98303  0.12933  0.96963  1.0000
  H   H1738     1.0  0.86658  0.06901  0.58838  1.0000
  C   C1094     1.0  0.78949  0.34239  0.59230  1.0000
  S   S438      1.0  0.77245  0.20453  0.60458  1.0000
  H   H1739     1.0  0.83442  0.16250  0.95651  1.0000
  H   H1740     1.0  0.84664  0.02751  0.63388  1.0000
  H   H1741     1.0  0.77096  0.29059  0.86883  1.0000
  S   S439      1.0  0.94048  0.08461  0.97202  1.0000
  C   C1095     1.0  0.77518  0.21502  0.50386  1.0000
  H   H1742     1.0  0.81356  0.02186  0.79209  1.0000
  H   H1743     1.0  0.00485  0.10295  0.74823  1.0000
  C   C1096     1.0  0.01472  0.06426  0.70891  1.0000
  H   H1744     1.0  0.97946  0.08595  0.47894  1.0000
  H   H1745     1.0  0.82112  0.01690  0.75745  1.0000
  C   C1097     1.0  0.82670  0.01407  0.77875  1.0000
  C   C1098     1.0  0.76643  0.30676  0.86098  1.0000
  H   H1746     1.0  0.01102  0.05746  0.47549  1.0000
  H   H1747     1.0  0.95215  0.58954  0.42448  1.0000
  H   H1748     1.0  0.84629  0.52366  0.19261  1.0000
  H   H1749     1.0  0.82244  0.47034  0.19379  1.0000
  H   H1750     1.0  0.96166  0.55073  0.43655  1.0000
  H   H1751     1.0  0.84494  0.64500  0.02378  1.0000
  S   S440      1.0  0.79777  0.35913  0.34470  1.0000
  S   S441      1.0  0.96313  0.61670  0.47294  1.0000
  C   C1099     1.0  0.00308  0.60042  0.22436  1.0000
  Fe  Fe224     1.0  0.89562  0.57842  0.44592  1.0000
  S   S442      1.0  0.90472  0.61296  0.44131  1.0000
  S   S443      1.0  0.89135  0.55477  0.41097  1.0000
  Fe  Fe225     1.0  0.88831  0.57359  0.00593  1.0000
  S   S444      1.0  0.89765  0.60838  0.00562  1.0000
  S   S445      1.0  0.88376  0.55258  0.04258  1.0000
  H   H1752     1.0  0.85872  0.47774  0.04579  1.0000
  H   H1753     1.0  0.83974  0.47154  0.01894  1.0000
  H   H1754     1.0  0.85789  0.52361  0.39106  1.0000
  H   H1755     1.0  0.82951  0.47799  0.05199  1.0000
  H   H1756     1.0  0.79838  0.50286  0.15400  1.0000
  H   H1757     1.0  0.92922  0.58158  0.40439  1.0000
  H   H1758     1.0  0.86095  0.62110  0.26420  1.0000
  S   S446      1.0  0.80024  0.41946  0.37176  1.0000
  C   C1100     1.0  0.83736  0.65210  0.04263  1.0000
  Fe  Fe226     1.0  0.80825  0.44060  0.33687  1.0000
  S   S447      1.0  0.83739  0.46152  0.33922  1.0000
  H   H1759     1.0  0.83718  0.49424  0.44971  1.0000
  Fe  Fe227     1.0  0.89874  0.57076  0.19843  1.0000
  S   S448      1.0  0.91609  0.53687  0.19754  1.0000
  S   S449      1.0  0.88905  0.59181  0.16197  1.0000
  Fe  Fe228     1.0  0.90165  0.57342  0.26019  1.0000
  S   S450      1.0  0.91968  0.53984  0.26406  1.0000
  S   S451      1.0  0.89280  0.59667  0.29489  1.0000
  Fe  Fe229     1.0  0.93932  0.54979  0.22868  1.0000
  Fe  Fe230     1.0  0.89475  0.53023  0.23293  1.0000
  S   S452      1.0  0.87600  0.49978  0.23258  1.0000
  S   S453      1.0  0.92329  0.58416  0.22736  1.0000
  S   S454      1.0  0.87540  0.56332  0.23124  1.0000
  H   H1760     1.0  0.97212  0.58858  0.23629  1.0000
  C   C1101     1.0  0.84749  0.47247  0.30941  1.0000
  C   C1102     1.0  0.84230  0.46402  0.28391  1.0000
  C   C1103     1.0  0.85141  0.47235  0.26062  1.0000
  C   C1104     1.0  0.86532  0.48957  0.26253  1.0000
  C   C1105     1.0  0.87012  0.49838  0.28798  1.0000
  C   C1106     1.0  0.86142  0.48968  0.31136  1.0000
  H   H1761     1.0  0.83173  0.45067  0.28219  1.0000
  H   H1762     1.0  0.84776  0.46528  0.24109  1.0000
  H   H1763     1.0  0.88080  0.51163  0.28970  1.0000
  H   H1764     1.0  0.86558  0.49628  0.33099  1.0000
  H   H1765     1.0  0.80979  0.43621  0.20936  1.0000
  S   S455      1.0  0.77993  0.42753  0.08481  1.0000
  C   C1107     1.0  0.77402  0.35863  0.16454  1.0000
  H   H1766     1.0  0.93158  0.60985  0.17189  1.0000
  Fe  Fe231     1.0  0.87949  0.62118  0.47327  1.0000
  C   C1108     1.0  0.88934  0.56649  0.37859  1.0000
  C   C1109     1.0  0.89109  0.55280  0.35561  1.0000
  C   C1110     1.0  0.89186  0.56189  0.32974  1.0000
  C   C1111     1.0  0.89068  0.58471  0.32677  1.0000
  C   C1112     1.0  0.88796  0.59837  0.34965  1.0000
  C   C1113     1.0  0.88725  0.58929  0.37546  1.0000
  H   H1767     1.0  0.89248  0.53513  0.35781  1.0000
  H   H1768     1.0  0.89344  0.55122  0.31217  1.0000
  H   H1769     1.0  0.88669  0.61605  0.34749  1.0000
  H   H1770     1.0  0.88508  0.59999  0.39288  1.0000
  C   C1114     1.0  0.88592  0.56371  0.07558  1.0000
  C   C1115     1.0  0.88417  0.58641  0.08028  1.0000
  C   C1116     1.0  0.88492  0.59476  0.10689  1.0000
  C   C1117     1.0  0.88781  0.58052  0.12896  1.0000
  C   C1118     1.0  0.88988  0.55782  0.12426  1.0000
  C   C1119     1.0  0.88873  0.54946  0.09767  1.0000
  H   H1771     1.0  0.88187  0.59753  0.06345  1.0000
  H   H1772     1.0  0.88328  0.61235  0.11039  1.0000
  H   H1773     1.0  0.89213  0.54669  0.14110  1.0000
  H   H1774     1.0  0.89019  0.53187  0.09420  1.0000
  H   H1775     1.0  0.99825  0.61727  0.23029  1.0000
  S   S456      1.0  0.97631  0.54158  0.22390  1.0000
  H   H1776     1.0  0.87427  0.64387  0.30199  1.0000
  C   C1120     1.0  0.98822  0.58423  0.22766  1.0000
  H   H1777     1.0  0.84736  0.48383  0.19479  1.0000
  H   H1778     1.0  0.93522  0.55268  0.36879  1.0000
  C   C1121     1.0  0.99439  0.56241  0.22020  1.0000
  H   H1779     1.0  0.98734  0.57951  0.38076  1.0000
  H   H1780     1.0  0.83258  0.48108  0.16341  1.0000
  H   H1781     1.0  0.78990  0.44532  0.42350  1.0000
  C   C1122     1.0  0.82716  0.67519  0.43503  1.0000
  H   H1782     1.0  0.96621  0.53009  0.41060  1.0000
  C   C1123     1.0  0.84396  0.65800  0.43784  1.0000
  C   C1124     1.0  0.85301  0.64764  0.41465  1.0000
  H   H1783     1.0  0.85304  0.64683  0.37108  1.0000
  S   S457      1.0  0.91416  0.56084  0.97611  1.0000
  C   C1125     1.0  0.84118  0.51932  0.05475  1.0000
  H   H1784     1.0  0.86574  0.63425  0.41652  1.0000
  H   H1785     1.0  0.78063  0.38131  0.07721  1.0000
  H   H1786     1.0  0.80551  0.44955  0.46988  1.0000
  N   N113      1.0  0.83712  0.50014  0.40694  1.0000
  C   C1126     1.0  0.85333  0.48116  0.40132  1.0000
  C   C1127     1.0  0.82086  0.50275  0.38434  1.0000
  C   C1128     1.0  0.84889  0.52027  0.40982  1.0000
  C   C1129     1.0  0.82542  0.49635  0.43222  1.0000
  H   H1787     1.0  0.86587  0.47865  0.41792  1.0000
  H   H1788     1.0  0.86239  0.48344  0.38228  1.0000
  H   H1789     1.0  0.84501  0.46569  0.39869  1.0000
  H   H1790     1.0  0.82917  0.50550  0.36489  1.0000
  H   H1791     1.0  0.81182  0.48775  0.38141  1.0000
  H   H1792     1.0  0.80835  0.51690  0.38784  1.0000
  H   H1793     1.0  0.82769  0.67521  0.26544  1.0000
  H   H1794     1.0  0.86143  0.51893  0.42657  1.0000
  H   H1795     1.0  0.83730  0.53502  0.41410  1.0000
  C   C1130     1.0  0.80179  0.65963  0.02023  1.0000
  H   H1796     1.0  0.83311  0.62605  0.25157  1.0000
  H   H1797     1.0  0.79187  0.39643  0.15489  1.0000
  H   H1798     1.0  0.80272  0.52326  0.22481  1.0000
  C   C1131     1.0  0.82998  0.52368  0.18176  1.0000
  H   H1799     1.0  0.84703  0.61725  0.31061  1.0000
  N   N114      1.0  0.83887  0.50581  0.03002  1.0000
  H   H1800     1.0  0.85796  0.51609  0.06420  1.0000
  C   C1132     1.0  0.81654  0.51088  0.01797  1.0000
  N   N115      1.0  0.81746  0.50548  0.19084  1.0000
  H   H1801     1.0  0.83344  0.52228  0.15977  1.0000
  S   S458      1.0  0.77448  0.45890  0.33545  1.0000
  H   H1802     1.0  0.82078  0.53995  0.18566  1.0000
  C   C1133     1.0  0.85583  0.51078  0.01040  1.0000
  H   H1803     1.0  0.81374  0.52842  0.01207  1.0000
  C   C1134     1.0  0.78183  0.43907  0.23591  1.0000
  C   C1135     1.0  0.77375  0.39633  0.15074  1.0000
  N   N116      1.0  0.84091  0.64598  0.28601  1.0000
  C   C1136     1.0  0.81330  0.50792  0.22013  1.0000
  H   H1804     1.0  0.82903  0.50864  0.23185  1.0000
  H   H1805     1.0  0.95711  0.60508  0.19061  1.0000
  C   C1137     1.0  0.84571  0.65476  0.38885  1.0000
  H   H1806     1.0  0.80334  0.50753  0.03240  1.0000
  H   H1807     1.0  0.80493  0.49382  0.22797  1.0000
  C   C1138     1.0  0.94722  0.58380  0.40397  1.0000
  C   C1139     1.0  0.78774  0.45049  0.46672  1.0000
  C   C1140     1.0  0.95293  0.55616  0.36888  1.0000
  H   H1808     1.0  0.98979  0.57265  0.41575  1.0000
  H   H1809     1.0  0.82872  0.63876  0.32519  1.0000
  H   H1810     1.0  0.78580  0.49303  0.18337  1.0000
  C   C1141     1.0  0.82906  0.67210  0.38603  1.0000
  C   C1142     1.0  0.80978  0.67816  0.06229  1.0000
  Fe  Fe232     1.0  0.77096  0.45015  0.11972  1.0000
  H   H1811     1.0  0.93876  0.54277  0.41654  1.0000
  H   H1812     1.0  0.99445  0.55144  0.39068  1.0000
  C   C1143     1.0  0.98400  0.56682  0.39570  1.0000
  H   H1813     1.0  0.76650  0.34659  0.17743  1.0000
  C   C1144     1.0  0.01552  0.55691  0.20960  1.0000
  H   H1814     1.0  0.96271  0.54091  0.36194  1.0000
  C   C1145     1.0  0.84193  0.48227  0.03701  1.0000
  H   H1815     1.0  0.86626  0.66839  0.28323  1.0000
  N   N117      1.0  0.95797  0.59201  0.15006  1.0000
  C   C1146     1.0  0.94810  0.59775  0.12328  1.0000
  C   C1147     1.0  0.98241  0.59106  0.14873  1.0000
  C   C1148     1.0  0.95133  0.57034  0.15809  1.0000
  C   C1149     1.0  0.94997  0.60885  0.17018  1.0000
  H   H1816     1.0  0.92966  0.59909  0.12393  1.0000
  H   H1817     1.0  0.95316  0.58506  0.10771  1.0000
  H   H1818     1.0  0.95307  0.61381  0.11629  1.0000
  H   H1819     1.0  0.98810  0.60725  0.14329  1.0000
  H   H1820     1.0  0.99029  0.58644  0.16856  1.0000
  H   H1821     1.0  0.98901  0.57864  0.13360  1.0000
  H   H1822     1.0  0.95743  0.55709  0.14374  1.0000
  H   H1823     1.0  0.93299  0.57033  0.15878  1.0000
  H   H1824     1.0  0.95799  0.56571  0.17850  1.0000
  S   S459      1.0  0.80067  0.41532  0.30542  1.0000
  C   C1150     1.0  0.79601  0.50596  0.17603  1.0000
  H   H1825     1.0  0.81900  0.62212  0.29806  1.0000
  C   C1151     1.0  0.83053  0.48432  0.18545  1.0000
  H   H1826     1.0  0.94944  0.59729  0.38964  1.0000
  H   H1827     1.0  0.85086  0.65884  0.05482  1.0000
  C   C1152     1.0  0.79217  0.44071  0.21091  1.0000
  C   C1153     1.0  0.79047  0.34771  0.08760  1.0000
  H   H1828     1.0  0.79156  0.43360  0.25339  1.0000
  C   C1154     1.0  0.95659  0.54591  0.41577  1.0000
  Fe  Fe233     1.0  0.78899  0.39584  0.34005  1.0000
  H   H1829     1.0  0.81739  0.67240  0.29876  1.0000
  Fe  Fe234     1.0  0.76870  0.45602  0.05813  1.0000
  N   N118      1.0  0.81924  0.66925  0.03662  1.0000
  H   H1830     1.0  0.81306  0.51036  0.43712  1.0000
  S   S460      1.0  0.79314  0.44975  0.15687  1.0000
  N   N119      1.0  0.96021  0.56317  0.39607  1.0000
  H   H1831     1.0  0.95454  0.56913  0.35362  1.0000
  H   H1832     1.0  0.95456  0.62545  0.16472  1.0000
  H   H1833     1.0  0.80776  0.65578  0.27176  1.0000
  C   C1155     1.0  0.00544  0.60324  0.45792  1.0000
  H   H1834     1.0  0.00665  0.62025  0.45274  1.0000
  C   C1156     1.0  0.98563  0.59686  0.46836  1.0000
  H   H1835     1.0  0.80841  0.65282  0.00068  1.0000
  C   C1157     1.0  0.77500  0.36586  0.08319  1.0000
  C   C1158     1.0  0.84726  0.63415  0.26066  1.0000
  H   H1836     1.0  0.79211  0.35773  0.16929  1.0000
  C   C1159     1.0  0.78030  0.46086  0.98922  1.0000
  C   C1160     1.0  0.82265  0.66306  0.28018  1.0000
  H   H1837     1.0  0.79467  0.64612  0.03103  1.0000
  H   H1838     1.0  0.81632  0.48128  0.43062  1.0000
  H   H1839     1.0  0.78609  0.52203  0.17859  1.0000
  S   S461      1.0  0.79057  0.46285  0.02282  1.0000
  H   H1840     1.0  0.87290  0.50753  0.01905  1.0000
  H   H1841     1.0  0.82872  0.51594  0.07006  1.0000
  C   C1161     1.0  0.77977  0.44779  0.18800  1.0000
  C   C1162     1.0  0.86021  0.65638  0.29742  1.0000
  H   H1842     1.0  0.85399  0.52844  0.00467  1.0000
  H   H1843     1.0  0.83902  0.53720  0.05021  1.0000
  H   H1844     1.0  0.83129  0.63831  0.05403  1.0000
  H   H1845     1.0  0.77221  0.35303  0.14320  1.0000
  C   C1163     1.0  0.83356  0.63032  0.30579  1.0000
  C   C1164     1.0  0.77894  0.44804  0.44046  1.0000
  H   H1846     1.0  0.80284  0.66517  0.07427  1.0000
  H   H1847     1.0  0.78411  0.38878  0.20256  1.0000
  H   H1848     1.0  0.85597  0.66535  0.31667  1.0000
  H   H1849     1.0  0.81397  0.50052  0.99967  1.0000
  H   H1850     1.0  0.85309  0.64545  0.24539  1.0000
  C   C1165     1.0  0.00223  0.55927  0.47065  1.0000
  H   H1851     1.0  0.77951  0.38130  0.47089  1.0000
  H   H1852     1.0  0.85477  0.50071  0.99160  1.0000
  S   S462      1.0  0.85339  0.64997  0.47054  1.0000
  H   H1853     1.0  0.77146  0.39194  0.12907  1.0000
  H   H1854     1.0  0.78792  0.67220  0.01524  1.0000
  H   H1855     1.0  0.80798  0.34941  0.08525  1.0000
  H   H1856     1.0  0.81098  0.44175  0.70965  1.0000
  H   H1857     1.0  0.78743  0.38718  0.51973  1.0000
  H   H1858     1.0  0.85232  0.64713  0.86870  1.0000
  H   H1859     1.0  0.99701  0.61962  0.72333  1.0000
  H   H1860     1.0  0.83702  0.53606  0.89592  1.0000
  H   H1861     1.0  0.95439  0.58160  0.84473  1.0000
  C   C1166     1.0  0.83316  0.62857  0.80636  1.0000
  C   C1167     1.0  0.84682  0.48022  0.66062  1.0000
  Fe  Fe235     1.0  0.88823  0.56979  0.94425  1.0000
  S   S463      1.0  0.89823  0.60395  0.93939  1.0000
  S   S464      1.0  0.88268  0.54725  0.90863  1.0000
  Fe  Fe236     1.0  0.89580  0.58196  0.50778  1.0000
  S   S465      1.0  0.90433  0.61699  0.50772  1.0000
  S   S466      1.0  0.89296  0.56075  0.54459  1.0000
  H   H1862     1.0  0.79518  0.66336  0.56883  1.0000
  H   H1863     1.0  0.98496  0.56671  0.89390  1.0000
  H   H1864     1.0  0.83082  0.49652  0.61337  1.0000
  C   C1168     1.0  0.77367  0.45399  0.48893  1.0000
  S   S467      1.0  0.78164  0.46133  0.83032  1.0000
  H   H1865     1.0  0.85859  0.47668  0.64379  1.0000
  C   C1169     1.0  0.00184  0.60256  0.71848  1.0000
  H   H1866     1.0  0.80881  0.48611  0.63169  1.0000
  Fe  Fe237     1.0  0.92869  0.60533  0.47563  1.0000
  Fe  Fe238     1.0  0.81370  0.44003  0.83187  1.0000
  S   S468      1.0  0.84586  0.45617  0.83054  1.0000
  C   C1170     1.0  0.84726  0.51941  0.65479  1.0000
  Fe  Fe239     1.0  0.89561  0.57737  0.69882  1.0000
  S   S469      1.0  0.91201  0.54339  0.69336  1.0000
  S   S470      1.0  0.88417  0.59949  0.66406  1.0000
  Fe  Fe240     1.0  0.90100  0.57531  0.76040  1.0000
  S   S471      1.0  0.91817  0.54117  0.75944  1.0000
  S   S472      1.0  0.89354  0.59571  0.79809  1.0000
  Fe  Fe241     1.0  0.93681  0.55350  0.72443  1.0000
  Fe  Fe242     1.0  0.89172  0.53463  0.72865  1.0000
  S   S473      1.0  0.87053  0.50602  0.72498  1.0000
  S   S474      1.0  0.92160  0.58817  0.72776  1.0000
  S   S475      1.0  0.87339  0.56810  0.73180  1.0000
  H   H1867     1.0  0.96976  0.59187  0.72749  1.0000
  C   C1171     1.0  0.85201  0.47042  0.80121  1.0000
  C   C1172     1.0  0.86963  0.48390  0.80199  1.0000
  C   C1173     1.0  0.87503  0.49538  0.77893  1.0000
  C   C1174     1.0  0.86323  0.49295  0.75471  1.0000
  C   C1175     1.0  0.84565  0.47938  0.75388  1.0000
  C   C1176     1.0  0.83986  0.46837  0.77716  1.0000
  H   H1868     1.0  0.87933  0.48531  0.82038  1.0000
  H   H1869     1.0  0.88872  0.50561  0.77971  1.0000
  H   H1870     1.0  0.83653  0.47726  0.73520  1.0000
  H   H1871     1.0  0.82634  0.45792  0.77635  1.0000
  C   C1177     1.0  0.76996  0.39234  0.65171  1.0000
  S   S476      1.0  0.97333  0.54457  0.71634  1.0000
  H   H1872     1.0  0.92936  0.58515  0.65912  1.0000
  C   C1178     1.0  0.97898  0.56621  0.97060  1.0000
  H   H1873     1.0  0.95330  0.57768  0.67967  1.0000
  C   C1179     1.0  0.88338  0.56041  0.87722  1.0000
  C   C1180     1.0  0.88843  0.54807  0.85368  1.0000
  C   C1181     1.0  0.89090  0.55867  0.82898  1.0000
  C   C1182     1.0  0.88847  0.58164  0.82784  1.0000
  C   C1183     1.0  0.88261  0.59387  0.85117  1.0000
  C   C1184     1.0  0.87986  0.58328  0.87568  1.0000
  H   H1874     1.0  0.89100  0.53034  0.85459  1.0000
  H   H1875     1.0  0.89511  0.54905  0.81101  1.0000
  H   H1876     1.0  0.88032  0.61163  0.85038  1.0000
  H   H1877     1.0  0.87481  0.59286  0.89333  1.0000
  C   C1185     1.0  0.89001  0.57200  0.57749  1.0000
  C   C1186     1.0  0.88758  0.59471  0.58224  1.0000
  C   C1187     1.0  0.88544  0.60299  0.60886  1.0000
  C   C1188     1.0  0.88595  0.58865  0.63085  1.0000
  C   C1189     1.0  0.88827  0.56596  0.62604  1.0000
  C   C1190     1.0  0.89027  0.55769  0.59947  1.0000
  H   H1878     1.0  0.88729  0.60586  0.56543  1.0000
  H   H1879     1.0  0.88360  0.62056  0.61245  1.0000
  H   H1880     1.0  0.88828  0.55478  0.64275  1.0000
  H   H1881     1.0  0.89201  0.54012  0.59588  1.0000
  S   S477      1.0  0.77831  0.42439  0.58605  1.0000
  H   H1882     1.0  0.92188  0.60342  0.88504  1.0000
  H   H1883     1.0  0.98758  0.58825  0.63931  1.0000
  S   S478      1.0  0.84737  0.64228  0.96778  1.0000
  C   C1191     1.0  0.98635  0.58684  0.72084  1.0000
  C   C1192     1.0  0.80129  0.66383  0.51511  1.0000
  C   C1193     1.0  0.81624  0.48790  0.87800  1.0000
  H   H1884     1.0  0.95216  0.60198  0.65957  1.0000
  H   H1885     1.0  0.85320  0.64203  0.74551  1.0000
  H   H1886     1.0  0.95697  0.55477  0.85976  1.0000
  C   C1194     1.0  0.82225  0.66948  0.93320  1.0000
  S   S479      1.0  0.86887  0.58697  0.47602  1.0000
  C   C1195     1.0  0.83944  0.65258  0.93542  1.0000
  C   C1196     1.0  0.85007  0.64444  0.91197  1.0000
  H   H1887     1.0  0.82735  0.67222  0.76406  1.0000
  H   H1888     1.0  0.82487  0.63715  0.54991  1.0000
  H   H1889     1.0  0.85285  0.50077  0.85498  1.0000
  H   H1890     1.0  0.86326  0.63145  0.91334  1.0000
  N   N120      1.0  0.83293  0.50109  0.65650  1.0000
  H   H1891     1.0  0.93303  0.54835  0.63708  1.0000
  H   H1892     1.0  0.85743  0.52092  0.67354  1.0000
  H   H1893     1.0  0.84750  0.50704  0.92928  1.0000
  N   N121      1.0  0.95172  0.58170  0.88807  1.0000
  C   C1197     1.0  0.94830  0.57157  0.86119  1.0000
  C   C1198     1.0  0.97565  0.58325  0.89318  1.0000
  C   C1199     1.0  0.94287  0.56803  0.90905  1.0000
  C   C1200     1.0  0.93998  0.60396  0.88897  1.0000
  H   H1894     1.0  0.93040  0.57002  0.85696  1.0000
  C   C1201     1.0  0.85968  0.65460  0.79714  1.0000
  H   H1895     1.0  0.84122  0.47920  0.92248  1.0000
  H   H1896     1.0  0.77070  0.35340  0.50464  1.0000
  H   H1897     1.0  0.84666  0.61574  0.81186  1.0000
  H   H1898     1.0  0.98306  0.59290  0.87731  1.0000
  H   H1899     1.0  0.94478  0.57542  0.92952  1.0000
  C   C1202     1.0  0.78761  0.45614  0.94089  1.0000
  H   H1900     1.0  0.92491  0.56628  0.90567  1.0000
  H   H1901     1.0  0.84287  0.64606  0.52473  1.0000
  H   H1902     1.0  0.94630  0.61481  0.87354  1.0000
  H   H1903     1.0  0.94202  0.61198  0.90915  1.0000
  N   N122      1.0  0.84060  0.64370  0.78599  1.0000
  C   C1203     1.0  0.84732  0.63116  0.76124  1.0000
  H   H1904     1.0  0.86043  0.47940  0.87861  1.0000
  H   H1905     1.0  0.80866  0.52935  0.89665  1.0000
  C   C1204     1.0  0.81584  0.67825  0.90781  1.0000
  H   H1906     1.0  0.87377  0.64236  0.80247  1.0000
  C   C1205     1.0  0.84379  0.65336  0.88662  1.0000
  C   C1206     1.0  0.82494  0.52518  0.88690  1.0000
  S   S480      1.0  0.79255  0.44966  0.65629  1.0000
  H   H1907     1.0  0.78066  0.37715  0.58880  1.0000
  C   C1207     1.0  0.76755  0.38406  0.69903  1.0000
  H   H1908     1.0  0.81283  0.45411  0.97236  1.0000
  H   H1909     1.0  0.82708  0.50633  0.69894  1.0000
  Fe  Fe243     1.0  0.87300  0.61307  0.97101  1.0000
  H   H1910     1.0  0.81412  0.49100  0.85595  1.0000
  H   H1911     1.0  0.82162  0.47009  0.88014  1.0000
  C   C1208     1.0  0.79311  0.44404  0.71119  1.0000
  N   N123      1.0  0.95774  0.57154  0.63719  1.0000
  C   C1209     1.0  0.98214  0.57130  0.63909  1.0000
  C   C1210     1.0  0.95133  0.54879  0.63865  1.0000
  C   C1211     1.0  0.94972  0.58135  0.61130  1.0000
  C   C1212     1.0  0.94773  0.58469  0.65985  1.0000
  H   H1912     1.0  0.99027  0.56205  0.62191  1.0000
  H   H1913     1.0  0.98865  0.56328  0.65801  1.0000
  H   H1914     1.0  0.95875  0.53829  0.62202  1.0000
  H   H1915     1.0  0.95687  0.54102  0.65817  1.0000
  H   H1916     1.0  0.95662  0.57170  0.59366  1.0000
  H   H1917     1.0  0.77117  0.41315  0.51903  1.0000
  H   H1918     1.0  0.93134  0.58191  0.60943  1.0000
  H   H1919     1.0  0.80693  0.49127  0.68157  1.0000
  C   C1213     1.0  0.77030  0.39520  0.52167  1.0000
  S   S481      1.0  0.78536  0.45693  0.52158  1.0000
  C   C1214     1.0  0.78317  0.44187  0.73637  1.0000
  H   H1920     1.0  0.80677  0.52044  0.67706  1.0000
  C   C1215     1.0  0.77999  0.44874  0.68804  1.0000
  H   H1921     1.0  0.79922  0.45284  0.92468  1.0000
  C   C1216     1.0  0.99244  0.56475  0.71469  1.0000
  N   N124      1.0  0.83265  0.50173  0.89033  1.0000
  H   H1922     1.0  0.82803  0.63756  0.82531  1.0000
  S   S482      1.0  0.80555  0.42312  0.87009  1.0000
  C   C1217     1.0  0.83526  0.49678  0.91940  1.0000
  H   H1923     1.0  0.77190  0.34968  0.66362  1.0000
  H   H1924     1.0  0.86109  0.61834  0.76551  1.0000
  H   H1925     1.0  0.81920  0.49987  0.93004  1.0000
  C   C1218     1.0  0.01414  0.55851  0.70626  1.0000
  Fe  Fe244     1.0  0.77262  0.44266  0.86675  1.0000
  S   S483      1.0  0.80205  0.41355  0.80457  1.0000
  H   H1926     1.0  0.79968  0.49089  0.88750  1.0000
  H   H1927     1.0  0.83732  0.53544  0.65194  1.0000
  H   H1928     1.0  0.95153  0.55119  0.90936  1.0000
  Fe  Fe245     1.0  0.76925  0.43371  0.80576  1.0000
  H   H1929     1.0  0.79215  0.64980  0.52141  1.0000
  H   H1930     1.0  0.85676  0.48066  0.67974  1.0000
  H   H1931     1.0  0.85894  0.51699  0.63766  1.0000
  C   C1219     1.0  0.82670  0.67035  0.88443  1.0000
  C   C1220     1.0  0.81988  0.49968  0.63111  1.0000
  C   C1221     1.0  0.82228  0.66046  0.77927  1.0000
  S   S484      1.0  0.79760  0.36197  0.85021  1.0000
  N   N125      1.0  0.81680  0.67033  0.53656  1.0000
  H   H1932     1.0  0.82300  0.52939  0.86511  1.0000
  H   H1933     1.0  0.95425  0.59853  0.60951  1.0000
  H   H1934     1.0  0.79339  0.43809  0.75408  1.0000
  Fe  Fe246     1.0  0.79051  0.39849  0.84258  1.0000
  C   C1222     1.0  0.80431  0.67698  0.56120  1.0000
  H   H1935     1.0  0.76899  0.40157  0.70488  1.0000
  H   H1936     1.0  0.97860  0.59157  0.91291  1.0000
  H   H1937     1.0  0.81878  0.62002  0.79878  1.0000
  H   H1938     1.0  0.83649  0.46608  0.66200  1.0000
  H   H1939     1.0  0.78880  0.67768  0.50989  1.0000
  H   H1940     1.0  0.77184  0.40986  0.65675  1.0000
  H   H1941     1.0  0.80919  0.51513  0.62738  1.0000
  C   C1223     1.0  0.85422  0.49705  0.87693  1.0000
  C   C1224     1.0  0.81773  0.50499  0.67949  1.0000
  H   H1942     1.0  0.00189  0.61455  0.96320  1.0000
  H   H1943     1.0  0.86709  0.50701  0.88585  1.0000
  H   H1944     1.0  0.86581  0.66617  0.78243  1.0000
  C   C1225     1.0  0.98022  0.58889  0.96897  1.0000
  S   S485      1.0  0.92173  0.57002  0.47768  1.0000
  H   H1945     1.0  0.81023  0.65879  0.49620  1.0000
  H   H1946     1.0  0.81677  0.67027  0.79743  1.0000
  H   H1947     1.0  0.80755  0.65281  0.77096  1.0000
  H   H1948     1.0  0.83336  0.62265  0.75234  1.0000
  H   H1949     1.0  0.78692  0.38383  0.65016  1.0000
  H   H1950     1.0  0.96915  0.56990  0.48361  1.0000
  S   S486      1.0  0.95635  0.60757  0.97089  1.0000
  C   C1226     1.0  0.77450  0.36113  0.58929  1.0000
  H   H1951     1.0  0.85513  0.66418  0.81588  1.0000
  C   C1227     1.0  0.83312  0.65155  0.54283  1.0000
  H   H1952     1.0  0.81386  0.67586  0.95114  1.0000
  H   H1953     1.0  0.78462  0.37565  0.69928  1.0000
  C   C1228     1.0  0.99822  0.55177  0.96777  1.0000
  H   H1954     1.0  0.99716  0.53422  0.96917  1.0000
  C   C1229     1.0  0.00083  0.59700  0.96463  1.0000
  H   H1955     1.0  0.84517  0.65593  0.55881  1.0000
  H   H1956     1.0  0.01550  0.61279  0.53826  1.0000
  Fe  Fe247     1.0  0.76929  0.44762  0.62042  1.0000
  C   C1230     1.0  0.79527  0.45692  0.96792  1.0000
  S   S487      1.0  0.86154  0.57920  0.97409  1.0000
  Fe  Fe248     1.0  0.92200  0.59593  0.97379  1.0000
  H   H1957     1.0  0.00097  0.54225  0.47573  1.0000
  C   C1231     1.0  0.98414  0.57488  0.47494  1.0000
  H   H1958     1.0  0.96326  0.55975  0.97412  1.0000
  H   H1959     1.0  0.80680  0.69540  0.40733  1.0000
  H   H1960     1.0  0.76995  0.70959  0.42659  1.0000
  S   S488      1.0  0.78598  0.78897  0.35032  1.0000
  S   S489      1.0  0.78202  0.73173  0.38119  1.0000
  C   C1232     1.0  0.77227  0.94361  0.27265  1.0000
  Fe  Fe249     1.0  0.79123  0.70627  0.34947  1.0000
  H   H1961     1.0  0.78969  0.77510  0.41428  1.0000
  S   S490      1.0  0.78418  0.94055  0.30510  1.0000
  S   S491      1.0  0.79544  0.92073  0.15307  1.0000
  H   H1962     1.0  0.77738  0.84560  0.27440  1.0000
  C   C1233     1.0  0.85347  0.99716  0.14473  1.0000
  S   S492      1.0  0.79230  0.92261  0.08670  1.0000
  H   H1963     1.0  0.78794  0.71305  0.47145  1.0000
  Fe  Fe250     1.0  0.78358  0.89946  0.11912  1.0000
  S   S493      1.0  0.79225  0.86257  0.11499  1.0000
  Fe  Fe251     1.0  0.80043  0.94552  0.12101  1.0000
  S   S494      1.0  0.82853  0.96765  0.11842  1.0000
  S   S495      1.0  0.76877  0.71671  0.02395  1.0000
  S   S496      1.0  0.78694  0.73025  0.31511  1.0000
  H   H1964     1.0  0.78703  0.86838  0.05649  1.0000
  H   H1965     1.0  0.77954  0.87176  0.31284  1.0000
  C   C1234     1.0  0.78532  0.93901  0.24981  1.0000
  C   C1235     1.0  0.82804  0.68711  0.02130  1.0000
  H   H1966     1.0  0.78050  0.75505  0.43678  1.0000
  N   N126      1.0  0.82361  0.99805  0.27206  1.0000
  H   H1967     1.0  0.79477  0.81632  0.10321  1.0000
  C   C1236     1.0  0.77441  0.70854  0.21288  1.0000
  H   H1968     1.0  0.84427  0.97263  0.29222  1.0000
  H   H1969     1.0  0.76654  0.86752  0.36541  1.0000
  H   H1970     1.0  0.85432  0.00472  0.12517  1.0000
  H   H1971     1.0  0.82245  0.68566  0.07509  1.0000
  H   H1972     1.0  0.79466  0.89743  0.02443  1.0000
  C   C1237     1.0  0.86434  0.00603  0.16724  1.0000
  C   C1238     1.0  0.76938  0.85932  0.26209  1.0000
  H   H1973     1.0  0.79261  0.83431  0.35889  1.0000
  C   C1239     1.0  0.77491  0.83295  0.35793  1.0000
  H   H1974     1.0  0.79216  0.70671  0.21013  1.0000
  H   H1975     1.0  0.83525  0.68091  0.00178  1.0000
  C   C1240     1.0  0.76689  0.81234  0.35333  1.0000
  H   H1976     1.0  0.80286  0.93425  0.25217  1.0000
  Fe  Fe252     1.0  0.77430  0.75482  0.34681  1.0000
  H   H1977     1.0  0.81475  0.70030  0.01638  1.0000
  H   H1978     1.0  0.79096  0.85963  0.00742  1.0000
  H   H1979     1.0  0.77686  0.71128  0.25647  1.0000
  H   H1980     1.0  0.83172  0.95444  0.17486  1.0000
  H   H1981     1.0  0.77332  0.90804  0.00106  1.0000
  H   H1982     1.0  0.78561  0.93596  0.20637  1.0000
  S   S497      1.0  0.87681  0.00692  0.22155  1.0000
  H   H1983     1.0  0.79115  0.77948  0.45027  1.0000
  C   C1241     1.0  0.86371  0.99612  0.19250  1.0000
  S   S498      1.0  0.82064  0.68093  0.35329  1.0000
  C   C1242     1.0  0.81966  0.68213  0.40922  1.0000
  C   C1243     1.0  0.84144  0.97865  0.14736  1.0000
  S   S499      1.0  0.77134  0.70593  0.15750  1.0000
  C   C1244     1.0  0.77156  0.88478  0.29949  1.0000
  C   C1245     1.0  0.80435  0.99476  0.28902  1.0000
  C   C1246     1.0  0.85198  0.97738  0.19499  1.0000
  C   C1247     1.0  0.84061  0.96889  0.17268  1.0000
  H   H1984     1.0  0.85177  0.96921  0.21413  1.0000
  H   H1985     1.0  0.76951  0.77748  0.21435  1.0000
  H   H1986     1.0  0.80955  0.98959  0.30984  1.0000
  C   C1248     1.0  0.77553  0.93981  0.22385  1.0000
  C   C1249     1.0  0.83869  0.97766  0.27150  1.0000
  H   H1987     1.0  0.77419  0.77378  0.16460  1.0000
  H   H1988     1.0  0.77079  0.91367  0.03648  1.0000
  H   H1989     1.0  0.84125  0.69483  0.03292  1.0000
  H   H1990     1.0  0.78277  0.86692  0.25134  1.0000
  C   C1250     1.0  0.76898  0.87232  0.05242  1.0000
  C   C1251     1.0  0.77141  0.84401  0.11222  1.0000
  H   H1991     1.0  0.77997  0.96554  0.98536  1.0000
  C   C1252     1.0  0.81581  0.00351  0.24428  1.0000
  H   H1992     1.0  0.79295  0.00999  0.29073  1.0000
  C   C1253     1.0  0.77747  0.82182  0.10602  1.0000
  H   H1993     1.0  0.82000  0.68327  0.45282  1.0000
  S   S500      1.0  0.77195  0.94778  0.43669  1.0000
  H   H1994     1.0  0.79456  0.98170  0.28037  1.0000
  H   H1995     1.0  0.83046  0.96374  0.26218  1.0000
  H   H1996     1.0  0.78495  0.89310  0.28974  1.0000
  C   C1254     1.0  0.77642  0.90081  0.02146  1.0000
  H   H1997     1.0  0.76984  0.87004  0.98380  1.0000
  H   H1998     1.0  0.79607  0.69116  0.05864  1.0000
  H   H1999     1.0  0.80776  0.98966  0.23447  1.0000
  H   H2000     1.0  0.85385  0.97985  0.25973  1.0000
  C   C1255     1.0  0.77006  0.71535  0.46954  1.0000
  H   H2001     1.0  0.76860  0.81110  0.40985  1.0000
  C   C1256     1.0  0.78091  0.77302  0.43361  1.0000
  C   C1257     1.0  0.77280  0.86402  0.00481  1.0000
  H   H2002     1.0  0.82977  0.00722  0.23127  1.0000
  H   H2003     1.0  0.77023  0.95971  0.03311  1.0000
  H   H2004     1.0  0.76872  0.81565  0.44571  1.0000
  C   C1258     1.0  0.78918  0.89344  0.53223  1.0000
  S   S501      1.0  0.81944  0.68141  0.85227  1.0000
  H   H2005     1.0  0.80263  0.69126  0.90638  1.0000
  C   C1259     1.0  0.77352  0.71308  0.71255  1.0000
  Fe  Fe253     1.0  0.77312  0.75588  0.84832  1.0000
  H   H2006     1.0  0.78587  0.70841  0.97103  1.0000
  H   H2007     1.0  0.79672  0.88883  0.55230  1.0000
  S   S502      1.0  0.77628  0.93829  0.80628  1.0000
  S   S503      1.0  0.79407  0.92507  0.65353  1.0000
  S   S504      1.0  0.78588  0.73204  0.81585  1.0000
  S   S505      1.0  0.78321  0.79067  0.85253  1.0000
  S   S506      1.0  0.79388  0.93157  0.58772  1.0000
  C   C1260     1.0  0.77643  0.82958  0.60135  1.0000
  Fe  Fe254     1.0  0.78227  0.90712  0.61670  1.0000
  S   S507      1.0  0.79062  0.87071  0.60808  1.0000
  Fe  Fe255     1.0  0.80250  0.95122  0.62478  1.0000
  S   S508      1.0  0.83518  0.96695  0.62636  1.0000
  Fe  Fe256     1.0  0.79009  0.70709  0.84924  1.0000
  H   H2008     1.0  0.77460  0.77887  0.66400  1.0000
  H   H2009     1.0  0.81010  0.98617  0.67197  1.0000
  C   C1261     1.0  0.77106  0.94133  0.72484  1.0000
  H   H2010     1.0  0.76970  0.78198  0.71352  1.0000
  H   H2011     1.0  0.77578  0.86854  0.81990  1.0000
  C   C1262     1.0  0.84896  0.98087  0.76618  1.0000
  N   N127      1.0  0.83132  0.99037  0.78425  1.0000
  C   C1263     1.0  0.81098  0.97909  0.77938  1.0000
  H   H2012     1.0  0.80043  0.88601  0.51641  1.0000
  H   H2013     1.0  0.79420  0.95056  0.48759  1.0000
  C   C1264     1.0  0.87063  0.00246  0.67868  1.0000
  H   H2014     1.0  0.78092  0.95522  0.53465  1.0000
  H   H2015     1.0  0.79721  0.98576  0.79262  1.0000
  H   H2016     1.0  0.86210  0.00035  0.59995  1.0000
  H   H2017     1.0  0.79358  0.82445  0.59700  1.0000
  H   H2018     1.0  0.81662  0.70338  0.52211  1.0000
  C   C1265     1.0  0.83866  0.98744  0.81272  1.0000
  C   C1266     1.0  0.77954  0.93880  0.75129  1.0000
  C   C1267     1.0  0.76910  0.95447  0.51811  1.0000
  H   H2019     1.0  0.87672  0.98241  0.64287  1.0000
  H   H2020     1.0  0.84038  0.69438  0.54264  1.0000
  H   H2021     1.0  0.79681  0.93316  0.75448  1.0000
  H   H2022     1.0  0.84220  0.96973  0.81761  1.0000
  H   H2023     1.0  0.78256  0.86364  0.75926  1.0000
  S   S509      1.0  0.78093  0.73188  0.88185  1.0000
  S   S510      1.0  0.76909  0.97042  0.62608  1.0000
  H   H2024     1.0  0.78776  0.83590  0.86522  1.0000
  H   H2025     1.0  0.79185  0.69111  0.55728  1.0000
  H   H2026     1.0  0.82571  0.99442  0.82690  1.0000
  C   C1268     1.0  0.77021  0.83395  0.86305  1.0000
  H   H2027     1.0  0.77588  0.71462  0.75622  1.0000
  H   H2028     1.0  0.79128  0.71098  0.70989  1.0000
  H   H2029     1.0  0.86437  0.98948  0.76861  1.0000
  H   H2030     1.0  0.84379  0.98239  0.74455  1.0000
  C   C1269     1.0  0.84260  0.98283  0.65468  1.0000
  C   C1270     1.0  0.86446  0.98868  0.65733  1.0000
  C   C1271     1.0  0.77658  0.95192  0.49143  1.0000
  C   C1272     1.0  0.85505  0.01016  0.69789  1.0000
  H   H2031     1.0  0.85401  0.99573  0.81706  1.0000
  C   C1273     1.0  0.82701  0.99052  0.67388  1.0000
  C   C1274     1.0  0.83324  0.00408  0.69542  1.0000
  H   H2032     1.0  0.88758  0.00662  0.68070  1.0000
  C   C1275     1.0  0.77024  0.85168  0.60791  1.0000
  H   H2033     1.0  0.77518  0.84249  0.78145  1.0000
  S   S511      1.0  0.77063  0.72325  0.52387  1.0000
  H   H2034     1.0  0.78186  0.93800  0.70787  1.0000
  C   C1276     1.0  0.82850  0.68897  0.52707  1.0000
  S   S512      1.0  0.77068  0.71173  0.65710  1.0000
  H   H2035     1.0  0.78264  0.89005  0.79788  1.0000
  C   C1277     1.0  0.76829  0.85637  0.76856  1.0000
  H   H2036     1.0  0.85326  0.96311  0.77012  1.0000
  H   H2037     1.0  0.80500  0.98078  0.75803  1.0000
  H   H2038     1.0  0.81387  0.96121  0.78362  1.0000
  H   H2039     1.0  0.78896  0.91160  0.53055  1.0000
  H   H2040     1.0  0.83805  0.68448  0.50845  1.0000
  H   H2041     1.0  0.87561  0.00953  0.57065  1.0000
  C   C1278     1.0  0.76864  0.88176  0.80626  1.0000
  H   H2042     1.0  0.82100  0.01003  0.71001  1.0000
  H   H2043     1.0  0.77133  0.77601  0.93247  1.0000
  H   H2044     1.0  0.77541  0.85650  0.55124  1.0000
  H   H2045     1.0  0.77795  0.85365  0.51529  1.0000
  C   C1279     1.0  0.76804  0.71154  0.96916  1.0000
  H   H2046     1.0  0.76771  0.88586  0.48574  1.0000
  H   H2047     1.0  0.76787  0.70790  0.92589  1.0000
  H   H2048     1.0  0.81547  0.68212  0.57775  1.0000
  N   N128      1.0  0.76662  0.88612  0.52924  1.0000
  C   C1280     1.0  0.76775  0.86195  0.53155  1.0000
