data_image0
_chemical_formula_structural       FeCSFeS2HSFeSFeS3FeCHFeHSFeS3HCSC3HC6H4C4HC5HFeH2CHC3H2C4H3SH3CH6CH6C2NH2FeH4CHCSH2CHNH2C2H2NSCH3CH6CHNHSCFeSNFeS2FeHFeSHSFeSC6H4C2NHC2HC3HCH5C2H4SH6CHCH9CH2CHCHC2HSNH4SHC2HCHNH3SCH2CH4SHCHSFeCSFeCSHC2HS2H2CSCH2C3HC2HCHNCH2C2HSC3H4CH7C2H4C4H3SCH3CHCFeH3C2H2NHSCHCH6CHNHCH3C3FeH3SHSHSHNSFeSFeS2CFeCSFeS2FeSHS2CH2CSHC2HFeC2H2C8H4C3H2C6H4CH2C2FeHNH3CHCSHC3HCSHFeH2SH3FeH3NH6CSHCH5CHFeCSFeS2NSFeSFeS2FeS3NCHC3H2CH3SHC3HCH2C7H4FeS2FeSFeSFeS3H2CHFeS2FeSC2H2C6H4C3H5CHSH7CH3CHNH2CNCHCH3CH2CH2CHCH3CH10C3NHNCH2FeH4NH2CH2C4H3SC2HCHC2HCH2CH3C2HCH2CSH10C2FeHFe2S2FeCFeS2FeSHC6H5SHCFeSC2FeHFeSHSCHC3H6NHCHNCH3C2HNCFeH3SH3SC2H2CH2SCH2SHCHSH3CHCH5C2SHCHCHSHC2H3CHSH2CFeS2FeSCHSH2CH3C2SFeNCHC2FeC2HSC2Fe2SH2SC2S2C2HCSHSH3CHCHC4H3CHCSH2C2H2CSH10C2HCNHC3SCHNCH3C2SH2SCH5CFeHNHFeS2FeSFeS5FeHSFeSHFeC6H4C3H2C6H4CSFeSH3FeS2HFeS2FeS2FeSFeS2H3C6H4C3H2C6H5NC3H4NH2CH3CNHNH4CHCH7CFeH2C2H7NH4C2HCHCH2CH2CHC2H4CH2CHFeHSCSHCH2NH4CHCHCFeSHCFeS2FeHFeSFeSFe2SFeS2C4H2C3H2C6H3NH2SHCHCH3SCH6CHC2H5SCHCH3C2HC2HSC2HCH3SCHNSC2H2S2H2CH5CHCH3Fe2S2Fe2S2FeC4SCH2C5H2N2C4H12SCH3CSHCH2CH3CSCH2CH2SH12SH2NHCH2CSHCHCHFeSFeS2FeS3C3HC2H2NFeCSH5C2HC2H2C2SCH2CNCHC2HNCHCH3CH4CH2C2H4C2H2CHCHC2H2CH5C2HC2H3SHSHC2H2CHCHNHCSCH2CH5SH2CH2CH7CHFeCS2HS3C6H4C3H2FeCHFeH2FeNHFeHC2H3S2NH2CFeHC3H2CH2CH6CFeCHCSHSFeH2SHCH4NHC3SHC2HSH4SHCHC2HCHCHFeSHSH2CHSH2C2H8NSFeS2HSFeSFeSHSFeHSFeHSCH2SH2SC2H2C6H4C3SHCHC3H5FeCHCH2C4SH7C2HSHSCHCHCHCH4CHNHC2H2CH2C4FeSCH7SC2HFeSCFeS2FeNFeSCSFeSC6H4C2H2C4HCHCH9SCHCHCH10CH7C2H2NCH3SHC3H4C2NCHCHSH4SCFeNSHSH3FeSHSHFeC2H5CH5CNSH2C2HNCHCH2CHC2H2SHC2H3SH7CHNHCH3C2HC2H2C2H3C3HCHC2H2NCHCNSCHCH4SCH2NHCHCHCHCHSH3C2H3CH6CSH2C2H2FeHC3SFeS2HSFeSFeS3FeNSFeS2FeSHSFeH2C2H2CH3C2H2SC7H4SCHCHC6H2CH2CH2CHNHCH5CHSFeHCH2C3H2SH8CHCHCH2CH2SH2FeCHCH2C2H3NH3NCH4FeS2FeSCHSFeSFeS2FeS3HCHC3H2C2H2FeHC2H5C7H4FeS2FeSFeSFeS3HCH2FeHSFeSC2H2C6H4C3H2CHC2H2CN2H2C2NC4H11SC2H2CHSHS2C3H5C2HC3H2CH3C2H8CH2C2HNCH7SH2NCHC3NH5CH8SFeH2CH3CH2FeH2FeS2FeHFeS2FeSC7H4SH3FeSC2FeCFeSCS2C5H4SCHCHS2CH2CH9CHSHCH2CHCNFeC2FeSCFeSH2S3HFeHC2H2C2HC3H5CHFeHSHC3NHSH3CH3CHC2H2CHNH2CSNH3C4H2SHC2HCFeHSHC3Fe2H2CHS2CHCH3C2H4C2SC2SH2CHCH3CFeS2FeSFeS4HFeS2FeSFeC7H4C3H2C6H4S2FeSHSH3SNFeS2FeS2FeSFeS2CH2C6H4C3H2C6H4NH2FeH3NC4NHC3NSHCHCH4CH3CH2CHCH3SH2NCSH6CH4C2SNH6C2HC2HCH3NH2FeH7CSH4CHCH3C2H2CHCH3CHCH6FeS2FeSFeS2HSFeSH4FeS2HS2H4FeHC2HNH3C6HFeCH2SC2SCH3C7H5C2H2CNH4CSC2HNC4H3CH2CHCH5FeHCH5FeNHFeS2FeHFeS3FeSCSH2NC4H6C7H8CHNSNCH2C2FeH5CH4NHCH3C2H2C3HCH5SH7CH2CH3SC2H7CSHCHCHC2H2CH2CSH2CSHCFeCSFeS2FeSCHS2HCSHC3HSHCH5CHCH4C3H2CH4FeCHCH4CH2NHC2H2C2H3SCH2C3H2NH4SNHC5NCHSHSH7NHCHCH2CH8CH3CHCH2NHFeSFeCSFeSFeSCSHSFeS2CSFeHSH2FeSH2C6H4CH4CHSH4CSHC6H4NH2C3H6CHC2HFeH3CSC2SCH3C3H3FeHNCHFeSHSHCH3FeH2SH2
_chemical_formula_sum              "Fe192 C960 S384 H1536 N96"
_cell_length_a       58.4685
_cell_length_b       58.5076
_cell_length_c       56.0835
_cell_angle_alpha    90.2359
_cell_angle_beta     90.01
_cell_angle_gamma    120.104

_space_group_name_H-M_alt    "P 1"
_space_group_IT_number       1

loop_
  _space_group_symop_operation_xyz
  'x, y, z'

loop_
  _atom_site_type_symbol
  _atom_site_label
  _atom_site_symmetry_multiplicity
  _atom_site_fract_x
  _atom_site_fract_y
  _atom_site_fract_z
  _atom_site_occupancy
  Fe  Fe1       1.0  0.13368  0.01224  0.12588  1.0000
  C   C1        1.0  0.13878  0.00772  0.03297  1.0000
  S   S1        1.0  0.29967  0.27344  0.22827  1.0000
  Fe  Fe2       1.0  0.39052  0.04701  0.09151  1.0000
  S   S2        1.0  0.39051  0.07468  0.11963  1.0000
  S   S3        1.0  0.39985  0.06173  0.05339  1.0000
  H   H1        1.0  0.19837  0.15005  0.22060  1.0000
  S   S4        1.0  0.37685  0.02890  0.15814  1.0000
  Fe  Fe3       1.0  0.35327  0.03927  0.13304  1.0000
  S   S5        1.0  0.31764  0.04222  0.14631  1.0000
  Fe  Fe4       1.0  0.41427  0.06196  0.14217  1.0000
  S   S6        1.0  0.44835  0.09076  0.16714  1.0000
  S   S7        1.0  0.17285  0.21433  0.22979  1.0000
  S   S8        1.0  0.41640  0.03646  0.11307  1.0000
  Fe  Fe5       1.0  0.13789  0.17193  0.23476  1.0000
  C   C2        1.0  0.45867  0.10469  0.09894  1.0000
  H   H2        1.0  0.09564  0.05837  0.09692  1.0000
  Fe  Fe6       1.0  0.07861  0.12944  0.22161  1.0000
  H   H3        1.0  0.08362  0.03027  0.22550  1.0000
  S   S9        1.0  0.04661  0.11786  0.19224  1.0000
  Fe  Fe7       1.0  0.11801  0.11277  0.23705  1.0000
  S   S10       1.0  0.13141  0.08300  0.23420  1.0000
  S   S11       1.0  0.35197  0.01269  0.10349  1.0000
  S   S12       1.0  0.11888  0.13906  0.20757  1.0000
  H   H4        1.0  0.21288  0.26935  0.22895  1.0000
  C   C3        1.0  0.12674  0.05012  0.06734  1.0000
  S   S13       1.0  0.13778  0.05244  0.12790  1.0000
  C   C4        1.0  0.36987  0.99358  0.01441  1.0000
  C   C5        1.0  0.22778  0.99232  0.13050  1.0000
  C   C6        1.0  0.25103  0.27183  0.23079  1.0000
  H   H5        1.0  0.45610  0.13598  0.06591  1.0000
  C   C7        1.0  0.13255  0.07396  0.20473  1.0000
  C   C8        1.0  0.14643  0.06091  0.19922  1.0000
  C   C9        1.0  0.14797  0.05410  0.17555  1.0000
  C   C10       1.0  0.13588  0.06064  0.15743  1.0000
  C   C11       1.0  0.12206  0.07372  0.16293  1.0000
  C   C12       1.0  0.12006  0.08002  0.18664  1.0000
  H   H6        1.0  0.15621  0.05630  0.21321  1.0000
  H   H7        1.0  0.15898  0.04429  0.17126  1.0000
  H   H8        1.0  0.11242  0.07849  0.14893  1.0000
  H   H9        1.0  0.10854  0.08924  0.19091  1.0000
  C   C13       1.0  0.28334  0.02355  0.13865  1.0000
  C   C14       1.0  0.99378  0.08675  0.20757  1.0000
  C   C15       1.0  0.26550  0.02977  0.14972  1.0000
  C   C16       1.0  0.24968  0.23008  0.23381  1.0000
  H   H10       1.0  0.27300  0.04636  0.16193  1.0000
  C   C17       1.0  0.18355  0.14907  0.20755  1.0000
  C   C18       1.0  0.21771  0.18025  0.18155  1.0000
  C   C19       1.0  0.08507  0.99797  0.19196  1.0000
  C   C20       1.0  0.01126  0.09858  0.18848  1.0000
  C   C21       1.0  0.00036  0.09528  0.16539  1.0000
  H   H11       1.0  0.22458  0.01925  0.15459  1.0000
  Fe  Fe8       1.0  0.37768  0.00441  0.12758  1.0000
  H   H12       1.0  0.44042  0.09445  0.08782  1.0000
  H   H13       1.0  0.01349  0.10431  0.15042  1.0000
  C   C22       1.0  0.23798  0.01447  0.14552  1.0000
  H   H14       1.0  0.42844  0.12748  0.10172  1.0000
  C   C23       1.0  0.38763  0.03837  0.02965  1.0000
  C   C24       1.0  0.47379  0.14555  0.07783  1.0000
  C   C25       1.0  0.26458  0.25779  0.23166  1.0000
  H   H15       1.0  0.13698  0.06898  0.07760  1.0000
  H   H16       1.0  0.08771  0.02477  0.09900  1.0000
  C   C26       1.0  0.20815  0.23048  0.23196  1.0000
  C   C27       1.0  0.22175  0.21661  0.23459  1.0000
  C   C28       1.0  0.08668  0.01403  0.23201  1.0000
  C   C29       1.0  0.37829  0.01153  0.03369  1.0000
  H   H17       1.0  0.14775  0.01198  0.05042  1.0000
  H   H18       1.0  0.17776  0.16377  0.21302  1.0000
  H   H19       1.0  0.08330  0.01469  0.18470  1.0000
  S   S14       1.0  0.15578  0.00303  0.09853  1.0000
  H   H20       1.0  0.12950  0.03533  0.07747  1.0000
  H   H21       1.0  0.28664  0.99733  0.11370  1.0000
  H   H22       1.0  0.22628  0.18442  0.16329  1.0000
  C   C30       1.0  0.14890  0.02729  0.01528  1.0000
  H   H23       1.0  0.06454  0.03241  0.08542  1.0000
  H   H24       1.0  0.15507  0.13268  0.16720  1.0000
  H   H25       1.0  0.20837  0.13619  0.15776  1.0000
  H   H26       1.0  0.45413  0.09470  0.11653  1.0000
  H   H27       1.0  0.45299  0.15754  0.11571  1.0000
  H   H28       1.0  0.09386  0.01595  0.03401  1.0000
  C   C31       1.0  0.08529  0.01500  0.05196  1.0000
  H   H29       1.0  0.10562  0.08035  0.05720  1.0000
  H   H30       1.0  0.16776  0.16744  0.17112  1.0000
  H   H31       1.0  0.21572  0.13365  0.18846  1.0000
  H   H32       1.0  0.48080  0.11604  0.20846  1.0000
  H   H33       1.0  0.10641  0.00405  0.19187  1.0000
  H   H34       1.0  0.16572  0.12923  0.20928  1.0000
  C   C32       1.0  0.27325  0.00205  0.12286  1.0000
  C   C33       1.0  0.27840  0.31979  0.18065  1.0000
  N   N1        1.0  0.46773  0.13311  0.10162  1.0000
  H   H35       1.0  0.16560  0.04657  0.01932  1.0000
  H   H36       1.0  0.18287  0.11317  0.17712  1.0000
  Fe  Fe9       1.0  0.33395  0.31600  0.23418  1.0000
  H   H37       1.0  0.10494  0.06227  0.03096  1.0000
  H   H38       1.0  0.25990  0.21900  0.23498  1.0000
  H   H39       1.0  0.48024  0.16694  0.07902  1.0000
  H   H40       1.0  0.21315  0.19607  0.18626  1.0000
  C   C34       1.0  0.48242  0.10148  0.17350  1.0000
  H   H41       1.0  0.37795  0.00465  0.05163  1.0000
  C   C35       1.0  0.08593  0.03909  0.08726  1.0000
  S   S15       1.0  0.07738  0.10143  0.24978  1.0000
  H   H42       1.0  0.18042  0.15576  0.14769  1.0000
  H   H43       1.0  0.44230  0.30942  0.24707  1.0000
  C   C36       1.0  0.17341  0.15238  0.16648  1.0000
  H   H44       1.0  0.26216  0.29311  0.22987  1.0000
  N   N2        1.0  0.09841  0.04114  0.06385  1.0000
  H   H45       1.0  0.23337  0.18219  0.19410  1.0000
  H   H46       1.0  0.47387  0.10139  0.09024  1.0000
  C   C37       1.0  0.09575  0.06037  0.04881  1.0000
  C   C38       1.0  0.20055  0.13336  0.17626  1.0000
  H   H47       1.0  0.13717  0.05342  0.05005  1.0000
  H   H48       1.0  0.27798  0.31607  0.16114  1.0000
  N   N3        1.0  0.19384  0.15377  0.18293  1.0000
  S   S16       1.0  0.09784  0.16508  0.24636  1.0000
  C   C39       1.0  0.22306  0.25825  0.23046  1.0000
  H   H49       1.0  0.00160  0.08910  0.22546  1.0000
  H   H50       1.0  0.10842  0.02208  0.23308  1.0000
  H   H51       1.0  0.07462  0.05426  0.04584  1.0000
  C   C40       1.0  0.44667  0.13635  0.11291  1.0000
  H   H52       1.0  0.06375  0.00720  0.04954  1.0000
  H   H53       1.0  0.44117  0.12658  0.13070  1.0000
  H   H54       1.0  0.21087  0.19550  0.23694  1.0000
  H   H55       1.0  0.08757  0.00013  0.06248  1.0000
  H   H56       1.0  0.29517  0.31828  0.18836  1.0000
  H   H57       1.0  0.25989  0.30345  0.18835  1.0000
  C   C41       1.0  0.38799  0.04695  0.00619  1.0000
  H   H58       1.0  0.04097  0.99612  0.20786  1.0000
  N   N4        1.0  0.07378  0.99063  0.21619  1.0000
  H   H59       1.0  0.07881  0.00932  0.25049  1.0000
  S   S17       1.0  0.37363  0.32265  0.24667  1.0000
  C   C42       1.0  0.02017  0.08125  0.48709  1.0000
  Fe  Fe10      1.0  0.13910  0.09627  0.47962  1.0000
  S   S18       1.0  0.11034  0.09424  0.45188  1.0000
  N   N5        1.0  0.17065  0.21008  0.31313  1.0000
  Fe  Fe11      1.0  0.17927  0.15634  0.46841  1.0000
  S   S19       1.0  0.15315  0.15753  0.43976  1.0000
  S   S20       1.0  0.21921  0.19204  0.47959  1.0000
  Fe  Fe12      1.0  0.12014  0.13429  0.46544  1.0000
  H   H60       1.0  0.20036  0.23657  0.33787  1.0000
  Fe  Fe13      1.0  0.14590  0.11755  0.42865  1.0000
  S   S21       1.0  0.14640  0.10497  0.39055  1.0000
  H   H61       1.0  0.44082  0.10326  0.49414  1.0000
  S   S22       1.0  0.17460  0.11755  0.45543  1.0000
  Fe  Fe14      1.0  0.09932  0.13731  0.27332  1.0000
  S   S23       1.0  0.09163  0.14044  0.31241  1.0000
  C   C43       1.0  0.13079  0.11458  0.36899  1.0000
  C   C44       1.0  0.13206  0.10912  0.34477  1.0000
  C   C45       1.0  0.11980  0.11659  0.32729  1.0000
  C   C46       1.0  0.10614  0.12957  0.33392  1.0000
  C   C47       1.0  0.10477  0.13491  0.35815  1.0000
  C   C48       1.0  0.11710  0.12753  0.37561  1.0000
  H   H62       1.0  0.14253  0.09904  0.33951  1.0000
  H   H63       1.0  0.12085  0.11219  0.30871  1.0000
  H   H64       1.0  0.09422  0.14490  0.36344  1.0000
  H   H65       1.0  0.11588  0.13173  0.39422  1.0000
  C   C49       1.0  0.12633  0.04478  0.43622  1.0000
  C   C50       1.0  0.14842  0.02695  0.41293  1.0000
  N   N6        1.0  0.14489  0.03460  0.43720  1.0000
  H   H66       1.0  0.13404  0.06260  0.42470  1.0000
  C   C51       1.0  0.25802  0.28309  0.47247  1.0000
  C   C52       1.0  0.26004  0.24376  0.48339  1.0000
  H   H67       1.0  0.12936  0.01108  0.40543  1.0000
  C   C53       1.0  0.23413  0.22694  0.47499  1.0000
  C   C54       1.0  0.22053  0.23845  0.46462  1.0000
  C   C55       1.0  0.23218  0.26627  0.46386  1.0000
  H   H68       1.0  0.17955  0.07313  0.43483  1.0000
  C   C56       1.0  0.14478  0.20487  0.30387  1.0000
  H   H69       1.0  0.20091  0.22601  0.45747  1.0000
  H   H70       1.0  0.22112  0.27488  0.45650  1.0000
  H   H71       1.0  0.13655  0.18841  0.29066  1.0000
  H   H72       1.0  0.42400  0.09657  0.46596  1.0000
  H   H73       1.0  0.14725  0.00270  0.45376  1.0000
  C   C57       1.0  0.43703  0.09213  0.47708  1.0000
  C   C58       1.0  0.42064  0.04938  0.45843  1.0000
  H   H74       1.0  0.12297  0.05046  0.45425  1.0000
  H   H75       1.0  0.43957  0.05621  0.44872  1.0000
  H   H76       1.0  0.14633  0.22246  0.29478  1.0000
  H   H77       1.0  0.15609  0.04407  0.40050  1.0000
  S   S24       1.0  0.08963  0.14669  0.46871  1.0000
  H   H78       1.0  0.15346  0.18046  0.34043  1.0000
  H   H79       1.0  0.41715  0.31314  0.26204  1.0000
  H   H80       1.0  0.02253  0.08418  0.46744  1.0000
  H   H81       1.0  0.43726  0.30326  0.48678  1.0000
  H   H82       1.0  0.45649  0.10032  0.46795  1.0000
  H   H83       1.0  0.11417  0.99565  0.44724  1.0000
  C   C59       1.0  0.44305  0.05875  0.49638  1.0000
  H   H84       1.0  0.16862  0.06204  0.46471  1.0000
  C   C60       1.0  0.18944  0.21704  0.29313  1.0000
  H   H85       1.0  0.18652  0.18918  0.33218  1.0000
  H   H86       1.0  0.19193  0.23468  0.28333  1.0000
  H   H87       1.0  0.15791  0.21597  0.48114  1.0000
  H   H88       1.0  0.27086  0.23522  0.49141  1.0000
  H   H89       1.0  0.03745  0.09843  0.49549  1.0000
  H   H90       1.0  0.05832  0.16694  0.48865  1.0000
  H   H91       1.0  0.12987  0.19899  0.31839  1.0000
  H   H92       1.0  0.18239  0.20065  0.27989  1.0000
  H   H93       1.0  0.16266  0.01959  0.41284  1.0000
  C   C61       1.0  0.39952  0.05360  0.49379  1.0000
  H   H94       1.0  0.16709  0.22756  0.34568  1.0000
  H   H95       1.0  0.18507  0.04833  0.44800  1.0000
  C   C62       1.0  0.18091  0.23220  0.33041  1.0000
  H   H96       1.0  0.18368  0.25060  0.32194  1.0000
  C   C63       1.0  0.17069  0.05543  0.44656  1.0000
  H   H97       1.0  0.40718  0.05255  0.44663  1.0000
  C   C64       1.0  0.16741  0.18618  0.32514  1.0000
  C   C65       1.0  0.06348  0.15779  0.50280  1.0000
  H   H98       1.0  0.29175  0.28409  0.48886  1.0000
  S   S25       1.0  0.27050  0.31797  0.47376  1.0000
  N   N7        1.0  0.42505  0.06348  0.48140  1.0000
  H   H99       1.0  0.38544  0.05701  0.48320  1.0000
  H   H100      1.0  0.20931  0.22145  0.29939  1.0000
  H   H101      1.0  0.15926  0.16895  0.31275  1.0000
  H   H102      1.0  0.01015  0.12074  0.49592  1.0000
  S   S26       1.0  0.13983  0.14604  0.26294  1.0000
  H   H103      1.0  0.10673  0.02978  0.42899  1.0000
  C   C66       1.0  0.27202  0.27157  0.48190  1.0000
  C   C67       1.0  0.13414  0.01139  0.45310  1.0000
  H   H104      1.0  0.99481  0.10465  0.46840  1.0000
  C   C68       1.0  0.15728  0.20079  0.49344  1.0000
  H   H105      1.0  0.46299  0.06718  0.48819  1.0000
  N   N8        1.0  0.99510  0.07886  0.49550  1.0000
  H   H106      1.0  0.41528  0.25551  0.49719  1.0000
  H   H107      1.0  0.43528  0.03728  0.49900  1.0000
  H   H108      1.0  0.41147  0.02766  0.46116  1.0000
  S   S27       1.0  0.14644  0.13515  0.49507  1.0000
  C   C69       1.0  0.99366  0.10233  0.48812  1.0000
  H   H109      1.0  0.08129  0.02545  0.48224  1.0000
  H   H110      1.0  0.13220  0.01688  0.47172  1.0000
  C   C70       1.0  0.07973  0.14715  0.49798  1.0000
  H   H111      1.0  0.46441  0.28280  0.49643  1.0000
  H   H112      1.0  0.13741  0.18292  0.49167  1.0000
  H   H113      1.0  0.17193  0.19539  0.48697  1.0000
  H   H114      1.0  0.02148  0.06343  0.49158  1.0000
  S   S28       1.0  0.13387  0.06170  0.50335  1.0000
  H   H115      1.0  0.38991  0.03200  0.49723  1.0000
  C   C71       1.0  0.08508  0.01507  0.49619  1.0000
  H   H116      1.0  0.99517  0.05961  0.52813  1.0000
  S   S29       1.0  0.02750  0.14174  0.72361  1.0000
  Fe  Fe15      1.0  0.43348  0.08895  0.56966  1.0000
  C   C72       1.0  0.47071  0.15295  0.73473  1.0000
  S   S30       1.0  0.39540  0.04939  0.56177  1.0000
  Fe  Fe16      1.0  0.45983  0.15098  0.57427  1.0000
  C   C73       1.0  0.00956  0.19090  0.69968  1.0000
  S   S31       1.0  0.45363  0.18662  0.58046  1.0000
  H   H117      1.0  0.43138  0.02987  0.54820  1.0000
  C   C74       1.0  0.46693  0.23919  0.58141  1.0000
  C   C75       1.0  0.43709  0.30750  0.50611  1.0000
  H   H118      1.0  0.19381  0.24275  0.53809  1.0000
  S   S32       1.0  0.44399  0.12192  0.54358  1.0000
  S   S33       1.0  0.44487  0.11753  0.60110  1.0000
  H   H119      1.0  0.48139  0.30738  0.51906  1.0000
  H   H120      1.0  0.99619  0.19456  0.68824  1.0000
  C   C76       1.0  0.00283  0.12945  0.70124  1.0000
  S   S34       1.0  0.47298  0.09148  0.56865  1.0000
  C   C77       1.0  0.11293  0.01413  0.52744  1.0000
  H   H121      1.0  0.37444  0.30367  0.74739  1.0000
  H   H122      1.0  0.00364  0.21056  0.74121  1.0000
  C   C78       1.0  0.47380  0.22074  0.57277  1.0000
  C   C79       1.0  0.14235  0.21647  0.52638  1.0000
  C   C80       1.0  0.46364  0.28772  0.51548  1.0000
  H   H123      1.0  0.44580  0.06805  0.51434  1.0000
  C   C81       1.0  0.01050  0.13104  0.67733  1.0000
  C   C82       1.0  0.48179  0.26624  0.57528  1.0000
  H   H124      1.0  0.47634  0.17341  0.69092  1.0000
  C   C83       1.0  0.41173  0.01577  0.54196  1.0000
  H   H125      1.0  0.03114  0.13889  0.67300  1.0000
  N   N9        1.0  0.02946  0.21517  0.71203  1.0000
  C   C84       1.0  0.39077  0.02023  0.54669  1.0000
  H   H126      1.0  0.41694  0.24584  0.52721  1.0000
  H   H127      1.0  0.06147  0.22668  0.73703  1.0000
  C   C85       1.0  0.43898  0.29447  0.54651  1.0000
  C   C86       1.0  0.01937  0.28373  0.55577  1.0000
  H   H128      1.0  0.14268  0.17131  0.53322  1.0000
  S   S35       1.0  0.03831  0.31832  0.54952  1.0000
  C   C87       1.0  0.04582  0.23534  0.69421  1.0000
  C   C88       1.0  0.00960  0.23846  0.54712  1.0000
  C   C89       1.0  0.02537  0.26610  0.54397  1.0000
  H   H129      1.0  0.20506  0.23013  0.51445  1.0000
  H   H130      1.0  0.44983  0.23239  0.59283  1.0000
  H   H131      1.0  0.01393  0.22520  0.53719  1.0000
  H   H132      1.0  0.99343  0.28661  0.58120  1.0000
  C   C90       1.0  0.16236  0.18971  0.53373  1.0000
  H   H133      1.0  0.34880  0.00424  0.54234  1.0000
  H   H134      1.0  0.19074  0.25014  0.50754  1.0000
  H   H135      1.0  0.16667  0.19633  0.55265  1.0000
  H   H136      1.0  0.14572  0.22363  0.54517  1.0000
  H   H137      1.0  0.45747  0.08730  0.69716  1.0000
  H   H138      1.0  0.40215  0.06357  0.51139  1.0000
  H   H139      1.0  0.05712  0.20129  0.71601  1.0000
  C   C91       1.0  0.40731  0.99294  0.52922  1.0000
  C   C92       1.0  0.99795  0.27335  0.57153  1.0000
  H   H140      1.0  0.42098  0.29543  0.55127  1.0000
  H   H141      1.0  0.03356  0.24037  0.68260  1.0000
  H   H142      1.0  0.13101  0.02394  0.53777  1.0000
  H   H143      1.0  0.47608  0.27999  0.58199  1.0000
  C   C93       1.0  0.01593  0.22530  0.72740  1.0000
  C   C94       1.0  0.07662  0.13401  0.53928  1.0000
  C   C95       1.0  0.39405  0.32143  0.75097  1.0000
  C   C96       1.0  0.08644  0.13541  0.51626  1.0000
  H   H144      1.0  0.05627  0.22817  0.68240  1.0000
  H   H145      1.0  0.39705  0.26050  0.52045  1.0000
  H   H146      1.0  0.01058  0.09491  0.53031  1.0000
  S   S36       1.0  0.04530  0.13916  0.57205  1.0000
  C   C97       1.0  0.36528  0.00123  0.53871  1.0000
  H   H147      1.0  0.06112  0.25387  0.70298  1.0000
  H   H148      1.0  0.01913  0.18265  0.68805  1.0000
  H   H149      1.0  0.45629  0.31410  0.55090  1.0000
  C   C98       1.0  0.98747  0.22802  0.56208  1.0000
  H   H150      1.0  0.04049  0.16396  0.52943  1.0000
  C   C99       1.0  0.05323  0.15594  0.52575  1.0000
  Fe  Fe17      1.0  0.00460  0.13378  0.57142  1.0000
  H   H151      1.0  0.17738  0.18443  0.52791  1.0000
  H   H152      1.0  0.47613  0.20062  0.72528  1.0000
  H   H153      1.0  0.08135  0.12438  0.55331  1.0000
  C   C100      1.0  0.04654  0.20906  0.72691  1.0000
  C   C101      1.0  0.05958  0.14375  0.54389  1.0000
  H   H154      1.0  0.03038  0.24351  0.73717  1.0000
  H   H155      1.0  0.41860  0.30794  0.50975  1.0000
  N   N10       1.0  0.43893  0.28773  0.52107  1.0000
  H   H156      1.0  0.43984  0.27971  0.55836  1.0000
  S   S37       1.0  0.99315  0.15593  0.59692  1.0000
  C   C102      1.0  0.48201  0.10568  0.66638  1.0000
  H   H157      1.0  0.03467  0.19360  0.74019  1.0000
  C   C103      1.0  0.41602  0.26122  0.51625  1.0000
  H   H158      1.0  0.04196  0.27378  0.53185  1.0000
  H   H159      1.0  0.12221  0.19864  0.52542  1.0000
  H   H160      1.0  0.99703  0.17520  0.71266  1.0000
  H   H161      1.0  0.47013  0.13439  0.72916  1.0000
  H   H162      1.0  0.99795  0.12426  0.64051  1.0000
  H   H163      1.0  0.46558  0.09789  0.65399  1.0000
  C   C104      1.0  0.47749  0.09966  0.69086  1.0000
  H   H164      1.0  0.45211  0.15171  0.72830  1.0000
  N   N11       1.0  0.16280  0.21039  0.51834  1.0000
  H   H165      1.0  0.47049  0.15318  0.75459  1.0000
  C   C105      1.0  0.10858  0.02828  0.50942  1.0000
  H   H166      1.0  0.00271  0.23000  0.71689  1.0000
  H   H167      1.0  0.46573  0.27305  0.52645  1.0000
  H   H168      1.0  0.09817  0.12634  0.51253  1.0000
  C   C106      1.0  0.99397  0.07698  0.52181  1.0000
  C   C107      1.0  0.99171  0.12284  0.65887  1.0000
  C   C108      1.0  0.18920  0.23443  0.51971  1.0000
  Fe  Fe18      1.0  0.48367  0.12493  0.54351  1.0000
  H   H169      1.0  0.14213  0.23197  0.51509  1.0000
  H   H170      1.0  0.42373  0.98980  0.52577  1.0000
  H   H171      1.0  0.40801  0.31443  0.75564  1.0000
  S   S38       1.0  0.33406  0.01165  0.91790  1.0000
  H   H172      1.0  0.17325  0.00954  0.96948  1.0000
  S   S39       1.0  0.37792  0.05514  0.86383  1.0000
  H   H173      1.0  0.16531  0.00028  0.83337  1.0000
  S   S40       1.0  0.00841  0.16358  0.82648  1.0000
  H   H174      1.0  0.02614  0.04749  0.90283  1.0000
  N   N12       1.0  0.40880  0.00517  0.82084  1.0000
  S   S41       1.0  0.05068  0.17938  0.78367  1.0000
  Fe  Fe19      1.0  0.03649  0.14982  0.81374  1.0000
  S   S42       1.0  0.06342  0.14456  0.84082  1.0000
  Fe  Fe20      1.0  0.01969  0.18997  0.79418  1.0000
  S   S43       1.0  0.02897  0.23290  0.78905  1.0000
  S   S44       1.0  0.00619  0.11671  0.79096  1.0000
  C   C109      1.0  0.03134  0.06500  0.89153  1.0000
  Fe  Fe21      1.0  0.16701  0.03010  0.88962  1.0000
  C   C110      1.0  0.13735  0.02214  0.99256  1.0000
  S   S45       1.0  0.20618  0.03437  0.87680  1.0000
  Fe  Fe22      1.0  0.12278  0.04570  0.88336  1.0000
  S   S46       1.0  0.09967  0.01984  0.91434  1.0000
  S   S47       1.0  0.10151  0.05961  0.85725  1.0000
  Fe  Fe23      1.0  0.13899  0.03553  0.93276  1.0000
  S   S48       1.0  0.14965  0.04768  0.97131  1.0000
  H   H175      1.0  0.39674  0.31544  0.79827  1.0000
  S   S49       1.0  0.16204  0.06383  0.90315  1.0000
  S   S50       1.0  0.13049  0.01475  0.86691  1.0000
  C   C111      1.0  0.42835  0.03045  0.80983  1.0000
  H   H176      1.0  0.00978  0.30568  0.78314  1.0000
  H   H177      1.0  0.00192  0.09946  0.87353  1.0000
  C   C112      1.0  0.41710  0.00409  0.84549  1.0000
  S   S51       1.0  0.98856  0.15895  0.77051  1.0000
  H   H178      1.0  0.23588  0.01833  0.94395  1.0000
  C   C113      1.0  0.00880  0.24747  0.79402  1.0000
  C   C114      1.0  0.03198  0.31367  0.84797  1.0000
  H   H179      1.0  0.43004  0.04761  0.82001  1.0000
  Fe  Fe24      1.0  0.35863  0.01785  0.88515  1.0000
  C   C115      1.0  0.00269  0.28594  0.78977  1.0000
  C   C116      1.0  0.01761  0.27331  0.78581  1.0000
  H   H180      1.0  0.19595  0.05167  0.94714  1.0000
  H   H181      1.0  0.02160  0.09019  0.85636  1.0000
  C   C117      1.0  0.37017  0.00212  0.99095  1.0000
  C   C118      1.0  0.98566  0.04775  0.88022  1.0000
  C   C119      1.0  0.07473  0.12132  0.84440  1.0000
  C   C120      1.0  0.06774  0.10020  0.82861  1.0000
  C   C121      1.0  0.07626  0.08178  0.83282  1.0000
  C   C122      1.0  0.09178  0.08395  0.85291  1.0000
  C   C123      1.0  0.09856  0.10493  0.86882  1.0000
  C   C124      1.0  0.09014  0.12343  0.86455  1.0000
  H   H182      1.0  0.05593  0.09817  0.81304  1.0000
  H   H183      1.0  0.07091  0.06577  0.82028  1.0000
  H   H184      1.0  0.11054  0.10708  0.88430  1.0000
  H   H185      1.0  0.09572  0.13961  0.87695  1.0000
  C   C125      1.0  0.25950  0.00886  0.88269  1.0000
  C   C126      1.0  0.24724  0.02383  0.87751  1.0000
  C   C127      1.0  0.22157  0.01593  0.88563  1.0000
  H   H186      1.0  0.27918  0.01514  0.87609  1.0000
  H   H187      1.0  0.25770  0.04154  0.86689  1.0000
  C   C128      1.0  0.41239  0.07081  0.86307  1.0000
  C   C129      1.0  0.42631  0.06573  0.88052  1.0000
  C   C130      1.0  0.45387  0.07756  0.87899  1.0000
  C   C131      1.0  0.46745  0.09433  0.85996  1.0000
  C   C132      1.0  0.45354  0.09955  0.84262  1.0000
  C   C133      1.0  0.42602  0.08796  0.84429  1.0000
  H   H188      1.0  0.41590  0.05303  0.89536  1.0000
  H   H189      1.0  0.46463  0.07371  0.89257  1.0000
  H   H190      1.0  0.46393  0.11269  0.82807  1.0000
  H   H191      1.0  0.41525  0.09206  0.83090  1.0000
  C   C134      1.0  0.37907  0.02888  0.98693  1.0000
  H   H192      1.0  0.37950  0.03575  0.96897  1.0000
  H   H193      1.0  0.98960  0.04263  0.86215  1.0000
  C   C135      1.0  0.98468  0.23437  0.80615  1.0000
  C   C136      1.0  0.21927  0.04851  0.98708  1.0000
  Fe  Fe25      1.0  0.01833  0.14689  0.76180  1.0000
  H   H194      1.0  0.38310  0.01963  0.83192  1.0000
  N   N13       1.0  0.00947  0.07078  0.89030  1.0000
  H   H195      1.0  0.25694  0.04875  0.95925  1.0000
  H   H196      1.0  0.03559  0.11168  0.88172  1.0000
  H   H197      1.0  0.19193  0.99586  0.98213  1.0000
  C   C137      1.0  0.19093  0.00735  0.96678  1.0000
  H   H198      1.0  0.41868  0.02072  0.85646  1.0000
  C   C138      1.0  0.38261  0.00327  0.82129  1.0000
  S   S52       1.0  0.44671  0.31271  0.78757  1.0000
  H   H199      1.0  0.23097  0.06767  0.94227  1.0000
  C   C139      1.0  0.00353  0.07648  0.91450  1.0000
  C   C140      1.0  0.21279  0.04810  0.94459  1.0000
  C   C141      1.0  0.01744  0.09396  0.87487  1.0000
  H   H200      1.0  0.44840  0.03268  0.80934  1.0000
  C   C142      1.0  0.23817  0.02952  0.96077  1.0000
  S   S53       1.0  0.14586  0.00322  0.91998  1.0000
  H   H201      1.0  0.20933  0.03708  0.92757  1.0000
  Fe  Fe26      1.0  0.48057  0.30681  0.79857  1.0000
  H   H202      1.0  0.99803  0.05962  0.92677  1.0000
  H   H203      1.0  0.03525  0.30836  0.86618  1.0000
  S   S54       1.0  0.37843  0.99598  0.89874  1.0000
  H   H204      1.0  0.03662  0.06104  0.87349  1.0000
  H   H205      1.0  0.04961  0.08203  0.89907  1.0000
  H   H206      1.0  0.01114  0.29932  0.84289  1.0000
  Fe  Fe27      1.0  0.10904  0.99025  0.89858  1.0000
  H   H207      1.0  0.02079  0.09429  0.92235  1.0000
  H   H208      1.0  0.23757  0.06821  0.98632  1.0000
  H   H209      1.0  0.37573  0.00429  0.80305  1.0000
  N   N14       1.0  0.21531  0.03336  0.96481  1.0000
  H   H210      1.0  0.03620  0.28369  0.77638  1.0000
  H   H211      1.0  0.36317  0.30502  0.79025  1.0000
  H   H212      1.0  0.47330  0.21726  0.81876  1.0000
  H   H213      1.0  0.18744  0.99523  0.95040  1.0000
  H   H214      1.0  0.42273  0.03208  0.79121  1.0000
  H   H215      1.0  0.43669  0.00526  0.84593  1.0000
  C   C143      1.0  0.20841  0.99294  0.89935  1.0000
  S   S55       1.0  0.47672  0.26654  0.80647  1.0000
  H   H216      1.0  0.20240  0.05191  0.99037  1.0000
  C   C144      1.0  0.11604  0.99703  0.98736  1.0000
  H   H217      1.0  0.98655  0.08010  0.91430  1.0000
  H   H218      1.0  0.24060  0.01830  0.97559  1.0000
  H   H219      1.0  0.04495  0.31052  0.83545  1.0000
  H   H220      1.0  0.10709  0.99279  0.96982  1.0000
  H   H221      1.0  0.22089  0.03785  0.00282  1.0000
  C   C145      1.0  0.38322  0.32260  0.79242  1.0000
  H   H222      1.0  0.39517  0.06765  0.00287  1.0000
  Fe  Fe28      1.0  0.35507  0.37511  0.23454  1.0000
  C   C146      1.0  0.46079  0.38773  0.18957  1.0000
  S   S56       1.0  0.34284  0.40543  0.22920  1.0000
  Fe  Fe29      1.0  0.39338  0.35667  0.22076  1.0000
  S   S57       1.0  0.42781  0.36190  0.19659  1.0000
  S   S58       1.0  0.35354  0.34732  0.20591  1.0000
  N   N15       1.0  0.07654  0.49824  0.21879  1.0000
  S   S59       1.0  0.37938  0.46101  0.12968  1.0000
  Fe  Fe30      1.0  0.16092  0.47734  0.13217  1.0000
  S   S60       1.0  0.19542  0.46906  0.13076  1.0000
  Fe  Fe31      1.0  0.10257  0.45813  0.14897  1.0000
  S   S61       1.0  0.09669  0.48189  0.12088  1.0000
  S   S62       1.0  0.07036  0.43194  0.17607  1.0000
  Fe  Fe32      1.0  0.11787  0.46851  0.09609  1.0000
  S   S63       1.0  0.10508  0.45281  0.05870  1.0000
  S   S64       1.0  0.12098  0.44219  0.12325  1.0000
  S   S65       1.0  0.14296  0.49110  0.16067  1.0000
  N   N16       1.0  0.20700  0.49318  0.05716  1.0000
  C   C147      1.0  0.11981  0.47668  0.03590  1.0000
  H   H223      1.0  0.37870  0.49496  0.05617  1.0000
  C   C148      1.0  0.27458  0.49429  0.12930  1.0000
  C   C149      1.0  0.24669  0.47869  0.12841  1.0000
  C   C150      1.0  0.23055  0.48990  0.13224  1.0000
  H   H224      1.0  0.28664  0.48529  0.12658  1.0000
  H   H225      1.0  0.23758  0.45772  0.12496  1.0000
  C   C151      1.0  0.43259  0.51210  0.17511  1.0000
  H   H226      1.0  0.22989  0.51668  0.02744  1.0000
  H   H227      1.0  0.99936  0.37181  0.10664  1.0000
  H   H228      1.0  0.10704  0.49401  0.23611  1.0000
  S   S66       1.0  0.11988  0.63985  0.20506  1.0000
  H   H229      1.0  0.17287  0.45485  0.05083  1.0000
  C   C152      1.0  0.02217  0.42934  0.16542  1.0000
  C   C153      1.0  0.03631  0.42210  0.18079  1.0000
  C   C154      1.0  0.02313  0.40657  0.20082  1.0000
  H   H230      1.0  0.00544  0.61571  0.22201  1.0000
  C   C155      1.0  0.04617  0.41527  0.09829  1.0000
  H   H231      1.0  0.03191  0.44145  0.15005  1.0000
  H   H232      1.0  0.03372  0.40072  0.21289  1.0000
  C   C156      1.0  0.47498  0.38334  0.17153  1.0000
  C   C157      1.0  0.35434  0.42211  0.20226  1.0000
  C   C158      1.0  0.36983  0.41632  0.18723  1.0000
  C   C159      1.0  0.37719  0.42818  0.16479  1.0000
  C   C160      1.0  0.36960  0.44628  0.15762  1.0000
  C   C161      1.0  0.35471  0.45264  0.17290  1.0000
  C   C162      1.0  0.34695  0.44043  0.19522  1.0000
  H   H233      1.0  0.37598  0.40255  0.19273  1.0000
  H   H234      1.0  0.38891  0.42343  0.15301  1.0000
  H   H235      1.0  0.34857  0.46641  0.16727  1.0000
  H   H236      1.0  0.33487  0.44484  0.20684  1.0000
  Fe  Fe33      1.0  0.39487  0.54127  0.08907  1.0000
  S   S67       1.0  0.39428  0.56975  0.11589  1.0000
  S   S68       1.0  0.40505  0.55208  0.05025  1.0000
  Fe  Fe34      1.0  0.38110  0.49992  0.12619  1.0000
  S   S69       1.0  0.37866  0.52452  0.15589  1.0000
  Fe  Fe35      1.0  0.35632  0.53468  0.12895  1.0000
  S   S70       1.0  0.32186  0.54199  0.13670  1.0000
  Fe  Fe36      1.0  0.41675  0.55730  0.14054  1.0000
  S   S71       1.0  0.45121  0.58582  0.16534  1.0000
  S   S72       1.0  0.35598  0.50724  0.10055  1.0000
  S   S73       1.0  0.42015  0.53184  0.11247  1.0000
  H   H237      1.0  0.41393  0.49683  0.16657  1.0000
  H   H238      1.0  0.16244  0.63167  0.17035  1.0000
  C   C163      1.0  0.01359  0.36894  0.09560  1.0000
  H   H239      1.0  0.30412  0.36381  0.15414  1.0000
  Fe  Fe37      1.0  0.12045  0.61657  0.23650  1.0000
  S   S74       1.0  0.13354  0.58653  0.23582  1.0000
  S   S75       1.0  0.15823  0.50243  0.10351  1.0000
  Fe  Fe38      1.0  0.13770  0.51358  0.13073  1.0000
  S   S76       1.0  0.14510  0.55489  0.13138  1.0000
  C   C164      1.0  0.13355  0.50370  0.04133  1.0000
  C   C165      1.0  0.14526  0.52243  0.02304  1.0000
  H   H240      1.0  0.13473  0.51025  0.05956  1.0000
  H   H241      1.0  0.15558  0.54328  0.02741  1.0000
  C   C166      1.0  0.13642  0.57749  0.20682  1.0000
  C   C167      1.0  0.15211  0.56611  0.20243  1.0000
  C   C168      1.0  0.15458  0.55881  0.17920  1.0000
  C   C169      1.0  0.14166  0.56330  0.16038  1.0000
  C   C170      1.0  0.12591  0.57458  0.16478  1.0000
  C   C171      1.0  0.12302  0.58137  0.18808  1.0000
  H   H242      1.0  0.16245  0.56305  0.21697  1.0000
  H   H243      1.0  0.16685  0.55017  0.17574  1.0000
  H   H244      1.0  0.11565  0.57771  0.15021  1.0000
  H   H245      1.0  0.11010  0.58921  0.19151  1.0000
  C   C172      1.0  0.28677  0.52138  0.13428  1.0000
  C   C173      1.0  0.24272  0.51706  0.13676  1.0000
  C   C174      1.0  0.27060  0.53261  0.13788  1.0000
  H   H246      1.0  0.23071  0.52606  0.13982  1.0000
  H   H247      1.0  0.27975  0.55350  0.14182  1.0000
  H   H248      1.0  0.22946  0.64356  0.18556  1.0000
  H   H249      1.0  0.17675  0.46630  0.08111  1.0000
  H   H250      1.0  0.24572  0.49743  0.05911  1.0000
  C   C175      1.0  0.01149  0.60053  0.18911  1.0000
  H   H251      1.0  0.44904  0.61303  0.12332  1.0000
  S   S77       1.0  0.39573  0.38650  0.24755  1.0000
  H   H252      1.0  0.03859  0.46392  0.21179  1.0000
  H   H253      1.0  0.01034  0.58268  0.15511  1.0000
  H   H254      1.0  0.41195  0.53593  0.20118  1.0000
  H   H255      1.0  0.46572  0.59836  0.06333  1.0000
  H   H256      1.0  0.21256  0.51111  0.09181  1.0000
  H   H257      1.0  0.10186  0.51885  0.18920  1.0000
  H   H258      1.0  0.47115  0.58701  0.11591  1.0000
  C   C176      1.0  0.30494  0.36674  0.17381  1.0000
  H   H259      1.0  0.04745  0.46992  0.24277  1.0000
  H   H260      1.0  0.40592  0.51646  0.22762  1.0000
  H   H261      1.0  0.45941  0.55274  0.20590  1.0000
  C   C177      1.0  0.40833  0.51648  0.20794  1.0000
  H   H262      1.0  0.07076  0.49068  0.18102  1.0000
  N   N17       1.0  0.43013  0.51179  0.20136  1.0000
  H   H263      1.0  0.20223  0.52557  0.06900  1.0000
  H   H264      1.0  0.44917  0.61663  0.06946  1.0000
  C   C178      1.0  0.11806  0.46858  0.01204  1.0000
  N   N18       1.0  0.47788  0.62107  0.09601  1.0000
  C   C179      1.0  0.42441  0.48578  0.21047  1.0000
  H   H265      1.0  0.00954  0.37093  0.07654  1.0000
  C   C180      1.0  0.47373  0.41168  0.20221  1.0000
  H   H266      1.0  0.44850  0.50815  0.16938  1.0000
  H   H267      1.0  0.05761  0.51641  0.23750  1.0000
  H   H268      1.0  0.42198  0.48457  0.23019  1.0000
  C   C181      1.0  0.25755  0.34632  0.17667  1.0000
  H   H269      1.0  0.43717  0.53150  0.16762  1.0000
  H   H270      1.0  0.30065  0.35000  0.21928  1.0000
  C   C182      1.0  0.37313  0.47858  0.02063  1.0000
  H   H271      1.0  0.06620  0.39919  0.13326  1.0000
  H   H272      1.0  0.22287  0.47607  0.08113  1.0000
  C   C183      1.0  0.17935  0.47273  0.06214  1.0000
  H   H273      1.0  0.32309  0.36718  0.18039  1.0000
  C   C184      1.0  0.38159  0.49932  0.03733  1.0000
  H   H274      1.0  0.09114  0.50695  0.25485  1.0000
  H   H275      1.0  0.19184  0.62718  0.21382  1.0000
  H   H276      1.0  0.03332  0.41969  0.10978  1.0000
  C   C185      1.0  0.22460  0.48241  0.06217  1.0000
  H   H277      1.0  0.45422  0.53274  0.23168  1.0000
  H   H278      1.0  0.06293  0.45694  0.22361  1.0000
  H   H279      1.0  0.45880  0.64274  0.10697  1.0000
  H   H280      1.0  0.23912  0.33086  0.18532  1.0000
  H   H281      1.0  0.04960  0.51050  0.20625  1.0000
  H   H282      1.0  0.05633  0.36358  0.08936  1.0000
  H   H283      1.0  0.44042  0.48152  0.20586  1.0000
  H   H284      1.0  0.00914  0.34827  0.09833  1.0000
  H   H285      1.0  0.26546  0.33575  0.22135  1.0000
  H   H286      1.0  0.16549  0.48013  0.05857  1.0000
  C   C186      1.0  0.06572  0.51628  0.21958  1.0000
  C   C187      1.0  0.05545  0.47110  0.22454  1.0000
  C   C188      1.0  0.99876  0.58581  0.16840  1.0000
  N   N19       1.0  0.04121  0.38820  0.10214  1.0000
  H   H287      1.0  0.46335  0.41548  0.21621  1.0000
  N   N20       1.0  0.20060  0.65607  0.18636  1.0000
  C   C189      1.0  0.18325  0.63614  0.16861  1.0000
  H   H288      1.0  0.05699  0.38673  0.06785  1.0000
  H   H289      1.0  0.20372  0.48401  0.01967  1.0000
  Fe  Fe39      1.0  0.08060  0.63228  0.22007  1.0000
  H   H290      1.0  0.06702  0.43011  0.10244  1.0000
  H   H291      1.0  0.44090  0.58731  0.08579  1.0000
  H   H292      1.0  0.08051  0.39812  0.09162  1.0000
  H   H293      1.0  0.30754  0.38668  0.17721  1.0000
  N   N21       1.0  0.28106  0.34586  0.18572  1.0000
  H   H294      1.0  0.09631  0.48613  0.19374  1.0000
  H   H295      1.0  0.25904  0.36578  0.18026  1.0000
  C   C190      1.0  0.99610  0.60432  0.20608  1.0000
  H   H296      1.0  0.46541  0.36493  0.16165  1.0000
  H   H297      1.0  0.36366  0.45837  0.02678  1.0000
  C   C191      1.0  0.05948  0.38385  0.08710  1.0000
  C   C192      1.0  0.45511  0.53283  0.21185  1.0000
  C   C193      1.0  0.09820  0.50701  0.23640  1.0000
  C   C194      1.0  0.46613  0.63004  0.11456  1.0000
  H   H298      1.0  0.17079  0.64113  0.21364  1.0000
  H   H299      1.0  0.04222  0.36468  0.13117  1.0000
  H   H300      1.0  0.03224  0.38807  0.13943  1.0000
  S   S78       1.0  0.04663  0.61463  0.19209  1.0000
  C   C195      1.0  0.04563  0.38484  0.12755  1.0000
  C   C196      1.0  0.39405  0.52557  0.02964  1.0000
  H   H301      1.0  0.29332  0.45353  0.01179  1.0000
  C   C197      1.0  0.20934  0.50109  0.03186  1.0000
  H   H302      1.0  0.19605  0.50910  0.02762  1.0000
  C   C198      1.0  0.99632  0.39842  0.20551  1.0000
  C   C199      1.0  0.08681  0.49852  0.19464  1.0000
  H   H303      1.0  0.40577  0.46958  0.20269  1.0000
  C   C200      1.0  0.47805  0.36091  0.24397  1.0000
  H   H304      1.0  0.28631  0.37056  0.21619  1.0000
  H   H305      1.0  0.21959  0.46488  0.05082  1.0000
  C   C201      1.0  0.45764  0.60529  0.07786  1.0000
  H   H306      1.0  0.18323  0.61722  0.17081  1.0000
  H   H307      1.0  0.23567  0.53202  0.06977  1.0000
  H   H308      1.0  0.11433  0.52751  0.23277  1.0000
  C   C202      1.0  0.21468  0.51650  0.07258  1.0000
  C   C203      1.0  0.19149  0.64579  0.21065  1.0000
  H   H309      1.0  0.38912  0.50092  0.20039  1.0000
  C   C204      1.0  0.99522  0.42079  0.16988  1.0000
  H   H310      1.0  0.18966  0.64297  0.15003  1.0000
  H   H311      1.0  0.98658  0.38641  0.22095  1.0000
  C   C205      1.0  0.28337  0.35068  0.21174  1.0000
  S   S79       1.0  0.08100  0.60749  0.25069  1.0000
  H   H312      1.0  0.48062  0.64138  0.12895  1.0000
  H   H313      1.0  0.08127  0.53701  0.21569  1.0000
  H   H314      1.0  0.04281  0.41852  0.07936  1.0000
  H   H315      1.0  0.98869  0.62688  0.12622  1.0000
  H   H316      1.0  0.10747  0.44774  0.00765  1.0000
  H   H317      1.0  0.47221  0.53058  0.20655  1.0000
  H   H318      1.0  0.42744  0.32599  0.23252  1.0000
  H   H319      1.0  0.47203  0.36363  0.22585  1.0000
  H   H320      1.0  0.43794  0.37059  0.24592  1.0000
  H   H321      1.0  0.25523  0.34282  0.15707  1.0000
  C   C206      1.0  0.48427  0.59358  0.17274  1.0000
  C   C207      1.0  0.43462  0.32317  0.25007  1.0000
  Fe  Fe40      1.0  0.37188  0.37448  0.46481  1.0000
  H   H322      1.0  0.05741  0.39755  0.50160  1.0000
  Fe  Fe41      1.0  0.10476  0.64583  0.27066  1.0000
  Fe  Fe42      1.0  0.34547  0.39221  0.42958  1.0000
  S   S80       1.0  0.31787  0.39279  0.45752  1.0000
  S   S81       1.0  0.34811  0.40415  0.39069  1.0000
  Fe  Fe43      1.0  0.35360  0.41248  0.48210  1.0000
  C   C208      1.0  0.44496  0.42018  0.42313  1.0000
  Fe  Fe44      1.0  0.31272  0.35315  0.46865  1.0000
  S   S82       1.0  0.38109  0.41470  0.45311  1.0000
  S   S83       1.0  0.33839  0.35216  0.43934  1.0000
  Fe  Fe45      1.0  0.37346  0.35222  0.27234  1.0000
  S   S84       1.0  0.38515  0.35229  0.31080  1.0000
  H   H323      1.0  0.43326  0.44116  0.38592  1.0000
  C   C209      1.0  0.35516  0.38740  0.36797  1.0000
  C   C210      1.0  0.35951  0.39711  0.34455  1.0000
  C   C211      1.0  0.36752  0.38571  0.32658  1.0000
  C   C212      1.0  0.37160  0.36468  0.33199  1.0000
  C   C213      1.0  0.36655  0.35451  0.35521  1.0000
  C   C214      1.0  0.35817  0.36565  0.37306  1.0000
  H   H324      1.0  0.35707  0.41381  0.34036  1.0000
  H   H325      1.0  0.37125  0.39369  0.30872  1.0000
  H   H326      1.0  0.35438  0.35760  0.39081  1.0000
  H   H327      1.0  0.47153  0.33035  0.28223  1.0000
  H   H328      1.0  0.03044  0.61570  0.48843  1.0000
  S   S85       1.0  0.14476  0.63141  0.49193  1.0000
  H   H329      1.0  0.36794  0.62873  0.49003  1.0000
  C   C215      1.0  0.46356  0.34404  0.28374  1.0000
  Fe  Fe46      1.0  0.14083  0.59350  0.47716  1.0000
  S   S86       1.0  0.11075  0.58795  0.44955  1.0000
  C   C216      1.0  0.11536  0.64188  0.32991  1.0000
  C   C217      1.0  0.07281  0.63641  0.49246  1.0000
  Fe  Fe47      1.0  0.11635  0.62654  0.46272  1.0000
  H   H330      1.0  0.40307  0.41758  0.40007  1.0000
  Fe  Fe48      1.0  0.14446  0.61351  0.42520  1.0000
  S   S87       1.0  0.14143  0.60242  0.38599  1.0000
  H   H331      1.0  0.47925  0.36284  0.29179  1.0000
  S   S88       1.0  0.17488  0.61607  0.45153  1.0000
  C   C218      1.0  0.44229  0.37695  0.49990  1.0000
  H   H332      1.0  0.09084  0.62468  0.41338  1.0000
  C   C219      1.0  0.13302  0.61896  0.36433  1.0000
  C   C220      1.0  0.12772  0.60930  0.34081  1.0000
  C   C221      1.0  0.11902  0.62076  0.32363  1.0000
  H   H333      1.0  0.03378  0.58802  0.43045  1.0000
  H   H334      1.0  0.42357  0.36900  0.41417  1.0000
  H   H335      1.0  0.05965  0.58020  0.43019  1.0000
  H   H336      1.0  0.12998  0.59262  0.33595  1.0000
  H   H337      1.0  0.11463  0.61286  0.30567  1.0000
  H   H338      1.0  0.45742  0.39030  0.48771  1.0000
  N   N22       1.0  0.05447  0.59539  0.39711  1.0000
  H   H339      1.0  0.07606  0.59531  0.36608  1.0000
  C   C222      1.0  0.04702  0.62810  0.49992  1.0000
  H   H340      1.0  0.38551  0.48987  0.47736  1.0000
  N   N23       1.0  0.45513  0.34865  0.26027  1.0000
  C   C223      1.0  0.41974  0.41968  0.38883  1.0000
  H   H341      1.0  0.39364  0.59593  0.50364  1.0000
  H   H342      1.0  0.04029  0.60598  0.36610  1.0000
  H   H343      1.0  0.08859  0.52215  0.47706  1.0000
  C   C224      1.0  0.06792  0.58422  0.38297  1.0000
  C   C225      1.0  0.41576  0.36363  0.49287  1.0000
  H   H344      1.0  0.13456  0.64858  0.38816  1.0000
  N   N24       1.0  0.43347  0.40707  0.40008  1.0000
  C   C226      1.0  0.45474  0.40954  0.38418  1.0000
  Fe  Fe49      1.0  0.17641  0.65368  0.46429  1.0000
  H   H345      1.0  0.44661  0.39988  0.36660  1.0000
  H   H346      1.0  0.05426  0.56319  0.37815  1.0000
  H   H347      1.0  0.44667  0.33514  0.29648  1.0000
  S   S89       1.0  0.40749  0.36946  0.46461  1.0000
  H   H348      1.0  0.08132  0.63571  0.38736  1.0000
  H   H349      1.0  0.08479  0.58508  0.39302  1.0000
  H   H350      1.0  0.42935  0.41855  0.43549  1.0000
  S   S90       1.0  0.07771  0.62563  0.46492  1.0000
  C   C227      1.0  0.03273  0.59446  0.38289  1.0000
  C   C228      1.0  0.41442  0.37880  0.40418  1.0000
  H   H351      1.0  0.02903  0.55882  0.41511  1.0000
  H   H352      1.0  0.43524  0.63633  0.49419  1.0000
  C   C229      1.0  0.07360  0.62312  0.40346  1.0000
  H   H353      1.0  0.06450  0.63184  0.41510  1.0000
  H   H354      1.0  0.40666  0.36788  0.38714  1.0000
  S   S91       1.0  0.14418  0.65227  0.25924  1.0000
  C   C230      1.0  0.13015  0.64063  0.37032  1.0000
  H   H355      1.0  0.41120  0.41056  0.37119  1.0000
  H   H356      1.0  0.02229  0.60290  0.39303  1.0000
  S   S92       1.0  0.14773  0.65172  0.43654  1.0000
  H   H357      1.0  0.12772  0.42961  0.48242  1.0000
  C   C231      1.0  0.39059  0.49792  0.49523  1.0000
  H   H358      1.0  0.45509  0.41085  0.43232  1.0000
  S   S93       1.0  0.33292  0.34345  0.26163  1.0000
  H   H359      1.0  0.39716  0.37613  0.41483  1.0000
  H   H360      1.0  0.42658  0.35764  0.27521  1.0000
  H   H361      1.0  0.45947  0.44154  0.42082  1.0000
  C   C232      1.0  0.09019  0.51276  0.49305  1.0000
  H   H362      1.0  0.36915  0.33792  0.35942  1.0000
  C   C233      1.0  0.04367  0.57983  0.41912  1.0000
  H   H363      1.0  0.01785  0.57381  0.37783  1.0000
  H   H364      1.0  0.46535  0.40004  0.39210  1.0000
  H   H365      1.0  0.40749  0.53848  0.48378  1.0000
  H   H366      1.0  0.11553  0.39482  0.47877  1.0000
  H   H367      1.0  0.05615  0.47479  0.48461  1.0000
  C   C234      1.0  0.40313  0.52562  0.49897  1.0000
  C   C235      1.0  0.12123  0.65195  0.35322  1.0000
  S   S94       1.0  0.34622  0.37266  0.49537  1.0000
  H   H368      1.0  0.08143  0.42171  0.48208  1.0000
  C   C236      1.0  0.38972  0.63750  0.48832  1.0000
  H   H369      1.0  0.39337  0.62693  0.47357  1.0000
  C   C237      1.0  0.07176  0.48580  0.49742  1.0000
  H   H370      1.0  0.46952  0.43063  0.38074  1.0000
  S   S95       1.0  0.10254  0.65541  0.30933  1.0000
  H   H371      1.0  0.06998  0.38710  0.47732  1.0000
  C   C238      1.0  0.44420  0.36643  0.26330  1.0000
  C   C239      1.0  0.12027  0.41066  0.49222  1.0000
  H   H372      1.0  0.37563  0.33629  0.50324  1.0000
  H   H373      1.0  0.45900  0.38578  0.27114  1.0000
  H   H374      1.0  0.13677  0.41240  0.50348  1.0000
  C   C240      1.0  0.07555  0.40266  0.49120  1.0000
  H   H375      1.0  0.07980  0.59311  0.50370  1.0000
  S   S96       1.0  0.13487  0.56158  0.50477  1.0000
  H   H376      1.0  0.09162  0.57025  0.50458  1.0000
  H   H377      1.0  0.09313  0.55014  0.54309  1.0000
  C   C241      1.0  0.40793  0.41171  0.52714  1.0000
  Fe  Fe50      1.0  0.03608  0.40573  0.55066  1.0000
  S   S97       1.0  0.00499  0.40018  0.57746  1.0000
  S   S98       1.0  0.04975  0.43855  0.52210  1.0000
  Fe  Fe51      1.0  0.02314  0.38270  0.60139  1.0000
  S   S99       1.0  0.03339  0.39350  0.64030  1.0000
  C   C242      1.0  0.48343  0.35705  0.70206  1.0000
  H   H378      1.0  0.08705  0.42257  0.53562  1.0000
  S   S100      1.0  0.05602  0.39058  0.57556  1.0000
  H   H379      1.0  0.40142  0.33261  0.73400  1.0000
  H   H380      1.0  0.45358  0.34763  0.67519  1.0000
  C   C243      1.0  0.39081  0.49191  0.53771  1.0000
  H   H381      1.0  0.38555  0.47903  0.55297  1.0000
  H   H382      1.0  0.09554  0.47823  0.55025  1.0000
  H   H383      1.0  0.39857  0.60507  0.53438  1.0000
  C   C244      1.0  0.42980  0.35667  0.53881  1.0000
  C   C245      1.0  0.39618  0.34661  0.50872  1.0000
  S   S101      1.0  0.44917  0.61912  0.64452  1.0000
  Fe  Fe52      1.0  0.01490  0.64332  0.57154  1.0000
  N   N25       1.0  0.40163  0.63549  0.51089  1.0000
  C   C246      1.0  0.41726  0.44373  0.55825  1.0000
  H   H384      1.0  0.11097  0.44563  0.51543  1.0000
  C   C247      1.0  0.01646  0.38844  0.68662  1.0000
  C   C248      1.0  0.37553  0.40272  0.55778  1.0000
  Fe  Fe53      1.0  0.46074  0.62749  0.60562  1.0000
  C   C249      1.0  0.11250  0.51446  0.52976  1.0000
  C   C250      1.0  0.99749  0.38046  0.70487  1.0000
  H   H385      1.0  0.03728  0.39922  0.69111  1.0000
  S   S102      1.0  0.98694  0.64450  0.54466  1.0000
  C   C251      1.0  0.07703  0.57493  0.51256  1.0000
  C   C252      1.0  0.10720  0.60097  0.54402  1.0000
  Fe  Fe54      1.0  0.44826  0.60386  0.55443  1.0000
  Fe  Fe55      1.0  0.02777  0.34916  0.56216  1.0000
  S   S103      1.0  0.42466  0.57208  0.52558  1.0000
  H   H386      1.0  0.38814  0.32987  0.54402  1.0000
  H   H387      1.0  0.12289  0.59742  0.53666  1.0000
  S   S104      1.0  0.47211  0.60171  0.58489  1.0000
  C   C253      1.0  0.11090  0.52732  0.50911  1.0000
  C   C254      1.0  0.41573  0.40265  0.56739  1.0000
  S   S105      1.0  0.36738  0.44527  0.51132  1.0000
  S   S106      1.0  0.43381  0.62667  0.57644  1.0000
  C   C255      1.0  0.98835  0.61645  0.66952  1.0000
  C   C256      1.0  0.06038  0.58420  0.54849  1.0000
  H   H388      1.0  0.12023  0.42850  0.53653  1.0000
  C   C257      1.0  0.10420  0.42629  0.52436  1.0000
  S   S107      1.0  0.43858  0.35234  0.56746  1.0000
  H   H389      1.0  0.00378  0.38515  0.72325  1.0000
  S   S108      1.0  0.46031  0.34449  0.72563  1.0000
  H   H390      1.0  0.06971  0.37411  0.53027  1.0000
  H   H391      1.0  0.40534  0.38090  0.56446  1.0000
  H   H392      1.0  0.11065  0.60423  0.56356  1.0000
  C   C258      1.0  0.40323  0.34308  0.53173  1.0000
  H   H393      1.0  0.36495  0.38124  0.55337  1.0000
  C   C259      1.0  0.07758  0.55430  0.54959  1.0000
  H   H394      1.0  0.46966  0.38501  0.52861  1.0000
  C   C260      1.0  0.00873  0.38276  0.66261  1.0000
  C   C261      1.0  0.43044  0.64725  0.50773  1.0000
  C   C262      1.0  0.40383  0.51964  0.54140  1.0000
  C   C263      1.0  0.40992  0.53682  0.52205  1.0000
  H   H395      1.0  0.43889  0.45362  0.55484  1.0000
  H   H396      1.0  0.40847  0.52766  0.55930  1.0000
  H   H397      1.0  0.44874  0.60849  0.69456  1.0000
  C   C264      1.0  0.04254  0.63533  0.52248  1.0000
  H   H398      1.0  0.40041  0.42189  0.51550  1.0000
  C   C265      1.0  0.01477  0.63398  0.66361  1.0000
  S   S109      1.0  0.48238  0.64164  0.53988  1.0000
  H   H399      1.0  0.12834  0.52541  0.54240  1.0000
  H   H400      1.0  0.41436  0.40595  0.58676  1.0000
  C   C266      1.0  0.00141  0.61889  0.71128  1.0000
  C   C267      1.0  0.09420  0.65217  0.50741  1.0000
  H   H401      1.0  0.06268  0.58762  0.56810  1.0000
  H   H402      1.0  0.40917  0.45373  0.54703  1.0000
  C   C268      1.0  0.03442  0.64379  0.68146  1.0000
  S   S110      1.0  0.01108  0.36485  0.53498  1.0000
  H   H403      1.0  0.05810  0.53675  0.54518  1.0000
  H   H404      1.0  0.02011  0.63971  0.64524  1.0000
  H   H405      1.0  0.41433  0.44725  0.57722  1.0000
  H   H406      1.0  0.05697  0.55855  0.50777  1.0000
  H   H407      1.0  0.37508  0.64188  0.53281  1.0000
  H   H408      1.0  0.06197  0.60223  0.54035  1.0000
  H   H409      1.0  0.43697  0.41037  0.56310  1.0000
  H   H410      1.0  0.02253  0.62820  0.52837  1.0000
  H   H411      1.0  0.11009  0.61969  0.53616  1.0000
  H   H412      1.0  0.36609  0.41173  0.54706  1.0000
  C   C269      1.0  0.47451  0.35612  0.67862  1.0000
  C   C270      1.0  0.47364  0.63451  0.66685  1.0000
  H   H413      1.0  0.37186  0.40486  0.57689  1.0000
  C   C271      1.0  0.38992  0.60737  0.51751  1.0000
  N   N26       1.0  0.08053  0.57858  0.53867  1.0000
  H   H414      1.0  0.43995  0.64689  0.52471  1.0000
  C   C272      1.0  0.09386  0.48760  0.53429  1.0000
  C   C273      1.0  0.07338  0.47295  0.51806  1.0000
  C   C274      1.0  0.02784  0.63628  0.70536  1.0000
  S   S111      1.0  0.99664  0.34077  0.58943  1.0000
  C   C275      1.0  0.08764  0.37947  0.51947  1.0000
  H   H415      1.0  0.39705  0.39056  0.52202  1.0000
  N   N27       1.0  0.40413  0.41521  0.55266  1.0000
  C   C276      1.0  0.46823  0.62463  0.69020  1.0000
  H   H416      1.0  0.38064  0.35899  0.74651  1.0000
  H   H417      1.0  0.07942  0.55609  0.56935  1.0000
  H   H418      1.0  0.42913  0.41955  0.52274  1.0000
  C   C277      1.0  0.06387  0.65127  0.53739  1.0000
  C   C278      1.0  0.38407  0.48071  0.51461  1.0000
  S   S112      1.0  0.05298  0.64895  0.72741  1.0000
  H   H419      1.0  0.10294  0.38038  0.53188  1.0000
  H   H420      1.0  0.03998  0.56767  0.54495  1.0000
  S   S113      1.0  0.98798  0.60130  0.58247  1.0000
  C   C279      1.0  0.44925  0.37379  0.52298  1.0000
  H   H421      1.0  0.99608  0.61279  0.72958  1.0000
  H   H422      1.0  0.45393  0.32777  0.50956  1.0000
  H   H423      1.0  0.36817  0.59775  0.52009  1.0000
  H   H424      1.0  0.40528  0.64869  0.54729  1.0000
  H   H425      1.0  0.99402  0.43087  0.52091  1.0000
  C   C280      1.0  0.39660  0.64992  0.52998  1.0000
  Fe  Fe56      1.0  0.48203  0.36646  0.56923  1.0000
  H   H426      1.0  0.08226  0.36277  0.50685  1.0000
  N   N28       1.0  0.09691  0.40476  0.50682  1.0000
  H   H427      1.0  0.48410  0.62625  0.72541  1.0000
  Fe  Fe57      1.0  0.38039  0.45507  0.88537  1.0000
  S   S114      1.0  0.40502  0.48413  0.91428  1.0000
  S   S115      1.0  0.40266  0.44243  0.85901  1.0000
  Fe  Fe58      1.0  0.33294  0.46493  0.89545  1.0000
  S   S116      1.0  0.29095  0.45576  0.88593  1.0000
  Fe  Fe59      1.0  0.36793  0.46616  0.93617  1.0000
  S   S117      1.0  0.36527  0.45721  0.97563  1.0000
  S   S118      1.0  0.36707  0.48226  0.86979  1.0000
  S   S119      1.0  0.34370  0.43492  0.90862  1.0000
  S   S120      1.0  0.09862  0.44118  0.89842  1.0000
  S   S121      1.0  0.44188  0.59967  0.79491  1.0000
  Fe  Fe60      1.0  0.00572  0.38743  0.79420  1.0000
  H   H428      1.0  0.07925  0.35796  0.84305  1.0000
  S   S122      1.0  0.04952  0.41580  0.79517  1.0000
  Fe  Fe61      1.0  0.46115  0.34640  0.81406  1.0000
  S   S123      1.0  0.43169  0.35142  0.83778  1.0000
  H   H429      1.0  0.45776  0.54285  0.86837  1.0000
  Fe  Fe62      1.0  0.47571  0.34328  0.76231  1.0000
  C   C281      1.0  0.08527  0.43539  0.86972  1.0000
  C   C282      1.0  0.10163  0.44174  0.84975  1.0000
  C   C283      1.0  0.09052  0.43579  0.82683  1.0000
  C   C284      1.0  0.06311  0.42386  0.82388  1.0000
  C   C285      1.0  0.04688  0.41830  0.84383  1.0000
  C   C286      1.0  0.05790  0.42364  0.86676  1.0000
  H   H430      1.0  0.12279  0.45060  0.85203  1.0000
  H   H431      1.0  0.10314  0.44015  0.81140  1.0000
  H   H432      1.0  0.02587  0.41013  0.84166  1.0000
  H   H433      1.0  0.04527  0.41901  0.88221  1.0000
  C   C287      1.0  0.27487  0.47417  0.89264  1.0000
  C   C288      1.0  0.23620  0.47980  0.88755  1.0000
  C   C289      1.0  0.24898  0.46493  0.88422  1.0000
  H   H434      1.0  0.21652  0.47263  0.88050  1.0000
  H   H435      1.0  0.23886  0.44635  0.87464  1.0000
  C   C290      1.0  0.41113  0.41716  0.85427  1.0000
  C   C291      1.0  0.39895  0.39312  0.86654  1.0000
  C   C292      1.0  0.40566  0.37348  0.86136  1.0000
  C   C293      1.0  0.42491  0.37757  0.84413  1.0000
  C   C294      1.0  0.43742  0.40179  0.83214  1.0000
  C   C295      1.0  0.43038  0.42124  0.83701  1.0000
  H   H436      1.0  0.38408  0.38948  0.87980  1.0000
  H   H437      1.0  0.02101  0.33933  0.88193  1.0000
  H   H438      1.0  0.45237  0.40547  0.81896  1.0000
  H   H439      1.0  0.43996  0.43968  0.82735  1.0000
  C   C296      1.0  0.14345  0.51437  0.99918  1.0000
  S   S124      1.0  0.35504  0.49434  0.92417  1.0000
  Fe  Fe63      1.0  0.38982  0.50961  0.89989  1.0000
  S   S125      1.0  0.41469  0.55373  0.89843  1.0000
  H   H440      1.0  0.03750  0.36811  0.82105  1.0000
  H   H441      1.0  0.39266  0.51448  0.96956  1.0000
  H   H442      1.0  0.09445  0.55858  0.95859  1.0000
  Fe  Fe64      1.0  0.04923  0.62486  0.81640  1.0000
  S   S126      1.0  0.06465  0.60622  0.84407  1.0000
  S   S127      1.0  0.02433  0.60051  0.78520  1.0000
  H   H443      1.0  0.11670  0.54601  0.95583  1.0000
  Fe  Fe65      1.0  0.19302  0.51808  0.90170  1.0000
  S   S128      1.0  0.16482  0.49144  0.92971  1.0000
  S   S129      1.0  0.23575  0.52572  0.90101  1.0000
  Fe  Fe66      1.0  0.15443  0.53870  0.88655  1.0000
  S   S130      1.0  0.12438  0.51335  0.91374  1.0000
  S   S131      1.0  0.14802  0.56599  0.86095  1.0000
  Fe  Fe67      1.0  0.15839  0.52504  0.93889  1.0000
  S   S132      1.0  0.15794  0.53861  0.97669  1.0000
  Fe  Fe68      1.0  0.13348  0.48204  0.90211  1.0000
  S   S133      1.0  0.18845  0.55288  0.91261  1.0000
  S   S134      1.0  0.16164  0.50626  0.87301  1.0000
  H   H444      1.0  0.29584  0.50555  0.85133  1.0000
  H   H445      1.0  0.30269  0.52930  0.82829  1.0000
  H   H446      1.0  0.12827  0.48089  0.97539  1.0000
  C   C297      1.0  0.08760  0.59452  0.84777  1.0000
  C   C298      1.0  0.08455  0.57807  0.86731  1.0000
  C   C299      1.0  0.10248  0.56887  0.87147  1.0000
  C   C300      1.0  0.12427  0.57653  0.85648  1.0000
  C   C301      1.0  0.12725  0.59284  0.83689  1.0000
  C   C302      1.0  0.10900  0.60156  0.83243  1.0000
  H   H447      1.0  0.06802  0.57228  0.87926  1.0000
  H   H448      1.0  0.09941  0.55588  0.88626  1.0000
  H   H449      1.0  0.14393  0.59894  0.82507  1.0000
  H   H450      1.0  0.07752  0.53481  0.83202  1.0000
  C   C303      1.0  0.28755  0.49820  0.90510  1.0000
  C   C304      1.0  0.27505  0.51338  0.90788  1.0000
  C   C305      1.0  0.24934  0.50441  0.89903  1.0000
  H   H451      1.0  0.30721  0.50546  0.91216  1.0000
  H   H452      1.0  0.28543  0.53236  0.91681  1.0000
  C   C306      1.0  0.42056  0.56619  0.86949  1.0000
  C   C307      1.0  0.43082  0.59324  0.86593  1.0000
  C   C308      1.0  0.43704  0.60364  0.84286  1.0000
  C   C309      1.0  0.43233  0.58682  0.82340  1.0000
  C   C310      1.0  0.42127  0.55968  0.82690  1.0000
  C   C311      1.0  0.41575  0.54942  0.84999  1.0000
  H   H453      1.0  0.43457  0.60625  0.88103  1.0000
  H   H454      1.0  0.44561  0.62467  0.84010  1.0000
  H   H455      1.0  0.36215  0.52131  0.83020  1.0000
  H   H456      1.0  0.40871  0.52873  0.85267  1.0000
  H   H457      1.0  0.34887  0.56477  0.82070  1.0000
  N   N29       1.0  0.03725  0.34116  0.84710  1.0000
  C   C312      1.0  0.29712  0.44283  0.95267  1.0000
  C   C313      1.0  0.12388  0.60333  0.93374  1.0000
  C   C314      1.0  0.35377  0.56169  0.83915  1.0000
  H   H458      1.0  0.11578  0.59605  0.91556  1.0000
  H   H459      1.0  0.14039  0.62404  0.93178  1.0000
  H   H460      1.0  0.33566  0.51813  0.81166  1.0000
  H   H461      1.0  0.16133  0.57422  0.93851  1.0000
  N   N30       1.0  0.33709  0.53392  0.84669  1.0000
  H   H462      1.0  0.17077  0.60644  0.92746  1.0000
  H   H463      1.0  0.12893  0.59754  0.98075  1.0000
  C   C315      1.0  0.38943  0.51012  0.98839  1.0000
  H   H464      1.0  0.31406  0.49489  0.95735  1.0000
  H   H465      1.0  0.33479  0.48646  0.97431  1.0000
  H   H466      1.0  0.28007  0.42244  0.99615  1.0000
  C   C316      1.0  0.31487  0.48450  0.97363  1.0000
  N   N31       1.0  0.13295  0.58647  0.94503  1.0000
  H   H467      1.0  0.48106  0.60083  0.87913  1.0000
  N   N32       1.0  0.39256  0.33805  0.77016  1.0000
  H   H468      1.0  0.05327  0.46703  0.80795  1.0000
  H   H469      1.0  0.38244  0.33478  0.80741  1.0000
  H   H470      1.0  0.11185  0.61424  0.81739  1.0000
  H   H471      1.0  0.06933  0.38049  0.85404  1.0000
  C   C317      1.0  0.14395  0.59704  0.96893  1.0000
  H   H472      1.0  0.47484  0.58739  0.84934  1.0000
  C   C318      1.0  0.07193  0.48289  0.79991  1.0000
  H   H473      1.0  0.06669  0.48810  0.78249  1.0000
  H   H474      1.0  0.08462  0.47413  0.79610  1.0000
  H   H475      1.0  0.04920  0.50229  0.82924  1.0000
  H   H476      1.0  0.37246  0.35962  0.77732  1.0000
  H   H477      1.0  0.37515  0.56780  0.83939  1.0000
  H   H478      1.0  0.02210  0.36443  0.86290  1.0000
  H   H479      1.0  0.26460  0.46501  0.98729  1.0000
  C   C319      1.0  0.11045  0.55923  0.94737  1.0000
  Fe  Fe69      1.0  0.99389  0.60968  0.79911  1.0000
  H   H480      1.0  0.15088  0.58460  0.97790  1.0000
  H   H481      1.0  0.25136  0.43381  0.97193  1.0000
  C   C320      1.0  0.12990  0.48735  0.99374  1.0000
  C   C321      1.0  0.30894  0.52662  0.84631  1.0000
  H   H482      1.0  0.41804  0.54677  0.81182  1.0000
  H   H483      1.0  0.10805  0.60381  0.94438  1.0000
  H   H484      1.0  0.32891  0.49527  0.83564  1.0000
  H   H485      1.0  0.34120  0.54322  0.88419  1.0000
  H   H486      1.0  0.06832  0.35571  0.87339  1.0000
  H   H487      1.0  0.10099  0.51482  0.85164  1.0000
  H   H488      1.0  0.43313  0.35511  0.78050  1.0000
  N   N33       1.0  0.08541  0.50608  0.81590  1.0000
  H   H489      1.0  0.31641  0.44339  0.95329  1.0000
  H   H490      1.0  0.12376  0.51873  0.80090  1.0000
  H   H491      1.0  0.10608  0.49093  0.83620  1.0000
  H   H492      1.0  0.36577  0.53672  0.87224  1.0000
  C   C322      1.0  0.47427  0.55235  0.88146  1.0000
  C   C323      1.0  0.37702  0.48387  0.99612  1.0000
  H   H493      1.0  0.35122  0.57542  0.85120  1.0000
  C   C324      1.0  0.11007  0.52637  0.80451  1.0000
  H   H494      1.0  0.16122  0.61743  0.96785  1.0000
  C   C325      1.0  0.09181  0.49804  0.83877  1.0000
  H   H495      1.0  0.07386  0.48176  0.84733  1.0000
  H   H496      1.0  0.06238  0.52304  0.80345  1.0000
  C   C326      1.0  0.41906  0.36125  0.77418  1.0000
  H   H497      1.0  0.39579  0.35491  0.87083  1.0000
  H   H498      1.0  0.10177  0.55049  0.92969  1.0000
  C   C327      1.0  0.34457  0.53085  0.87112  1.0000
  H   H499      1.0  0.40759  0.55110  0.99900  1.0000
  C   C328      1.0  0.06783  0.51701  0.82035  1.0000
  C   C329      1.0  0.03345  0.34747  0.82245  1.0000
  H   H500      1.0  0.14596  0.57770  0.91209  1.0000
  H   H501      1.0  0.33305  0.50996  0.87701  1.0000
  H   H502      1.0  0.29638  0.45216  0.93569  1.0000
  H   H503      1.0  0.12090  0.54408  0.81614  1.0000
  C   C330      1.0  0.06474  0.35958  0.85474  1.0000
  H   H504      1.0  0.46643  0.55760  0.89738  1.0000
  H   H505      1.0  0.01279  0.33432  0.81631  1.0000
  C   C331      1.0  0.34112  0.51640  0.83030  1.0000
  H   H506      1.0  0.10602  0.53307  0.78729  1.0000
  Fe  Fe70      1.0  0.03963  0.63902  0.76571  1.0000
  H   H507      1.0  0.30489  0.53877  0.85912  1.0000
  S   S135      1.0  0.99135  0.35231  0.76999  1.0000
  C   C332      1.0  0.15364  0.58622  0.93009  1.0000
  S   S136      1.0  0.01749  0.63259  0.83102  1.0000
  H   H508      1.0  0.35381  0.33006  0.75989  1.0000
  C   C333      1.0  0.29552  0.44370  0.99563  1.0000
  H   H509      1.0  0.04684  0.34531  0.80971  1.0000
  H   H510      1.0  0.41856  0.37467  0.78803  1.0000
  N   N34       1.0  0.29380  0.45643  0.97351  1.0000
  H   H511      1.0  0.28140  0.42168  0.95179  1.0000
  H   H512      1.0  0.31506  0.44477  0.99713  1.0000
  H   H513      1.0  0.31338  0.49527  0.98942  1.0000
  H   H514      1.0  0.47936  0.53721  0.88706  1.0000
  C   C334      1.0  0.37402  0.34707  0.76313  1.0000
  H   H515      1.0  0.26591  0.46398  0.95529  1.0000
  C   C335      1.0  0.26774  0.45473  0.97201  1.0000
  H   H516      1.0  0.99777  0.33038  0.85777  1.0000
  C   C336      1.0  0.01872  0.34394  0.86315  1.0000
  Fe  Fe71      1.0  0.48404  0.63233  0.79578  1.0000
  S   S137      1.0  0.00661  0.64558  0.77675  1.0000
  H   H517      1.0  0.42741  0.37280  0.75753  1.0000
  C   C337      1.0  0.39792  0.53087  0.00511  1.0000
  Fe  Fe72      1.0  0.35574  0.87650  0.23485  1.0000
  S   S138      1.0  0.35296  0.84707  0.20744  1.0000
  S   S139      1.0  0.34474  0.90796  0.23041  1.0000
  Fe  Fe73      1.0  0.33499  0.81716  0.23729  1.0000
  H   H518      1.0  0.25079  0.94370  0.18187  1.0000
  Fe  Fe74      1.0  0.39373  0.85756  0.22121  1.0000
  S   S140      1.0  0.36918  0.96239  0.12965  1.0000
  Fe  Fe75      1.0  0.14062  0.67534  0.22931  1.0000
  S   S141      1.0  0.17534  0.71638  0.21986  1.0000
  Fe  Fe76      1.0  0.15731  0.97630  0.12640  1.0000
  Fe  Fe77      1.0  0.09840  0.95544  0.14171  1.0000
  S   S142      1.0  0.06618  0.92941  0.16898  1.0000
  Fe  Fe78      1.0  0.11583  0.96924  0.08910  1.0000
  S   S143      1.0  0.10158  0.95907  0.05080  1.0000
  S   S144      1.0  0.11793  0.94126  0.11528  1.0000
  C   C338      1.0  0.26535  0.75924  0.23607  1.0000
  C   C339      1.0  0.25399  0.77201  0.22400  1.0000
  C   C340      1.0  0.22645  0.75873  0.21955  1.0000
  C   C341      1.0  0.20975  0.73265  0.22734  1.0000
  H   H519      1.0  0.03468  0.96303  0.20360  1.0000
  H   H520      1.0  0.26652  0.79193  0.21757  1.0000
  C   C342      1.0  0.02016  0.93205  0.16059  1.0000
  C   C343      1.0  0.03278  0.92165  0.17432  1.0000
  C   C344      1.0  0.01884  0.90522  0.19369  1.0000
  H   H521      1.0  0.03046  0.94468  0.14564  1.0000
  H   H522      1.0  0.02826  0.89699  0.20449  1.0000
  C   C345      1.0  0.35013  0.92238  0.20222  1.0000
  C   C346      1.0  0.35637  0.94872  0.20040  1.0000
  C   C347      1.0  0.36185  0.96107  0.17812  1.0000
  C   C348      1.0  0.36056  0.94695  0.15752  1.0000
  C   C349      1.0  0.35348  0.92032  0.15927  1.0000
  C   C350      1.0  0.34842  0.90807  0.18163  1.0000
  H   H523      1.0  0.35773  0.95982  0.21636  1.0000
  H   H524      1.0  0.35235  0.90928  0.14334  1.0000
  H   H525      1.0  0.34311  0.88755  0.18295  1.0000
  N   N35       1.0  0.28671  0.95194  0.16399  1.0000
  H   H526      1.0  0.26913  0.95113  0.13010  1.0000
  H   H527      1.0  0.21812  0.76870  0.20966  1.0000
  S   S145      1.0  0.13800  0.98835  0.15502  1.0000
  H   H528      1.0  0.06852  0.95157  0.21433  1.0000
  C   C351      1.0  0.22096  0.72014  0.24009  1.0000
  H   H529      1.0  0.46196  0.87388  0.15452  1.0000
  C   C352      1.0  0.11679  0.98293  0.02816  1.0000
  H   H530      1.0  0.41212  0.91815  0.14187  1.0000
  H   H531      1.0  0.23806  0.96927  0.10749  1.0000
  H   H532      1.0  0.39282  0.90618  0.16859  1.0000
  S   S146      1.0  0.09338  0.98048  0.11449  1.0000
  C   C353      1.0  0.27292  0.93808  0.14185  1.0000
  H   H533      1.0  0.30203  0.94387  0.19580  1.0000
  H   H534      1.0  0.47415  0.96567  0.17474  1.0000
  H   H535      1.0  0.25346  0.92031  0.14573  1.0000
  H   H536      1.0  0.20847  0.70020  0.24642  1.0000
  H   H537      1.0  0.36775  0.98165  0.17708  1.0000
  H   H538      1.0  0.27225  0.91619  0.18432  1.0000
  C   C354      1.0  0.29120  0.93390  0.17911  1.0000
  H   H539      1.0  0.21328  0.69647  0.19539  1.0000
  C   C355      1.0  0.04507  0.98088  0.21518  1.0000
  C   C356      1.0  0.43075  0.93347  0.19983  1.0000
  H   H540      1.0  0.43486  0.91725  0.20365  1.0000
  H   H541      1.0  0.46456  0.93217  0.16782  1.0000
  H   H542      1.0  0.32343  0.98611  0.17418  1.0000
  H   H543      1.0  0.44524  0.95116  0.21010  1.0000
  H   H544      1.0  0.07035  0.96384  0.24399  1.0000
  S   S147      1.0  0.10155  0.67049  0.24146  1.0000
  C   C357      1.0  0.99403  0.92590  0.16605  1.0000
  H   H545      1.0  0.40620  0.95458  0.17795  1.0000
  C   C358      1.0  0.45910  0.94767  0.16518  1.0000
  H   H546      1.0  0.30328  0.92682  0.16966  1.0000
  H   H547      1.0  0.41844  0.89883  0.16283  1.0000
  H   H548      1.0  0.32512  0.96946  0.14774  1.0000
  C   C359      1.0  0.47366  0.88793  0.16829  1.0000
  C   C360      1.0  0.31241  0.97520  0.15790  1.0000
  H   H549      1.0  0.42410  0.96313  0.15046  1.0000
  C   C361      1.0  0.47713  0.90635  0.20754  1.0000
  C   C362      1.0  0.42553  0.95985  0.16983  1.0000
  H   H550      1.0  0.07498  0.98109  0.17928  1.0000
  S   S148      1.0  0.37550  0.82482  0.24855  1.0000
  C   C363      1.0  0.99272  0.89909  0.19916  1.0000
  C   C364      1.0  0.46147  0.88794  0.19002  1.0000
  H   H551      1.0  0.46076  0.95209  0.14577  1.0000
  C   C365      1.0  0.24856  0.73325  0.24417  1.0000
  H   H552      1.0  0.28489  0.93159  0.13141  1.0000
  H   H553      1.0  0.26683  0.97445  0.16616  1.0000
  H   H554      1.0  0.17942  0.67740  0.18623  1.0000
  S   S149      1.0  0.19308  0.96986  0.12754  1.0000
  C   C366      1.0  0.07831  0.96967  0.22563  1.0000
  H   H555      1.0  0.28039  0.97140  0.19377  1.0000
  N   N36       1.0  0.43213  0.93889  0.17399  1.0000
  S   S150      1.0  0.39682  0.88837  0.24719  1.0000
  C   C367      1.0  0.27044  0.96068  0.17706  1.0000
  C   C368      1.0  0.41306  0.91452  0.16121  1.0000
  H   H556      1.0  0.36306  0.97295  0.01773  1.0000
  H   H557      1.0  0.30984  0.98938  0.14669  1.0000
  S   S151      1.0  0.30026  0.77420  0.24073  1.0000
  S   S152      1.0  0.42660  0.86533  0.19375  1.0000
  H   H558      1.0  0.41070  0.92725  0.20706  1.0000
  H   H559      1.0  0.09975  0.97614  0.22612  1.0000
  C   C369      1.0  0.22806  0.66172  0.18320  1.0000
  H   H560      1.0  0.20540  0.68840  0.16455  1.0000
  H   H561      1.0  0.46837  0.90667  0.22444  1.0000
  H   H562      1.0  0.44044  0.97896  0.17797  1.0000
  H   H563      1.0  0.24167  0.67668  0.19639  1.0000
  H   H564      1.0  0.03591  0.97527  0.23316  1.0000
  C   C370      1.0  0.24566  0.98628  0.11920  1.0000
  H   H565      1.0  0.15596  0.74265  0.25448  1.0000
  C   C371      1.0  0.19962  0.68061  0.18296  1.0000
  H   H566      1.0  0.23562  0.66958  0.16508  1.0000
  H   H567      1.0  0.25704  0.72311  0.25353  1.0000
  H   H568      1.0  0.20401  0.66034  0.22455  1.0000
  Fe  Fe79      1.0  0.36136  0.86171  0.47060  1.0000
  Fe  Fe80      1.0  0.33747  0.88084  0.43342  1.0000
  S   S153      1.0  0.31386  0.88842  0.46104  1.0000
  S   S154      1.0  0.33374  0.88801  0.39424  1.0000
  Fe  Fe81      1.0  0.35121  0.90681  0.48375  1.0000
  Fe  Fe82      1.0  0.30440  0.84832  0.47536  1.0000
  S   S155      1.0  0.26427  0.81422  0.48789  1.0000
  S   S156      1.0  0.32612  0.84041  0.44664  1.0000
  Fe  Fe83      1.0  0.37593  0.85532  0.27346  1.0000
  C   C372      1.0  0.24956  0.78011  0.47973  1.0000
  C   C373      1.0  0.26080  0.77130  0.46257  1.0000
  C   C374      1.0  0.25006  0.74397  0.45825  1.0000
  C   C375      1.0  0.22739  0.72500  0.47042  1.0000
  S   S157      1.0  0.38753  0.85565  0.31218  1.0000
  C   C376      1.0  0.46342  0.92586  0.48979  1.0000
  H   H569      1.0  0.27800  0.78556  0.45285  1.0000
  H   H570      1.0  0.25952  0.73743  0.44555  1.0000
  C   C377      1.0  0.34884  0.87880  0.37177  1.0000
  C   C378      1.0  0.34414  0.88177  0.34772  1.0000
  C   C379      1.0  0.35598  0.87489  0.32933  1.0000
  C   C380      1.0  0.37281  0.86512  0.33485  1.0000
  C   C381      1.0  0.36548  0.86879  0.37730  1.0000
  H   H571      1.0  0.33140  0.88961  0.34331  1.0000
  H   H572      1.0  0.35235  0.87753  0.31092  1.0000
  N   N37       1.0  0.16270  0.73688  0.29113  1.0000
  N   N38       1.0  0.32152  0.78131  0.31624  1.0000
  C   C382      1.0  0.33341  0.78792  0.34036  1.0000
  C   C383      1.0  0.29803  0.75452  0.31617  1.0000
  C   C384      1.0  0.34113  0.78223  0.29905  1.0000
  C   C385      1.0  0.31353  0.80063  0.30929  1.0000
  H   H573      1.0  0.33936  0.77358  0.34641  1.0000
  H   H574      1.0  0.31949  0.78824  0.35373  1.0000
  H   H575      1.0  0.35149  0.80788  0.34069  1.0000
  H   H576      1.0  0.30331  0.73937  0.32123  1.0000
  H   H577      1.0  0.28281  0.75312  0.32894  1.0000
  H   H578      1.0  0.28876  0.74920  0.29810  1.0000
  H   H579      1.0  0.33302  0.77776  0.28058  1.0000
  H   H580      1.0  0.11418  0.65886  0.50153  1.0000
  H   H581      1.0  0.35917  0.80214  0.29868  1.0000
  H   H582      1.0  0.30462  0.79636  0.29110  1.0000
  H   H583      1.0  0.33080  0.82103  0.30916  1.0000
  H   H584      1.0  0.29892  0.80071  0.32194  1.0000
  S   S158      1.0  0.21762  0.69086  0.46752  1.0000
  C   C386      1.0  0.16909  0.75378  0.26979  1.0000
  H   H585      1.0  0.16681  0.77127  0.27326  1.0000
  H   H586      1.0  0.18976  0.76106  0.26373  1.0000
  H   H587      1.0  0.32803  0.75667  0.47131  1.0000
  C   C387      1.0  0.18025  0.75239  0.31107  1.0000
  S   S159      1.0  0.37500  0.90146  0.45471  1.0000
  H   H588      1.0  0.44001  0.66837  0.50233  1.0000
  C   C388      1.0  0.16659  0.71438  0.28562  1.0000
  H   H589      1.0  0.36932  0.86653  0.39576  1.0000
  H   H590      1.0  0.39815  0.65849  0.48285  1.0000
  C   C389      1.0  0.22654  0.76120  0.49150  1.0000
  H   H591      1.0  0.20144  0.76041  0.30640  1.0000
  H   H592      1.0  0.19824  0.71963  0.49660  1.0000
  H   H593      1.0  0.18747  0.72104  0.28084  1.0000
  C   C390      1.0  0.13483  0.72679  0.29794  1.0000
  S   S160      1.0  0.33525  0.84639  0.26341  1.0000
  C   C391      1.0  0.37750  0.86210  0.35889  1.0000
  H   H594      1.0  0.28028  0.75215  0.49972  1.0000
  H   H595      1.0  0.34481  0.79206  0.46868  1.0000
  C   C392      1.0  0.21543  0.73386  0.48681  1.0000
  H   H596      1.0  0.13090  0.74315  0.30186  1.0000
  H   H597      1.0  0.45844  0.94117  0.49524  1.0000
  S   S161      1.0  0.38851  0.84508  0.47524  1.0000
  H   H598      1.0  0.15419  0.70301  0.27016  1.0000
  H   H599      1.0  0.39056  0.85464  0.36333  1.0000
  H   H600      1.0  0.34755  0.76783  0.30363  1.0000
  H   H601      1.0  0.16093  0.70046  0.30091  1.0000
  H   H602      1.0  0.42759  0.83461  0.49506  1.0000
  H   H603      1.0  0.17764  0.76942  0.31589  1.0000
  H   H604      1.0  0.17611  0.74001  0.32732  1.0000
  H   H605      1.0  0.46149  0.92377  0.47004  1.0000
  H   H606      1.0  0.11877  0.66848  0.35815  1.0000
  H   H607      1.0  0.12943  0.71405  0.31407  1.0000
  H   H608      1.0  0.12103  0.71438  0.28349  1.0000
  H   H609      1.0  0.30502  0.80091  0.49478  1.0000
  S   S162      1.0  0.33920  0.86730  0.50058  1.0000
  H   H610      1.0  0.04860  0.97827  0.49032  1.0000
  H   H611      1.0  0.44803  0.90680  0.49745  1.0000
  N   N39       1.0  0.32260  0.77682  0.50105  1.0000
  H   H612      1.0  0.30978  0.77296  0.46459  1.0000
  C   C393      1.0  0.32648  0.77448  0.47529  1.0000
  H   H613      1.0  0.33984  0.81889  0.50042  1.0000
  H   H614      1.0  0.48106  0.89212  0.49833  1.0000
  C   C394      1.0  0.40537  0.85410  0.50252  1.0000
  S   S163      1.0  0.37792  0.94603  0.50430  1.0000
  H   H615      1.0  0.29771  0.73476  0.50517  1.0000
  C   C395      1.0  0.06649  0.98822  0.50087  1.0000
  H   H616      1.0  0.21752  0.76770  0.50470  1.0000
  C   C396      1.0  0.32107  0.80093  0.50541  1.0000
  H   H617      1.0  0.98820  0.92415  0.48681  1.0000
  Fe  Fe84      1.0  0.03010  0.84932  0.55921  1.0000
  S   S164      1.0  0.03624  0.81572  0.54550  1.0000
  Fe  Fe85      1.0  0.03794  0.90639  0.55049  1.0000
  S   S165      1.0  0.01006  0.90067  0.58074  1.0000
  S   S166      1.0  0.04656  0.93998  0.52369  1.0000
  Fe  Fe86      1.0  0.03040  0.88270  0.60089  1.0000
  S   S167      1.0  0.04197  0.88951  0.63994  1.0000
  S   S168      1.0  0.06024  0.89062  0.57173  1.0000
  S   S169      1.0  0.01097  0.86566  0.53523  1.0000
  C   C397      1.0  0.01774  0.78227  0.55509  1.0000
  C   C398      1.0  0.01723  0.76214  0.54086  1.0000
  C   C399      1.0  0.05455  0.74393  0.58599  1.0000
  H   H618      1.0  0.09803  0.97698  0.54622  1.0000
  C   C400      1.0  0.01678  0.87271  0.66118  1.0000
  C   C401      1.0  0.02374  0.86948  0.68432  1.0000
  H   H619      1.0  0.04417  0.87579  0.68833  1.0000
  H   H620      1.0  0.01026  0.85630  0.72006  1.0000
  N   N40       1.0  0.07059  0.73591  0.57165  1.0000
  Fe  Fe87      1.0  0.46961  0.66437  0.56389  1.0000
  C   C402      1.0  0.40072  0.86928  0.51898  1.0000
  S   S170      1.0  0.05826  0.65991  0.56568  1.0000
  H   H621      1.0  0.47721  0.91607  0.53283  1.0000
  H   H622      1.0  0.03966  0.90062  0.74003  1.0000
  H   H623      1.0  0.40948  0.89847  0.63132  1.0000
  H   H624      1.0  0.46399  0.67946  0.74146  1.0000
  H   H625      1.0  0.44080  0.93819  0.65489  1.0000
  C   C403      1.0  0.48194  0.73288  0.55670  1.0000
  C   C404      1.0  0.09901  0.71565  0.74169  1.0000
  H   H626      1.0  0.06589  0.75651  0.60144  1.0000
  C   C405      1.0  0.42690  0.89791  0.62407  1.0000
  C   C406      1.0  0.98773  0.72836  0.56885  1.0000
  H   H627      1.0  0.10598  0.77385  0.57482  1.0000
  H   H628      1.0  0.04810  0.75562  0.57525  1.0000
  C   C407      1.0  0.00451  0.85831  0.70229  1.0000
  C   C408      1.0  0.47985  0.70663  0.70119  1.0000
  S   S171      1.0  0.00210  0.84122  0.58937  1.0000
  C   C409      1.0  0.00225  0.73533  0.54763  1.0000
  H   H629      1.0  0.42043  0.87702  0.61928  1.0000
  H   H630      1.0  0.47506  0.68570  0.69906  1.0000
  C   C410      1.0  0.01102  0.91762  0.71750  1.0000
  N   N41       1.0  0.44906  0.90865  0.64133  1.0000
  C   C411      1.0  0.44053  0.89289  0.66345  1.0000
  H   H631      1.0  0.09333  0.73574  0.60180  1.0000
  C   C412      1.0  0.47036  0.70079  0.74334  1.0000
  C   C413      1.0  0.09308  0.75955  0.56091  1.0000
  H   H632      1.0  0.36423  0.79600  0.50862  1.0000
  N   N42       1.0  0.08365  0.72796  0.75001  1.0000
  C   C414      1.0  0.08069  0.72256  0.58718  1.0000
  H   H633      1.0  0.46140  0.70717  0.69762  1.0000
  C   C415      1.0  0.47611  0.86252  0.67631  1.0000
  H   H634      1.0  0.42385  0.89369  0.67214  1.0000
  H   H635      1.0  0.10626  0.67204  0.54145  1.0000
  H   H636      1.0  0.03638  0.72645  0.59303  1.0000
  C   C416      1.0  0.36088  0.97848  0.52582  1.0000
  H   H637      1.0  0.04281  0.97004  0.71221  1.0000
  H   H638      1.0  0.06419  0.70456  0.59548  1.0000
  H   H639      1.0  0.99252  0.93105  0.54056  1.0000
  H   H640      1.0  0.34689  0.76070  0.51186  1.0000
  C   C417      1.0  0.41395  0.87614  0.54089  1.0000
  H   H641      1.0  0.31719  0.80302  0.52448  1.0000
  H   H642      1.0  0.09271  0.71600  0.57690  1.0000
  C   C418      1.0  0.45731  0.93644  0.64693  1.0000
  C   C419      1.0  0.00336  0.77525  0.57638  1.0000
  H   H643      1.0  0.05543  0.95268  0.69525  1.0000
  H   H644      1.0  0.47890  0.74653  0.72485  1.0000
  H   H645      1.0  0.00378  0.79046  0.58770  1.0000
  H   H646      1.0  0.09320  0.70758  0.72325  1.0000
  C   C420      1.0  0.98832  0.74849  0.58308  1.0000
  C   C421      1.0  0.05518  0.70813  0.74935  1.0000
  H   H647      1.0  0.47843  0.91904  0.61405  1.0000
  H   H648      1.0  0.07065  0.93086  0.73961  1.0000
  C   C422      1.0  0.05279  0.95815  0.71371  1.0000
  H   H649      1.0  0.06534  0.71034  0.54187  1.0000
  C   C423      1.0  0.03406  0.94241  0.75274  1.0000
  H   H650      1.0  0.29454  0.75433  0.52842  1.0000
  C   C424      1.0  0.05410  0.71758  0.55249  1.0000
  C   C425      1.0  0.47053  0.74891  0.55329  1.0000
  H   H651      1.0  0.11016  0.76559  0.73434  1.0000
  H   H652      1.0  0.47663  0.78869  0.55237  1.0000
  C   C426      1.0  0.42382  0.84625  0.50782  1.0000
  H   H653      1.0  0.05565  0.91440  0.71207  1.0000
  H   H654      1.0  0.04845  0.70012  0.73102  1.0000
  H   H655      1.0  0.43273  0.90923  0.60708  1.0000
  H   H656      1.0  0.02328  0.95357  0.75237  1.0000
  H   H657      1.0  0.38738  0.87630  0.51473  1.0000
  C   C427      1.0  0.38190  0.97413  0.52089  1.0000
  C   C428      1.0  0.34521  0.77865  0.51450  1.0000
  H   H658      1.0  0.40584  0.67136  0.52584  1.0000
  C   C429      1.0  0.09421  0.98738  0.53230  1.0000
  C   C430      1.0  0.07081  0.97410  0.51898  1.0000
  H   H659      1.0  0.43382  0.87172  0.65985  1.0000
  H   H660      1.0  0.45184  0.84760  0.53365  1.0000
  H   H661      1.0  0.34119  0.96426  0.51974  1.0000
  S   S172      1.0  0.44992  0.87878  0.57298  1.0000
  H   H662      1.0  0.46393  0.94891  0.63062  1.0000
  S   S173      1.0  0.45530  0.86052  0.72041  1.0000
  H   H663      1.0  0.99882  0.89933  0.72803  1.0000
  C   C431      1.0  0.05143  0.91942  0.73008  1.0000
  C   C432      1.0  0.48166  0.87157  0.69994  1.0000
  H   H664      1.0  0.45621  0.84761  0.67140  1.0000
  H   H665      1.0  0.44975  0.73973  0.54890  1.0000
  C   C433      1.0  0.99022  0.86376  0.65585  1.0000
  H   H666      1.0  0.41027  0.88798  0.55350  1.0000
  C   C434      1.0  0.29777  0.75347  0.50896  1.0000
  H   H667      1.0  0.10556  0.75414  0.54993  1.0000
  N   N43       1.0  0.03731  0.93440  0.72851  1.0000
  H   H668      1.0  0.02811  0.76729  0.52426  1.0000
  C   C435      1.0  0.43246  0.86845  0.54614  1.0000
  S   S174      1.0  0.46197  0.69780  0.55257  1.0000
  C   C436      1.0  0.43759  0.85366  0.52957  1.0000
  H   H669      1.0  0.04679  0.72721  0.53999  1.0000
  H   H670      1.0  0.00125  0.72000  0.53608  1.0000
  C   C437      1.0  0.08882  0.75023  0.73428  1.0000
  H   H671      1.0  0.99970  0.92819  0.71618  1.0000
  H   H672      1.0  0.07285  0.97115  0.72135  1.0000
  H   H673      1.0  0.46594  0.88670  0.62605  1.0000
  H   H674      1.0  0.08306  0.74343  0.71552  1.0000
  H   H675      1.0  0.01276  0.91137  0.69911  1.0000
  S   S175      1.0  0.00383  0.66145  0.60132  1.0000
  H   H676      1.0  0.03656  0.69980  0.55988  1.0000
  H   H677      1.0  0.34329  0.78110  0.53395  1.0000
  C   C438      1.0  0.47156  0.90738  0.63079  1.0000
  H   H678      1.0  0.45692  0.90009  0.67675  1.0000
  H   H679      1.0  0.07743  0.75985  0.74008  1.0000
  C   C439      1.0  0.08973  0.65973  0.52989  1.0000
  H   H680      1.0  0.12063  0.72995  0.74181  1.0000
  H   H681      1.0  0.45233  0.70253  0.74169  1.0000
  H   H682      1.0  0.00289  0.95687  0.51915  1.0000
  H   H683      1.0  0.05482  0.65708  0.67669  1.0000
  H   H684      1.0  0.09547  0.69867  0.75315  1.0000
  H   H685      1.0  0.47404  0.94507  0.65990  1.0000
  H   H686      1.0  0.08612  0.77010  0.54907  1.0000
  C   C440      1.0  0.98561  0.94247  0.52984  1.0000
  H   H687      1.0  0.98464  0.86610  0.63801  1.0000
  Fe  Fe88      1.0  0.98464  0.85968  0.56631  1.0000
  C   C441      1.0  0.40704  0.98284  0.80690  1.0000
  S   S176      1.0  0.25955  0.96448  0.90089  1.0000
  S   S177      1.0  0.31806  0.94936  0.91202  1.0000
  H   H688      1.0  0.18604  0.95290  0.85212  1.0000
  S   S178      1.0  0.03824  0.70896  0.81698  1.0000
  S   S179      1.0  0.07962  0.94681  0.89646  1.0000
  S   S180      1.0  0.05160  0.90233  0.79170  1.0000
  C   C442      1.0  0.07248  0.93470  0.86722  1.0000
  C   C443      1.0  0.06211  0.90768  0.86297  1.0000
  C   C444      1.0  0.05568  0.89764  0.83969  1.0000
  C   C445      1.0  0.06018  0.91472  0.82065  1.0000
  C   C446      1.0  0.07090  0.94176  0.82484  1.0000
  C   C447      1.0  0.07660  0.95166  0.84817  1.0000
  H   H689      1.0  0.05892  0.89449  0.87768  1.0000
  H   H690      1.0  0.04754  0.87672  0.83645  1.0000
  H   H691      1.0  0.07399  0.95493  0.81015  1.0000
  H   H692      1.0  0.08343  0.97227  0.85142  1.0000
  C   C448      1.0  0.01960  0.72451  0.80900  1.0000
  C   C449      1.0  0.01360  0.76319  0.81208  1.0000
  C   C450      1.0  0.02823  0.75045  0.81702  1.0000
  H   H693      1.0  0.02044  0.78300  0.81866  1.0000
  H   H694      1.0  0.04624  0.76073  0.82740  1.0000
  Fe  Fe89      1.0  0.01127  0.86633  0.79229  1.0000
  C   C451      1.0  0.13682  0.93332  0.83259  1.0000
  H   H695      1.0  0.20984  0.95960  0.91420  1.0000
  Fe  Fe90      1.0  0.30328  0.97594  0.89815  1.0000
  H   H696      1.0  0.05094  0.69105  0.76076  1.0000
  H   H697      1.0  0.18882  0.98661  0.90602  1.0000
  Fe  Fe91      1.0  0.34549  0.96077  0.88035  1.0000
  N   N44       1.0  0.99391  0.91267  0.88236  1.0000
  H   H698      1.0  0.16074  0.98277  0.87356  1.0000
  Fe  Fe92      1.0  0.03282  0.66826  0.80726  1.0000
  H   H699      1.0  0.00342  0.90705  0.91814  1.0000
  C   C452      1.0  0.37428  0.90620  0.83270  1.0000
  C   C453      1.0  0.39352  0.89890  0.82763  1.0000
  H   H700      1.0  0.32754  0.89152  0.95899  1.0000
  H   H701      1.0  0.35195  0.92189  0.97297  1.0000
  H   H702      1.0  0.05351  0.95506  0.76158  1.0000
  S   S181      1.0  0.35271  0.93249  0.85666  1.0000
  S   S182      1.0  0.45703  0.78940  0.81337  1.0000
  N   N45       1.0  0.15488  0.96033  0.84155  1.0000
  H   H703      1.0  0.38608  0.90912  0.96512  1.0000
  H   H704      1.0  0.36170  0.87916  0.95076  1.0000
  C   C454      1.0  0.40162  0.93520  0.86422  1.0000
  Fe  Fe93      1.0  0.35045  0.98601  0.92978  1.0000
  H   H705      1.0  0.36459  0.90358  0.90191  1.0000
  C   C455      1.0  0.00350  0.90028  0.89959  1.0000
  C   C456      1.0  0.34280  0.91243  0.95557  1.0000
  C   C457      1.0  0.41688  0.90940  0.84104  1.0000
  H   H706      1.0  0.33244  0.92277  0.94897  1.0000
  H   H707      1.0  0.40513  0.94929  0.87826  1.0000
  C   C458      1.0  0.99621  0.71159  0.79562  1.0000
  H   H708      1.0  0.35623  0.89758  0.82231  1.0000
  H   H709      1.0  0.08765  0.72134  0.78712  1.0000
  C   C459      1.0  0.98979  0.74998  0.79936  1.0000
  H   H710      1.0  0.47436  0.71535  0.81971  1.0000
  H   H711      1.0  0.37338  0.95358  0.92758  1.0000
  H   H712      1.0  0.11284  0.75271  0.77603  1.0000
  H   H713      1.0  0.39841  0.94502  0.92204  1.0000
  H   H714      1.0  0.01535  0.91023  0.85220  1.0000
  H   H715      1.0  0.18793  0.96353  0.82174  1.0000
  C   C460      1.0  0.46643  0.74759  0.81558  1.0000
  Fe  Fe94      1.0  0.45485  0.87793  0.81028  1.0000
  C   C461      1.0  0.38276  0.94258  0.93475  1.0000
  H   H716      1.0  0.04283  0.71636  0.75601  1.0000
  C   C462      1.0  0.37610  0.90046  0.94779  1.0000
  S   S183      1.0  0.48268  0.86557  0.82621  1.0000
  H   H717      1.0  0.34020  0.91282  0.90749  1.0000
  S   S184      1.0  0.43451  0.84036  0.78797  1.0000
  Fe  Fe95      1.0  0.46510  0.83038  0.80141  1.0000
  H   H718      1.0  0.39008  0.88483  0.81355  1.0000
  H   H719      1.0  0.13135  0.97605  0.82760  1.0000
  S   S185      1.0  0.44166  0.90025  0.83625  1.0000
  H   H720      1.0  0.33468  0.88133  0.91734  1.0000
  C   C463      1.0  0.37806  0.92431  0.85107  1.0000
  H   H721      1.0  0.43866  0.93600  0.86986  1.0000
  H   H722      1.0  0.40113  0.98321  0.78811  1.0000
  H   H723      1.0  0.39141  0.90166  0.93519  1.0000
  H   H724      1.0  0.01070  0.94941  0.90170  1.0000
  N   N46       1.0  0.36290  0.91446  0.93835  1.0000
  H   H725      1.0  0.39247  0.95248  0.95185  1.0000
  C   C464      1.0  0.42070  0.92764  0.85935  1.0000
  C   C465      1.0  0.99475  0.90338  0.85798  1.0000
  C   C466      1.0  0.35003  0.90248  0.91533  1.0000
  S   S186      1.0  0.00058  0.83342  0.76631  1.0000
  H   H726      1.0  0.44784  0.73756  0.82508  1.0000
  C   C467      1.0  0.47542  0.77326  0.80685  1.0000
  C   C468      1.0  0.48145  0.73492  0.81257  1.0000
  H   H727      1.0  0.15689  0.97878  0.80792  1.0000
  S   S187      1.0  0.36047  0.97884  0.96723  1.0000
  H   H728      1.0  0.98565  0.91056  0.84473  1.0000
  H   H729      1.0  0.03187  0.94799  0.87943  1.0000
  H   H730      1.0  0.12735  0.95754  0.86840  1.0000
  H   H731      1.0  0.02413  0.90534  0.89561  1.0000
  S   S188      1.0  0.06713  0.66325  0.79562  1.0000
  H   H732      1.0  0.99780  0.66485  0.86306  1.0000
  C   C469      1.0  0.15194  0.97967  0.82692  1.0000
  H   H733      1.0  0.14106  0.93101  0.81366  1.0000
  C   C470      1.0  0.14823  0.96239  0.86658  1.0000
  C   C471      1.0  0.18253  0.96603  0.84020  1.0000
  H   H734      1.0  0.07999  0.74680  0.78170  1.0000
  C   C472      1.0  0.01091  0.94172  0.88357  1.0000
  H   H735      1.0  0.00436  0.95164  0.87061  1.0000
  C   C473      1.0  0.22043  0.97766  0.90406  1.0000
  H   H736      1.0  0.39208  0.96351  0.81461  1.0000
  Fe  Fe96      1.0  0.46510  0.86374  0.75984  1.0000
  S   S189      1.0  0.48340  0.90159  0.78094  1.0000
  H   H737      1.0  0.13859  0.91829  0.84329  1.0000
  S   S190      1.0  0.32717  0.98344  0.86467  1.0000
  H   H738      1.0  0.11580  0.92842  0.83352  1.0000
  H   H739      1.0  0.40260  0.98540  0.85437  1.0000
  C   C474      1.0  0.10571  0.97754  0.00518  1.0000
  H   H740      1.0  0.36738  0.98433  0.82940  1.0000
  S   S191      1.0  0.98935  0.83956  0.82298  1.0000
  H   H741      1.0  0.15107  0.94878  0.87841  1.0000
  H   H742      1.0  0.08878  0.95835  0.00127  1.0000
  C   C475      1.0  0.09146  0.73771  0.77473  1.0000
  C   C476      1.0  0.24603  0.98542  0.89571  1.0000
  H   H743      1.0  0.02279  0.92490  0.76438  1.0000
  H   H744      1.0  0.99103  0.87834  0.89917  1.0000
  H   H745      1.0  0.98938  0.69186  0.78892  1.0000
  H   H746      1.0  0.42628  0.98324  0.80664  1.0000
  H   H747      1.0  0.47818  0.70707  0.76181  1.0000
  H   H748      1.0  0.19669  0.98675  0.84569  1.0000
  H   H749      1.0  0.98486  0.66157  0.82092  1.0000
  H   H750      1.0  0.72234  0.05520  0.14670  1.0000
  N   N47       1.0  0.71230  0.04926  0.18394  1.0000
  S   S192      1.0  0.82232  0.29041  0.22523  1.0000
  Fe  Fe97      1.0  0.87233  0.02066  0.09380  1.0000
  S   S193      1.0  0.87625  0.05411  0.11703  1.0000
  S   S194      1.0  0.89020  0.02628  0.05687  1.0000
  H   H751      1.0  0.68746  0.03754  0.15276  1.0000
  S   S195      1.0  0.84564  0.01060  0.15824  1.0000
  Fe  Fe98      1.0  0.83330  0.02555  0.12670  1.0000
  S   S196      1.0  0.80039  0.03629  0.12625  1.0000
  Fe  Fe99      1.0  0.88839  0.03587  0.14660  1.0000
  S   S197      1.0  0.91983  0.05123  0.17693  1.0000
  H   H752      1.0  0.57950  0.10640  0.15209  1.0000
  S   S198      1.0  0.88695  0.00445  0.12248  1.0000
  Fe  Fe100     1.0  0.66109  0.19289  0.23692  1.0000
  H   H753      1.0  0.70749  0.01494  0.12191  1.0000
  S   S199      1.0  0.69647  0.23557  0.23810  1.0000
  Fe  Fe101     1.0  0.60259  0.15232  0.22034  1.0000
  H   H754      1.0  0.95293  0.06399  0.21867  1.0000
  S   S200      1.0  0.57239  0.13706  0.18896  1.0000
  C   C477      1.0  0.77279  0.31320  0.18811  1.0000
  H   H755      1.0  0.57595  0.03488  0.17438  1.0000
  H   H756      1.0  0.48726  0.13722  0.13514  1.0000
  S   S201      1.0  0.64313  0.15858  0.21071  1.0000
  H   H757      1.0  0.73968  0.09043  0.19048  1.0000
  H   H758      1.0  0.69516  0.04508  0.21875  1.0000
  S   S202      1.0  0.65139  0.06089  0.14273  1.0000
  C   C478      1.0  0.63988  0.01126  0.04214  1.0000
  C   C479      1.0  0.65526  0.02811  0.02357  1.0000
  H   H759      1.0  0.64352  0.01832  0.06036  1.0000
  H   H760      1.0  0.67072  0.04804  0.02768  1.0000
  C   C480      1.0  0.64668  0.08708  0.21812  1.0000
  C   C481      1.0  0.63339  0.06017  0.21235  1.0000
  C   C482      1.0  0.63476  0.05198  0.18917  1.0000
  C   C483      1.0  0.65021  0.07063  0.17199  1.0000
  C   C484      1.0  0.66432  0.09747  0.17803  1.0000
  C   C485      1.0  0.66234  0.10575  0.20105  1.0000
  H   H761      1.0  0.62107  0.04572  0.22550  1.0000
  H   H762      1.0  0.62333  0.03132  0.18451  1.0000
  H   H763      1.0  0.67623  0.11196  0.16474  1.0000
  H   H764      1.0  0.67270  0.12658  0.20551  1.0000
  C   C486      1.0  0.76561  0.01462  0.12961  1.0000
  C   C487      1.0  0.49921  0.09945  0.15686  1.0000
  C   C488      1.0  0.74812  0.02366  0.12346  1.0000
  S   S203      1.0  0.62100  0.18880  0.24409  1.0000
  H   H765      1.0  0.75605  0.04324  0.11606  1.0000
  C   C489      1.0  0.71184  0.02378  0.18527  1.0000
  H   H766      1.0  0.93102  0.01046  0.15942  1.0000
  C   C490      1.0  0.52651  0.11051  0.16191  1.0000
  C   C491      1.0  0.53747  0.12304  0.18395  1.0000
  C   C492      1.0  0.52054  0.12445  0.20079  1.0000
  H   H767      1.0  0.75705  0.31049  0.20088  1.0000
  H   H768      1.0  0.95874  0.01954  0.17854  1.0000
  H   H769      1.0  0.53923  0.10947  0.14852  1.0000
  H   H770      1.0  0.52843  0.13408  0.21776  1.0000
  H   H771      1.0  0.72775  0.02398  0.17422  1.0000
  Fe  Fe102     1.0  0.63076  0.01701  0.13711  1.0000
  C   C493      1.0  0.87464  0.00413  0.03279  1.0000
  H   H772      1.0  0.56427  0.03650  0.14513  1.0000
  C   C494      1.0  0.78760  0.27435  0.23140  1.0000
  H   H773      1.0  0.69265  0.00708  0.17879  1.0000
  H   H774      1.0  0.74338  0.06813  0.20997  1.0000
  C   C495      1.0  0.73151  0.24912  0.23646  1.0000
  C   C496      1.0  0.74301  0.23631  0.22457  1.0000
  C   C497      1.0  0.77079  0.24897  0.22187  1.0000
  C   C498      1.0  0.95520  0.06948  0.18057  1.0000
  S   S204      1.0  0.59691  0.12550  0.25116  1.0000
  H   H775      1.0  0.73049  0.21698  0.21681  1.0000
  H   H776      1.0  0.77931  0.23910  0.21203  1.0000
  H   H777      1.0  0.70624  0.07245  0.15765  1.0000
  H   H778      1.0  0.76378  0.30776  0.17002  1.0000
  H   H779      1.0  0.90719  0.02664  0.00896  1.0000
  H   H780      1.0  0.59256  0.10223  0.19313  1.0000
  H   H781      1.0  0.96486  0.07886  0.14358  1.0000
  C   C499      1.0  0.70690  0.05381  0.15918  1.0000
  C   C500      1.0  0.74832  0.27440  0.24622  1.0000
  H   H782      1.0  0.75451  0.07191  0.17964  1.0000
  S   S205      1.0  0.64160  0.09718  0.24597  1.0000
  H   H783      1.0  0.59884  0.05524  0.15192  1.0000
  S   S206      1.0  0.64942  0.00264  0.11079  1.0000
  C   C501      1.0  0.58076  0.08874  0.14666  1.0000
  H   H784      1.0  0.56627  0.07858  0.13200  1.0000
  C   C502      1.0  0.73863  0.07090  0.19136  1.0000
  H   H785      1.0  0.78861  0.30591  0.25211  1.0000
  C   C503      1.0  0.54861  0.06106  0.17606  1.0000
  H   H786      1.0  0.77894  0.29861  0.19295  1.0000
  C   C504      1.0  0.57876  0.04839  0.15931  1.0000
  H   H787      1.0  0.53356  0.05039  0.16192  1.0000
  H   H788      1.0  0.69169  0.06752  0.19937  1.0000
  H   H789      1.0  0.67176  0.03257  0.19464  1.0000
  H   H790      1.0  0.59251  0.07273  0.20168  1.0000
  C   C505      1.0  0.96607  0.07245  0.20363  1.0000
  H   H791      1.0  0.54594  0.07760  0.18252  1.0000
  N   N48       1.0  0.57571  0.07091  0.16706  1.0000
  H   H792      1.0  0.95160  0.99607  0.15483  1.0000
  C   C506      1.0  0.97267  0.08079  0.16142  1.0000
  C   C507      1.0  0.94248  0.00259  0.16869  1.0000
  H   H793      1.0  0.54415  0.04732  0.19128  1.0000
  H   H794      1.0  0.60093  0.09610  0.13922  1.0000
  C   C508      1.0  0.72055  0.00766  0.12682  1.0000
  H   H795      1.0  0.71480  0.01917  0.20385  1.0000
  H   H796      1.0  0.61548  0.09445  0.17973  1.0000
  C   C509      1.0  0.69186  0.04858  0.19991  1.0000
  C   C510      1.0  0.59488  0.08564  0.18627  1.0000
  C   C511      1.0  0.49340  0.11412  0.19544  1.0000
  C   C512      1.0  0.77612  0.28671  0.24413  1.0000
  Fe  Fe103     1.0  0.63754  0.13319  0.24261  1.0000
  S   S207      1.0  0.82944  0.99374  0.10163  1.0000
  C   C513      1.0  0.88812  0.00894  0.01103  1.0000
  H   H797      1.0  0.90083  0.99702  0.19464  1.0000
  H   H798      1.0  0.49133  0.08999  0.13985  1.0000
  H   H799      1.0  0.50767  0.14282  0.10945  1.0000
  H   H800      1.0  0.73979  0.28460  0.25543  1.0000
  H   H801      1.0  0.92966  0.00811  0.21280  1.0000
  H   H802      1.0  0.49946  0.16733  0.11876  1.0000
  H   H803      1.0  0.48978  0.14367  0.06891  1.0000
  S   S208      1.0  0.58959  0.99220  0.12277  1.0000
  C   C514      1.0  0.49163  0.14572  0.11684  1.0000
  C   C515      1.0  0.91401  0.99063  0.20303  1.0000
  H   H804      1.0  0.69249  0.22307  0.28982  1.0000
  Fe  Fe104     1.0  0.64279  0.11344  0.48799  1.0000
  S   S209      1.0  0.61634  0.12063  0.46358  1.0000
  C   C516      1.0  0.66281  0.23705  0.33516  1.0000
  Fe  Fe105     1.0  0.69178  0.17006  0.47572  1.0000
  S   S210      1.0  0.66803  0.17940  0.45056  1.0000
  S   S211      1.0  0.73439  0.20234  0.48432  1.0000
  Fe  Fe106     1.0  0.63670  0.16198  0.47858  1.0000
  N   N49       1.0  0.60141  0.07346  0.31178  1.0000
  Fe  Fe107     1.0  0.65067  0.13749  0.43785  1.0000
  S   S212      1.0  0.64953  0.12750  0.39848  1.0000
  C   C517      1.0  0.73569  0.24725  0.46557  1.0000
  S   S213      1.0  0.67658  0.12854  0.46149  1.0000
  Fe  Fe108     1.0  0.61845  0.16191  0.27396  1.0000
  S   S214      1.0  0.60671  0.16518  0.31189  1.0000
  C   C518      1.0  0.63990  0.14166  0.37564  1.0000
  C   C519      1.0  0.62071  0.14896  0.37915  1.0000
  C   C520      1.0  0.61108  0.15674  0.35957  1.0000
  C   C521      1.0  0.62059  0.15733  0.33644  1.0000
  C   C522      1.0  0.64054  0.15109  0.33320  1.0000
  C   C523      1.0  0.65009  0.14328  0.35268  1.0000
  H   H805      1.0  0.61262  0.14767  0.39677  1.0000
  H   H806      1.0  0.59571  0.16164  0.36232  1.0000
  H   H807      1.0  0.64828  0.15166  0.31567  1.0000
  H   H808      1.0  0.66525  0.13809  0.34997  1.0000
  C   C524      1.0  0.54402  0.13471  0.48424  1.0000
  C   C525      1.0  0.57147  0.14936  0.48126  1.0000
  H   H809      1.0  0.53208  0.11858  0.47216  1.0000
  H   H810      1.0  0.58070  0.14461  0.46685  1.0000
  C   C526      1.0  0.77176  0.29258  0.47316  1.0000
  C   C527      1.0  0.78554  0.28220  0.48512  1.0000
  C   C528      1.0  0.77418  0.25458  0.48775  1.0000
  C   C529      1.0  0.74896  0.23689  0.47841  1.0000
  H   H811      1.0  0.70670  0.27340  0.49087  1.0000
  C   C530      1.0  0.68338  0.22103  0.30771  1.0000
  H   H812      1.0  0.97372  0.05508  0.46517  1.0000
  C   C531      1.0  0.97259  0.05492  0.48498  1.0000
  H   H813      1.0  0.63771  0.21738  0.29358  1.0000
  H   H814      1.0  0.83083  0.29200  0.40956  1.0000
  H   H815      1.0  0.69809  0.22296  0.32135  1.0000
  H   H816      1.0  0.64503  0.21698  0.33682  1.0000
  H   H817      1.0  0.65904  0.24683  0.50109  1.0000
  H   H818      1.0  0.66623  0.20066  0.30901  1.0000
  H   H819      1.0  0.91592  0.26999  0.50163  1.0000
  H   H820      1.0  0.67679  0.23908  0.34961  1.0000
  H   H821      1.0  0.71352  0.27083  0.32330  1.0000
  S   S215      1.0  0.66094  0.15423  0.50450  1.0000
  C   C532      1.0  0.74700  0.27486  0.46304  1.0000
  H   H822      1.0  0.90398  0.99287  0.32181  1.0000
  C   C533      1.0  0.69837  0.26760  0.30962  1.0000
  H   H823      1.0  0.70792  0.27078  0.29178  1.0000
  C   C534      1.0  0.85272  0.30346  0.40755  1.0000
  H   H824      1.0  0.86041  0.27843  0.37063  1.0000
  H   H825      1.0  0.71652  0.23402  0.45789  1.0000
  H   H826      1.0  0.88670  0.02495  0.49257  1.0000
  H   H827      1.0  0.56693  0.04852  0.29063  1.0000
  H   H828      1.0  0.66402  0.23979  0.27458  1.0000
  H   H829      1.0  0.69286  0.28309  0.31220  1.0000
  H   H830      1.0  0.68397  0.22428  0.49215  1.0000
  H   H831      1.0  0.65633  0.25168  0.33863  1.0000
  H   H832      1.0  0.59886  0.09745  0.33970  1.0000
  H   H833      1.0  0.59164  0.07767  0.27577  1.0000
  C   C535      1.0  0.59706  0.05209  0.32838  1.0000
  H   H834      1.0  0.56823  0.07633  0.32468  1.0000
  H   H835      1.0  0.64886  0.25202  0.29492  1.0000
  H   H836      1.0  0.73617  0.28259  0.45366  1.0000
  H   H837      1.0  0.60563  0.04020  0.32130  1.0000
  H   H838      1.0  0.64063  0.09907  0.32528  1.0000
  H   H839      1.0  0.63418  0.10798  0.29644  1.0000
  H   H840      1.0  0.97484  0.10100  0.49412  1.0000
  C   C536      1.0  0.89523  0.01555  0.50301  1.0000
  C   C537      1.0  0.58860  0.06196  0.28864  1.0000
  H   H841      1.0  0.63918  0.08038  0.29930  1.0000
  H   H842      1.0  0.59326  0.10549  0.31019  1.0000
  N   N50       1.0  0.67504  0.24080  0.31135  1.0000
  C   C538      1.0  0.63010  0.09100  0.30810  1.0000
  H   H843      1.0  0.57561  0.03841  0.33155  1.0000
  H   H844      1.0  0.82962  0.27794  0.36678  1.0000
  H   H845      1.0  0.60959  0.03680  0.47980  1.0000
  S   S216      1.0  0.65853  0.16730  0.26764  1.0000
  H   H846      1.0  0.59706  0.05055  0.28024  1.0000
  C   C539      1.0  0.65558  0.23740  0.29281  1.0000
  C   C540      1.0  0.58993  0.08882  0.32201  1.0000
  C   C541      1.0  0.58997  0.99991  0.49940  1.0000
  H   H847      1.0  0.60647  0.06022  0.34605  1.0000
  H   H848      1.0  0.78473  0.24689  0.49764  1.0000
  H   H849      1.0  0.85712  0.29780  0.34754  1.0000
  H   H850      1.0  0.80447  0.29549  0.49324  1.0000
  C   C542      1.0  0.58691  0.17004  0.49698  1.0000
  C   C543      1.0  0.85151  0.29084  0.36626  1.0000
  N   N51       1.0  0.86059  0.31336  0.38297  1.0000
  C   C544      1.0  0.60301  0.02778  0.49711  1.0000
  H   H851      1.0  0.86071  0.29054  0.41294  1.0000
  C   C545      1.0  0.53210  0.14050  0.50315  1.0000
  H   H852      1.0  0.86047  0.32001  0.42068  1.0000
  S   S217      1.0  0.62134  0.18668  0.49505  1.0000
  H   H853      1.0  0.97185  0.03658  0.49140  1.0000
  H   H854      1.0  0.82656  0.31780  0.37732  1.0000
  H   H855      1.0  0.95344  0.05348  0.48969  1.0000
  H   H856      1.0  0.89952  0.31865  0.38737  1.0000
  S   S218      1.0  0.52221  0.30887  0.55053  1.0000
  C   C546      1.0  0.93045  0.26778  0.55994  1.0000
  Fe  Fe109     1.0  0.94915  0.09809  0.55202  1.0000
  N   N52       1.0  0.53312  0.31354  0.63626  1.0000
  S   S219      1.0  0.92167  0.06363  0.52679  1.0000
  H   H857      1.0  0.53418  0.32050  0.59862  1.0000
  S   S220      1.0  0.50049  0.15623  0.57202  1.0000
  H   H858      1.0  0.91040  0.24211  0.72342  1.0000
  H   H859      1.0  0.91763  0.22598  0.53181  1.0000
  H   H860      1.0  0.91854  0.04787  0.57671  1.0000
  Fe  Fe110     1.0  0.95843  0.11598  0.60448  1.0000
  S   S221      1.0  0.94108  0.10192  0.64114  1.0000
  H   H861      1.0  0.56812  0.06441  0.54336  1.0000
  S   S222      1.0  0.93338  0.11855  0.57547  1.0000
  H   H862      1.0  0.96005  0.31038  0.53336  1.0000
  Fe  Fe111     1.0  0.96945  0.15762  0.56612  1.0000
  C   C547      1.0  0.95716  0.11062  0.68815  1.0000
  C   C548      1.0  0.87908  0.05626  0.58860  1.0000
  H   H863      1.0  0.91151  0.25010  0.56523  1.0000
  H   H864      1.0  0.58897  0.09750  0.51233  1.0000
  H   H865      1.0  0.91393  0.26229  0.69804  1.0000
  H   H866      1.0  0.52115  0.27446  0.64891  1.0000
  H   H867      1.0  0.84545  0.00544  0.57670  1.0000
  C   C549      1.0  0.96056  0.30396  0.71095  1.0000
  H   H868      1.0  0.51194  0.19209  0.69105  1.0000
  H   H869      1.0  0.91103  0.28594  0.52689  1.0000
  H   H870      1.0  0.51930  0.15968  0.73017  1.0000
  H   H871      1.0  0.93650  0.10266  0.69240  1.0000
  H   H872      1.0  0.53672  0.19508  0.72802  1.0000
  C   C550      1.0  0.59930  0.03147  0.53959  1.0000
  N   N53       1.0  0.49432  0.17648  0.72519  1.0000
  S   S223      1.0  0.97206  0.09349  0.58178  1.0000
  H   H873      1.0  0.55460  0.11361  0.57279  1.0000
  H   H874      1.0  0.95278  0.24388  0.53548  1.0000
  C   C551      1.0  0.52442  0.12524  0.69876  1.0000
  C   C552      1.0  0.58609  0.00358  0.54185  1.0000
  H   H875      1.0  0.87457  0.01856  0.55858  1.0000
  N   N54       1.0  0.69104  0.24982  0.52236  1.0000
  C   C553      1.0  0.96010  0.29215  0.52782  1.0000
  H   H876      1.0  0.58685  0.19250  0.52751  1.0000
  C   C554      1.0  0.51064  0.25689  0.55165  1.0000
  H   H877      1.0  0.69963  0.26883  0.55670  1.0000
  H   H878      1.0  0.92973  0.28561  0.56594  1.0000
  C   C555      1.0  0.93598  0.24447  0.52677  1.0000
  H   H879      1.0  0.52746  0.26351  0.53990  1.0000
  C   C556      1.0  0.52897  0.13087  0.67424  1.0000
  C   C557      1.0  0.87049  0.02364  0.61876  1.0000
  H   H880      1.0  0.92125  0.05641  0.60780  1.0000
  H   H881      1.0  0.91230  0.02342  0.59888  1.0000
  S   S224      1.0  0.51488  0.12789  0.62711  1.0000
  H   H882      1.0  0.53994  0.31554  0.67412  1.0000
  C   C558      1.0  0.51841  0.17768  0.73482  1.0000
  C   C559      1.0  0.50638  0.30997  0.63898  1.0000
  H   H883      1.0  0.50156  0.21608  0.55113  1.0000
  H   H884      1.0  0.55302  0.07056  0.56866  1.0000
  H   H885      1.0  0.49630  0.29833  0.65517  1.0000
  S   S225      1.0  0.96356  0.19355  0.56241  1.0000
  H   H886      1.0  0.54902  0.14269  0.66784  1.0000
  H   H887      1.0  0.87201  0.00611  0.62397  1.0000
  H   H888      1.0  0.97717  0.29245  0.53689  1.0000
  H   H889      1.0  0.86869  0.99411  0.58062  1.0000
  H   H890      1.0  0.71751  0.25200  0.54998  1.0000
  H   H891      1.0  0.88138  0.03934  0.63247  1.0000
  H   H892      1.0  0.54092  0.13267  0.71105  1.0000
  C   C560      1.0  0.90963  0.04047  0.59453  1.0000
  H   H893      1.0  0.93752  0.25167  0.70315  1.0000
  N   N55       1.0  0.57388  0.10366  0.54521  1.0000
  H   H894      1.0  0.59573  0.11111  0.57795  1.0000
  C   C561      1.0  0.55763  0.07493  0.54939  1.0000
  H   H895      1.0  0.96993  0.11793  0.72502  1.0000
  H   H896      1.0  0.88716  0.06379  0.57049  1.0000
  H   H897      1.0  0.61199  0.13588  0.55538  1.0000
  C   C562      1.0  0.92403  0.01731  0.53462  1.0000
  C   C563      1.0  0.55944  0.11697  0.55345  1.0000
  H   H898      1.0  0.51931  0.27696  0.61712  1.0000
  C   C564      1.0  0.92508  0.25857  0.71214  1.0000
  C   C565      1.0  0.91320  0.02994  0.52146  1.0000
  H   H899      1.0  0.96499  0.23794  0.58608  1.0000
  H   H900      1.0  0.57989  0.99459  0.55922  1.0000
  C   C566      1.0  0.54749  0.16147  0.51863  1.0000
  C   C567      1.0  0.86686  0.01181  0.57693  1.0000
  H   H901      1.0  0.84929  0.01803  0.61968  1.0000
  H   H902      1.0  0.93804  0.02792  0.54874  1.0000
  H   H903      1.0  0.49337  0.20211  0.75227  1.0000
  C   C568      1.0  0.96495  0.11254  0.66419  1.0000
  C   C569      1.0  0.59910  0.11429  0.55842  1.0000
  C   C570      1.0  0.98200  0.24573  0.57446  1.0000
  H   H904      1.0  0.94656  0.26742  0.57012  1.0000
  C   C571      1.0  0.68923  0.22595  0.51141  1.0000
  H   H905      1.0  0.93581  0.30918  0.74886  1.0000
  C   C572      1.0  0.50365  0.27525  0.56013  1.0000
  C   C573      1.0  0.49864  0.10937  0.70717  1.0000
  H   H906      1.0  0.57130  0.13870  0.55065  1.0000
  H   H907      1.0  0.60311  0.04353  0.55538  1.0000
  N   N56       1.0  0.93486  0.26824  0.53395  1.0000
  C   C574      1.0  0.92405  0.29106  0.73800  1.0000
  H   H908      1.0  0.95038  0.30912  0.69697  1.0000
  C   C575      1.0  0.57944  0.10844  0.51946  1.0000
  N   N57       1.0  0.94136  0.28261  0.72653  1.0000
  S   S226      1.0  0.62505  0.07942  0.51579  1.0000
  C   C576      1.0  0.49596  0.22990  0.55799  1.0000
  H   H909      1.0  0.85811  0.05147  0.58865  1.0000
  C   C577      1.0  0.53103  0.28742  0.63334  1.0000
  H   H910      1.0  0.90938  0.27563  0.75009  1.0000
  H   H911      1.0  0.68307  0.23332  0.55758  1.0000
  H   H912      1.0  0.89011  0.07273  0.60158  1.0000
  H   H913      1.0  0.59312  0.12973  0.51580  1.0000
  S   S227      1.0  0.49190  0.10130  0.73782  1.0000
  C   C578      1.0  0.50784  0.12108  0.65790  1.0000
  H   H914      1.0  0.89361  0.25060  0.52502  1.0000
  H   H915      1.0  0.53854  0.06629  0.53952  1.0000
  N   N58       1.0  0.88146  0.03300  0.59471  1.0000
  H   H916      1.0  0.96889  0.27029  0.73733  1.0000
  C   C579      1.0  0.69811  0.25107  0.54782  1.0000
  H   H917      1.0  0.61045  0.10462  0.55257  1.0000
  C   C580      1.0  0.95571  0.27693  0.74514  1.0000
  H   H918      1.0  0.54047  0.10974  0.54357  1.0000
  C   C581      1.0  0.66524  0.24857  0.52012  1.0000
  H   H919      1.0  0.53830  0.16616  0.53308  1.0000
  C   C582      1.0  0.91290  0.26867  0.52128  1.0000
  H   H920      1.0  0.51174  0.21874  0.72620  1.0000
  S   S228      1.0  0.98305  0.13748  0.53971  1.0000
  H   H921      1.0  0.49364  0.29954  0.62332  1.0000
  H   H922      1.0  0.97396  0.29840  0.70183  1.0000
  H   H923      1.0  0.55085  0.28933  0.63131  1.0000
  C   C583      1.0  0.97606  0.11923  0.70664  1.0000
  C   C584      1.0  0.60804  0.04389  0.51725  1.0000
  H   H924      1.0  0.67374  0.20767  0.52014  1.0000
  H   H925      1.0  0.73125  0.27494  0.51109  1.0000
  H   H926      1.0  0.66587  0.26645  0.52776  1.0000
  C   C585      1.0  0.57491  0.17643  0.51538  1.0000
  H   H927      1.0  0.64931  0.23096  0.52939  1.0000
  H   H928      1.0  0.91311  0.29594  0.72457  1.0000
  H   H929      1.0  0.96394  0.29345  0.50831  1.0000
  H   H930      1.0  0.71381  0.29207  0.51801  1.0000
  H   H931      1.0  0.70825  0.22599  0.51284  1.0000
  H   H932      1.0  0.97528  0.07503  0.52875  1.0000
  C   C586      1.0  0.71157  0.27359  0.51008  1.0000
  S   S229      1.0  0.49812  0.12057  0.50760  1.0000
  H   H933      1.0  0.56104  0.10206  0.50897  1.0000
  H   H934      1.0  0.49502  0.15681  0.69294  1.0000
  C   C587      1.0  0.49383  0.20055  0.73247  1.0000
  C   C588      1.0  0.49439  0.17469  0.69888  1.0000
  H   H935      1.0  0.97315  0.32243  0.72127  1.0000
  H   H936      1.0  0.93867  0.24389  0.50718  1.0000
  Fe  Fe112     1.0  0.48536  0.12219  0.59779  1.0000
  H   H937      1.0  0.51904  0.17926  0.75455  1.0000
  C   C589      1.0  0.91672  0.99075  0.52951  1.0000
  C   C590      1.0  0.49110  0.22826  0.80832  1.0000
  C   C591      1.0  0.56067  0.14164  0.89145  1.0000
  S   S230      1.0  0.92410  0.04728  0.90711  1.0000
  Fe  Fe113     1.0  0.51918  0.12709  0.82286  1.0000
  S   S231      1.0  0.55948  0.16312  0.82434  1.0000
  S   S232      1.0  0.93652  0.10327  0.80969  1.0000
  H   H938      1.0  0.60666  0.12646  0.87222  1.0000
  S   S233      1.0  0.67040  0.99640  0.92594  1.0000
  Fe  Fe114     1.0  0.57018  0.14032  0.79864  1.0000
  S   S234      1.0  0.60745  0.13760  0.80654  1.0000
  Fe  Fe115     1.0  0.54582  0.17735  0.79300  1.0000
  S   S235      1.0  0.55302  0.21924  0.78604  1.0000
  S   S236      1.0  0.53008  0.10396  0.79815  1.0000
  S   S237      1.0  0.50456  0.14276  0.79375  1.0000
  Fe  Fe116     1.0  0.69218  0.02404  0.89598  1.0000
  N   N59       1.0  0.57233  0.12450  0.88839  1.0000
  S   S238      1.0  0.73572  0.03517  0.89180  1.0000
  Fe  Fe117     1.0  0.64700  0.03762  0.88734  1.0000
  S   S239      1.0  0.62352  0.01115  0.91785  1.0000
  S   S240      1.0  0.62227  0.05326  0.86828  1.0000
  Fe  Fe118     1.0  0.66143  0.02746  0.93832  1.0000
  S   S241      1.0  0.67011  0.04131  0.97684  1.0000
  H   H939      1.0  0.78681  0.10669  0.97231  1.0000
  S   S242      1.0  0.68463  0.05638  0.90931  1.0000
  Fe  Fe119     1.0  0.97925  0.13195  0.80178  1.0000
  H   H940      1.0  0.72494  0.04101  0.97116  1.0000
  H   H941      1.0  0.88993  0.06413  0.83373  1.0000
  C   C592      1.0  0.73564  0.09064  0.96388  1.0000
  C   C593      1.0  0.73346  0.04955  0.95345  1.0000
  H   H942      1.0  0.55606  0.14723  0.87391  1.0000
  H   H943      1.0  0.60627  0.03696  0.81188  1.0000
  C   C594      1.0  0.53099  0.23156  0.79115  1.0000
  H   H944      1.0  0.74801  0.11251  0.96508  1.0000
  H   H945      1.0  0.96534  0.09653  0.88977  1.0000
  H   H946      1.0  0.51907  0.30390  0.83931  1.0000
  C   C595      1.0  0.52065  0.26714  0.78591  1.0000
  C   C596      1.0  0.53732  0.25645  0.78199  1.0000
  H   H947      1.0  0.94246  0.05182  0.82737  1.0000
  H   H948      1.0  0.95156  0.23684  0.82018  1.0000
  S   S243      1.0  0.56105  0.15851  0.76677  1.0000
  C   C597      1.0  0.77325  0.08496  0.97091  1.0000
  C   C598      1.0  0.61118  0.11361  0.82323  1.0000
  C   C599      1.0  0.58949  0.09056  0.83203  1.0000
  C   C600      1.0  0.59337  0.07279  0.84614  1.0000
  C   C601      1.0  0.61892  0.07725  0.85116  1.0000
  C   C602      1.0  0.64062  0.10013  0.84213  1.0000
  C   C603      1.0  0.63674  0.11817  0.82838  1.0000
  H   H949      1.0  0.56970  0.08648  0.82798  1.0000
  H   H950      1.0  0.57639  0.05531  0.85312  1.0000
  H   H951      1.0  0.66043  0.10398  0.84571  1.0000
  H   H952      1.0  0.65374  0.13585  0.82166  1.0000
  S   S244      1.0  0.65656  0.00770  0.87126  1.0000
  C   C604      1.0  0.77746  0.02558  0.89440  1.0000
  H   H953      1.0  0.56081  0.08602  0.87415  1.0000
  C   C605      1.0  0.79001  0.01036  0.89207  1.0000
  H   H954      1.0  0.78912  0.04623  0.89924  1.0000
  C   C606      1.0  0.92533  0.06634  0.88271  1.0000
  C   C607      1.0  0.94923  0.08893  0.87718  1.0000
  C   C608      1.0  0.95259  0.10108  0.85501  1.0000
  C   C609      1.0  0.93146  0.09160  0.83898  1.0000
  C   C610      1.0  0.90662  0.07083  0.84570  1.0000
  C   C611      1.0  0.90366  0.05785  0.86741  1.0000
  H   H955      1.0  0.72740  0.08304  0.98192  1.0000
  H   H956      1.0  0.95088  0.02176  0.78729  1.0000
  C   C612      1.0  0.96995  0.24713  0.81042  1.0000
  H   H957      1.0  0.88472  0.04122  0.87220  1.0000
  H   H958      1.0  0.77419  0.11066  0.93081  1.0000
  C   C613      1.0  0.65046  0.01948  0.99972  1.0000
  H   H959      1.0  0.59328  0.14364  0.85630  1.0000
  H   H960      1.0  0.61164  0.15747  0.88330  1.0000
  C   C614      1.0  0.55339  0.10012  0.87557  1.0000
  H   H961      1.0  0.94187  0.26133  0.75763  1.0000
  N   N60       1.0  0.75085  0.07852  0.95472  1.0000
  H   H962      1.0  0.52563  0.28612  0.77851  1.0000
  C   C615      1.0  0.59706  0.13865  0.87451  1.0000
  H   H963      1.0  0.50233  0.19825  0.81134  1.0000
  H   H964      1.0  0.58540  0.31063  0.83449  1.0000
  H   H965      1.0  0.74410  0.03963  0.94641  1.0000
  H   H966      1.0  0.59235  0.13542  0.92224  1.0000
  H   H967      1.0  0.58706  0.10460  0.91029  1.0000
  C   C616      1.0  0.58520  0.02181  0.80844  1.0000
  H   H968      1.0  0.53585  0.29844  0.86348  1.0000
  S   S245      1.0  0.50176  0.10836  0.85812  1.0000
  Fe  Fe120     1.0  0.88919  0.00627  0.90467  1.0000
  H   H969      1.0  0.57825  0.99962  0.85120  1.0000
  C   C617      1.0  0.50757  0.21739  0.80414  1.0000
  H   H970      1.0  0.81105  0.01937  0.89520  1.0000
  H   H971      1.0  0.61712  0.00262  0.79800  1.0000
  C   C618      1.0  0.57815  0.11749  0.91203  1.0000
  C   C619      1.0  0.89593  0.02331  0.80438  1.0000
  C   C620      1.0  0.75016  0.01450  0.89001  1.0000
  H   H972      1.0  0.92337  0.01701  0.76926  1.0000
  H   H973      1.0  0.57290  0.02674  0.82008  1.0000
  S   S246      1.0  0.95976  0.28843  0.80924  1.0000
  H   H974      1.0  0.54165  0.13139  0.90140  1.0000
  H   H975      1.0  0.96900  0.05177  0.87866  1.0000
  H   H976      1.0  0.57426  0.16020  0.90114  1.0000
  H   H977      1.0  0.55984  0.10662  0.92287  1.0000
  H   H978      1.0  0.53390  0.08978  0.88474  1.0000
  H   H979      1.0  0.78509  0.07605  0.96445  1.0000
  H   H980      1.0  0.97864  0.03004  0.89175  1.0000
  H   H981      1.0  0.54965  0.10458  0.85715  1.0000
  C   C621      1.0  0.93291  0.02993  0.82868  1.0000
  H   H982      1.0  0.90421  0.04491  0.80171  1.0000
  C   C622      1.0  0.76100  0.08884  0.93065  1.0000
  H   H983      1.0  0.71654  0.04414  0.94126  1.0000
  C   C623      1.0  0.63030  0.99372  0.99460  1.0000
  H   H984      1.0  0.74456  0.08411  0.91791  1.0000
  H   H985      1.0  0.61006  0.00696  0.84046  1.0000
  C   C624      1.0  0.97885  0.27304  0.80243  1.0000
  H   H986      1.0  0.77233  0.07987  0.92307  1.0000
  H   H987      1.0  0.71843  0.08593  0.95215  1.0000
  S   S247      1.0  0.85136  0.99351  0.92409  1.0000
  H   H988      1.0  0.97162  0.11745  0.85022  1.0000
  H   H989      1.0  0.92034  0.02378  0.84495  1.0000
  Fe  Fe121     1.0  0.51992  0.12347  0.76859  1.0000
  C   C625      1.0  0.49758  0.25327  0.79944  1.0000
  H   H990      1.0  0.58530  0.32230  0.86414  1.0000
  C   C626      1.0  0.58842  0.99361  0.83792  1.0000
  H   H991      1.0  0.58051  0.02395  0.78964  1.0000
  H   H992      1.0  0.88309  0.01303  0.78874  1.0000
  C   C627      1.0  0.93458  0.02629  0.78595  1.0000
  C   C628      1.0  0.53727  0.30337  0.84421  1.0000
  H   H993      1.0  0.88303  0.01751  0.82045  1.0000
  H   H994      1.0  0.94876  0.02501  0.83149  1.0000
  H   H995      1.0  0.55525  0.26752  0.77175  1.0000
  N   N61       1.0  0.58018  0.99487  0.81326  1.0000
  H   H996      1.0  0.53669  0.28668  0.83408  1.0000
  H   H997      1.0  0.88806  0.99477  0.97536  1.0000
  H   H998      1.0  0.76623  0.07737  0.98921  1.0000
  N   N62       1.0  0.91719  0.01682  0.80708  1.0000
  C   C629      1.0  0.87731  0.99088  0.99196  1.0000
  H   H999      1.0  0.94380  0.04814  0.78391  1.0000
  H   H1000     1.0  0.97756  0.21452  0.81263  1.0000
  H   H1001     1.0  0.56274  0.31935  0.80194  1.0000
  H   H1002     1.0  0.96823  0.29478  0.75618  1.0000
  Fe  Fe122     1.0  0.87289  0.38920  0.23946  1.0000
  S   S248      1.0  0.87424  0.36436  0.20964  1.0000
  S   S249      1.0  0.85721  0.41712  0.23609  1.0000
  Fe  Fe123     1.0  0.91519  0.37615  0.22328  1.0000
  S   S250      1.0  0.94763  0.39452  0.19411  1.0000
  C   C630      1.0  0.50030  0.43072  0.19685  1.0000
  H   H1003     1.0  0.92927  0.54334  0.22426  1.0000
  S   S251      1.0  0.84752  0.44653  0.13046  1.0000
  Fe  Fe124     1.0  0.63792  0.46570  0.13577  1.0000
  S   S252      1.0  0.66964  0.45585  0.14736  1.0000
  Fe  Fe125     1.0  0.58204  0.45999  0.14624  1.0000
  S   S253      1.0  0.58873  0.48951  0.11732  1.0000
  S   S254      1.0  0.54825  0.45125  0.17310  1.0000
  Fe  Fe126     1.0  0.60506  0.46893  0.09519  1.0000
  S   S255      1.0  0.59674  0.45957  0.05574  1.0000
  S   S256      1.0  0.59607  0.43750  0.12295  1.0000
  S   S257      1.0  0.62324  0.48500  0.16150  1.0000
  H   H1004     1.0  0.68590  0.54015  0.20496  1.0000
  C   C631      1.0  0.60992  0.48582  0.03507  1.0000
  H   H1005     1.0  0.56325  0.50456  0.20085  1.0000
  C   C632      1.0  0.74924  0.48352  0.14969  1.0000
  C   C633      1.0  0.72149  0.46752  0.15191  1.0000
  C   C634      1.0  0.70426  0.47486  0.14139  1.0000
  H   H1006     1.0  0.76213  0.47796  0.15858  1.0000
  H   H1007     1.0  0.71334  0.44965  0.16240  1.0000
  C   C635      1.0  0.84524  0.49738  0.04031  1.0000
  C   C636      1.0  0.52442  0.61954  0.19710  1.0000
  H   H1008     1.0  0.83680  0.49326  0.05786  1.0000
  H   H1009     1.0  0.82261  0.36777  0.21472  1.0000
  Fe  Fe127     1.0  0.60555  0.64065  0.21871  1.0000
  H   H1010     1.0  0.63000  0.55126  0.02933  1.0000
  C   C637      1.0  0.50146  0.40247  0.16602  1.0000
  C   C638      1.0  0.51445  0.42637  0.17868  1.0000
  H   H1011     1.0  0.95739  0.59793  0.21514  1.0000
  H   H1012     1.0  0.86677  0.43002  0.03044  1.0000
  H   H1013     1.0  0.57270  0.53321  0.21950  1.0000
  H   H1014     1.0  0.51186  0.39862  0.15206  1.0000
  H   H1015     1.0  0.51000  0.44901  0.20688  1.0000
  C   C639      1.0  0.54627  0.53540  0.18116  1.0000
  C   C640      1.0  0.85359  0.42409  0.20655  1.0000
  C   C641      1.0  0.86630  0.41869  0.18813  1.0000
  C   C642      1.0  0.86353  0.42467  0.16455  1.0000
  C   C643      1.0  0.84876  0.43686  0.15954  1.0000
  C   C644      1.0  0.83615  0.44242  0.17794  1.0000
  C   C645      1.0  0.83837  0.43580  0.20145  1.0000
  H   H1016     1.0  0.87896  0.41071  0.19206  1.0000
  H   H1017     1.0  0.87365  0.42077  0.15036  1.0000
  H   H1018     1.0  0.82452  0.45165  0.17403  1.0000
  H   H1019     1.0  0.82849  0.43998  0.21570  1.0000
  Fe  Fe128     1.0  0.87072  0.53174  0.09681  1.0000
  S   S258      1.0  0.86934  0.55870  0.12478  1.0000
  S   S259      1.0  0.88548  0.54417  0.05908  1.0000
  Fe  Fe129     1.0  0.85265  0.48709  0.13130  1.0000
  S   S260      1.0  0.84916  0.50988  0.16215  1.0000
  Fe  Fe130     1.0  0.82988  0.52357  0.13507  1.0000
  S   S261      1.0  0.79479  0.53080  0.13798  1.0000
  Fe  Fe131     1.0  0.88881  0.54301  0.14952  1.0000
  S   S262      1.0  0.92160  0.56832  0.17692  1.0000
  S   S263      1.0  0.83059  0.49798  0.10551  1.0000
  S   S264      1.0  0.89308  0.51892  0.12056  1.0000
  H   H1020     1.0  0.94412  0.53046  0.24420  1.0000
  C   C646      1.0  0.61221  0.48032  0.01113  1.0000
  H   H1021     1.0  0.92132  0.50756  0.18259  1.0000
  H   H1022     1.0  0.91361  0.46052  0.08128  1.0000
  Fe  Fe132     1.0  0.64955  0.63198  0.23788  1.0000
  H   H1023     1.0  0.95672  0.58848  0.10290  1.0000
  S   S265      1.0  0.64704  0.49515  0.10680  1.0000
  Fe  Fe133     1.0  0.63006  0.51281  0.13154  1.0000
  S   S266      1.0  0.65127  0.55706  0.13465  1.0000
  C   C647      1.0  0.61680  0.51161  0.04164  1.0000
  C   C648      1.0  0.62508  0.53147  0.02416  1.0000
  H   H1024     1.0  0.61520  0.51612  0.06009  1.0000
  H   H1025     1.0  0.69502  0.50573  0.18693  1.0000
  C   C649      1.0  0.66276  0.59102  0.20969  1.0000
  C   C650      1.0  0.67004  0.60770  0.18993  1.0000
  C   C651      1.0  0.66706  0.59722  0.16687  1.0000
  C   C652      1.0  0.65651  0.57004  0.16360  1.0000
  C   C653      1.0  0.64975  0.55355  0.18344  1.0000
  C   C654      1.0  0.65308  0.56403  0.20647  1.0000
  H   H1026     1.0  0.67805  0.62869  0.19241  1.0000
  H   H1027     1.0  0.67244  0.61012  0.15158  1.0000
  H   H1028     1.0  0.64163  0.53270  0.18119  1.0000
  H   H1029     1.0  0.64740  0.55113  0.22179  1.0000
  C   C655      1.0  0.76019  0.50736  0.13717  1.0000
  C   C656      1.0  0.71519  0.49796  0.12777  1.0000
  C   C657      1.0  0.74293  0.51433  0.12608  1.0000
  H   H1030     1.0  0.70225  0.50359  0.11910  1.0000
  H   H1031     1.0  0.75109  0.53269  0.11635  1.0000
  C   C658      1.0  0.95607  0.57953  0.18135  1.0000
  H   H1032     1.0  0.80376  0.37994  0.18139  1.0000
  C   C659      1.0  0.52326  0.58888  0.16763  1.0000
  C   C660      1.0  0.53730  0.60792  0.18552  1.0000
  H   H1033     1.0  0.88302  0.43721  0.09537  1.0000
  H   H1034     1.0  0.85116  0.46313  0.07894  1.0000
  C   C661      1.0  0.90509  0.50079  0.19588  1.0000
  N   N63       1.0  0.95012  0.61950  0.11554  1.0000
  N   N64       1.0  0.91482  0.50173  0.22040  1.0000
  H   H1035     1.0  0.81343  0.33413  0.21957  1.0000
  H   H1036     1.0  0.91283  0.48438  0.04505  1.0000
  C   C662      1.0  0.86832  0.52132  0.03575  1.0000
  C   C663      1.0  0.57678  0.52635  0.20233  1.0000
  N   N65       1.0  0.71806  0.54789  0.18164  1.0000
  C   C664      1.0  0.71597  0.52217  0.18701  1.0000
  C   C665      1.0  0.70332  0.54568  0.15951  1.0000
  C   C666      1.0  0.74618  0.56815  0.17846  1.0000
  C   C667      1.0  0.70680  0.55559  0.20161  1.0000
  H   H1037     1.0  0.89277  0.49516  0.06011  1.0000
  H   H1038     1.0  0.80937  0.33732  0.15412  1.0000
  H   H1039     1.0  0.72468  0.52238  0.20470  1.0000
  H   H1040     1.0  0.70362  0.56444  0.15541  1.0000
  H   H1041     1.0  0.71187  0.54094  0.14389  1.0000
  H   H1042     1.0  0.68220  0.52990  0.16080  1.0000
  H   H1043     1.0  0.75796  0.57027  0.19475  1.0000
  H   H1044     1.0  0.74845  0.58781  0.17442  1.0000
  H   H1045     1.0  0.75523  0.56287  0.16345  1.0000
  H   H1046     1.0  0.77126  0.35827  0.19283  1.0000
  H   H1047     1.0  0.97566  0.63322  0.08499  1.0000
  S   S267      1.0  0.66422  0.60323  0.23837  1.0000
  C   C668      1.0  0.97128  0.57511  0.16465  1.0000
  C   C669      1.0  0.50016  0.64427  0.08458  1.0000
  H   H1048     1.0  0.93368  0.57932  0.12701  1.0000
  H   H1049     1.0  0.48733  0.34844  0.24182  1.0000
  C   C670      1.0  0.80589  0.34717  0.21342  1.0000
  H   H1050     1.0  0.70105  0.53518  0.00598  1.0000
  S   S268      1.0  0.64694  0.65304  0.20554  1.0000
  H   H1051     1.0  0.95317  0.53531  0.21323  1.0000
  S   S269      1.0  0.60816  0.61806  0.25013  1.0000
  S   S270      1.0  0.89812  0.34038  0.24763  1.0000
  C   C671      1.0  0.87753  0.43217  0.04748  1.0000
  C   C672      1.0  0.92490  0.48314  0.22243  1.0000
  C   C673      1.0  0.85125  0.44704  0.06833  1.0000
  H   H1052     1.0  0.94272  0.62700  0.07967  1.0000
  H   H1053     1.0  0.89774  0.43628  0.04278  1.0000
  H   H1054     1.0  0.53295  0.57992  0.15827  1.0000
  H   H1055     1.0  0.93233  0.48327  0.24074  1.0000
  H   H1056     1.0  0.86720  0.41277  0.05674  1.0000
  C   C674      1.0  0.98201  0.40527  0.18996  1.0000
  C   C675      1.0  0.96874  0.59415  0.20208  1.0000
  H   H1057     1.0  0.96205  0.56383  0.14867  1.0000
  C   C676      1.0  0.89295  0.49419  0.23749  1.0000
  C   C677      1.0  0.78699  0.35918  0.18101  1.0000
  C   C678      1.0  0.49692  0.58150  0.16149  1.0000
  H   H1058     1.0  0.71798  0.55844  0.21846  1.0000
  H   H1059     1.0  0.89635  0.54495  0.00865  1.0000
  C   C679      1.0  0.89211  0.47872  0.04946  1.0000
  H   H1060     1.0  0.59004  0.58036  0.16936  1.0000
  H   H1061     1.0  0.92403  0.58290  0.09749  1.0000
  H   H1062     1.0  0.77909  0.35486  0.16247  1.0000
  C   C680      1.0  0.93630  0.52887  0.22580  1.0000
  C   C681      1.0  0.49825  0.61254  0.19065  1.0000
  H   H1063     1.0  0.88963  0.48042  0.19079  1.0000
  H   H1064     1.0  0.84076  0.42870  0.07914  1.0000
  H   H1065     1.0  0.59724  0.52975  0.20336  1.0000
  H   H1066     1.0  0.94131  0.48808  0.20969  1.0000
  H   H1067     1.0  0.49350  0.38074  0.25045  1.0000
  H   H1068     1.0  0.87637  0.47385  0.23393  1.0000
  H   H1069     1.0  0.70709  0.57443  0.19783  1.0000
  H   H1070     1.0  0.57769  0.54095  0.14361  1.0000
  C   C682      1.0  0.92829  0.62215  0.12588  1.0000
  H   H1071     1.0  0.61306  0.57367  0.18432  1.0000
  H   H1072     1.0  0.56530  0.50891  0.15702  1.0000
  C   C683      1.0  0.83315  0.47837  0.02220  1.0000
  C   C684      1.0  0.59221  0.56906  0.18426  1.0000
  H   H1073     1.0  0.82359  0.32878  0.17851  1.0000
  N   N66       1.0  0.79551  0.34049  0.18882  1.0000
  C   C685      1.0  0.57922  0.53049  0.15952  1.0000
  H   H1074     1.0  0.89394  0.47170  0.09656  1.0000
  H   H1075     1.0  0.81558  0.45975  0.02614  1.0000
  H   H1076     1.0  0.53474  0.63421  0.21086  1.0000
  H   H1077     1.0  0.59953  0.53342  0.15959  1.0000
  H   H1078     1.0  0.53170  0.51386  0.17996  1.0000
  H   H1079     1.0  0.58897  0.57710  0.20116  1.0000
  H   H1080     1.0  0.54315  0.54509  0.16546  1.0000
  S   S271      1.0  0.57073  0.61637  0.19224  1.0000
  H   H1081     1.0  0.83935  0.44400  0.05195  1.0000
  H   H1082     1.0  0.54176  0.54348  0.19737  1.0000
  N   N67       1.0  0.57365  0.54035  0.18182  1.0000
  C   C686      1.0  0.87858  0.52645  0.01249  1.0000
  H   H1083     1.0  0.83394  0.36281  0.17287  1.0000
  C   C687      1.0  0.89299  0.45582  0.08485  1.0000
  C   C688      1.0  0.94074  0.59133  0.11050  1.0000
  C   C689      1.0  0.95901  0.63461  0.09309  1.0000
  N   N68       1.0  0.87849  0.45344  0.06253  1.0000
  H   H1084     1.0  0.89627  0.51371  0.19404  1.0000
  H   H1085     1.0  0.79050  0.34520  0.22625  1.0000
  H   H1086     1.0  0.72673  0.51708  0.17367  1.0000
  H   H1087     1.0  0.93474  0.64308  0.13031  1.0000
  H   H1088     1.0  0.50277  0.61581  0.12101  1.0000
  C   C690      1.0  0.81651  0.34245  0.17282  1.0000
  H   H1089     1.0  0.96588  0.61978  0.15024  1.0000
  H   H1090     1.0  0.92082  0.61054  0.14266  1.0000
  H   H1091     1.0  0.90907  0.46244  0.21864  1.0000
  H   H1092     1.0  0.88188  0.47753  0.03235  1.0000
  H   H1093     1.0  0.50951  0.63816  0.07054  1.0000
  H   H1094     1.0  0.98070  0.65134  0.13612  1.0000
  H   H1095     1.0  0.91128  0.61487  0.11330  1.0000
  H   H1096     1.0  0.88481  0.50776  0.23646  1.0000
  S   S272      1.0  0.91417  0.40296  0.25173  1.0000
  Fe  Fe134     1.0  0.85703  0.33120  0.23622  1.0000
  H   H1097     1.0  0.55548  0.45947  0.00858  1.0000
  H   H1098     1.0  0.96589  0.65592  0.09610  1.0000
  C   C691      1.0  0.97235  0.62985  0.13271  1.0000
  H   H1099     1.0  0.48662  0.56674  0.14782  1.0000
  H   H1100     1.0  0.48880  0.62201  0.19965  1.0000
  H   H1101     1.0  0.49640  0.59730  0.09364  1.0000
  C   C692      1.0  0.48755  0.60461  0.10709  1.0000
  H   H1102     1.0  0.60754  0.46059  0.00604  1.0000
  H   H1103     1.0  0.98446  0.42627  0.15769  1.0000
  Fe  Fe135     1.0  0.88062  0.37186  0.45870  1.0000
  H   H1104     1.0  0.89641  0.33715  0.36333  1.0000
  H   H1105     1.0  0.94696  0.45144  0.49847  1.0000
  Fe  Fe136     1.0  0.85916  0.40002  0.42980  1.0000
  S   S273      1.0  0.83671  0.40354  0.46107  1.0000
  S   S274      1.0  0.85728  0.41146  0.39167  1.0000
  Fe  Fe137     1.0  0.87418  0.41579  0.48236  1.0000
  H   H1106     1.0  0.89353  0.53018  0.49971  1.0000
  Fe  Fe138     1.0  0.82512  0.36091  0.46863  1.0000
  S   S275      1.0  0.89694  0.41465  0.45029  1.0000
  S   S276      1.0  0.84479  0.35726  0.43589  1.0000
  Fe  Fe139     1.0  0.89469  0.36703  0.27512  1.0000
  S   S277      1.0  0.90686  0.36962  0.31397  1.0000
  C   C693      1.0  0.63354  0.64424  0.37450  1.0000
  C   C694      1.0  0.87249  0.40168  0.36982  1.0000
  C   C695      1.0  0.86343  0.39783  0.34616  1.0000
  C   C696      1.0  0.87436  0.38879  0.32869  1.0000
  C   C697      1.0  0.89472  0.38387  0.33469  1.0000
  C   C698      1.0  0.90459  0.38889  0.35812  1.0000
  C   C699      1.0  0.89334  0.39745  0.37570  1.0000
  H   H1107     1.0  0.84751  0.40134  0.34143  1.0000
  H   H1108     1.0  0.86676  0.38533  0.31068  1.0000
  H   H1109     1.0  0.90080  0.40081  0.39379  1.0000
  H   H1110     1.0  0.74279  0.65354  0.41918  1.0000
  S   S278      1.0  0.85312  0.35556  0.26509  1.0000
  H   H1111     1.0  0.87463  0.33188  0.49593  1.0000
  H   H1112     1.0  0.95286  0.35614  0.47077  1.0000
  H   H1113     1.0  0.70831  0.64251  0.41574  1.0000
  Fe  Fe140     1.0  0.63854  0.59815  0.48193  1.0000
  S   S279      1.0  0.61262  0.59897  0.45257  1.0000
  C   C700      1.0  0.93857  0.34944  0.48510  1.0000
  C   C701      1.0  0.54738  0.58053  0.49001  1.0000
  Fe  Fe141     1.0  0.62318  0.63865  0.46760  1.0000
  C   C702      1.0  0.62983  0.65061  0.33187  1.0000
  Fe  Fe142     1.0  0.64996  0.62209  0.43123  1.0000
  S   S280      1.0  0.65760  0.61730  0.39242  1.0000
  C   C703      1.0  0.89458  0.33606  0.49931  1.0000
  S   S281      1.0  0.67564  0.61850  0.45936  1.0000
  S   S282      1.0  0.64779  0.63763  0.49768  1.0000
  C   C704      1.0  0.58122  0.48477  0.49658  1.0000
  C   C705      1.0  0.64670  0.63034  0.36946  1.0000
  C   C706      1.0  0.65161  0.62688  0.34558  1.0000
  C   C707      1.0  0.64319  0.63691  0.32686  1.0000
  C   C708      1.0  0.91304  0.34474  0.48082  1.0000
  H   H1114     1.0  0.92086  0.38590  0.36276  1.0000
  H   H1115     1.0  0.62949  0.64694  0.39279  1.0000
  H   H1116     1.0  0.66167  0.61607  0.34148  1.0000
  H   H1117     1.0  0.64680  0.63377  0.30855  1.0000
  S   S283      1.0  0.59307  0.65141  0.47125  1.0000
  C   C709      1.0  0.58102  0.65073  0.49998  1.0000
  H   H1118     1.0  0.85527  0.34682  0.38811  1.0000
  C   C710      1.0  0.89563  0.49454  0.50373  1.0000
  H   H1119     1.0  0.53198  0.57109  0.47591  1.0000
  S   S284      1.0  0.90563  0.35315  0.45323  1.0000
  S   S285      1.0  0.86058  0.37319  0.49237  1.0000
  C   C711      1.0  0.84850  0.32936  0.37621  1.0000
  H   H1120     1.0  0.60074  0.52064  0.47556  1.0000
  H   H1121     1.0  0.56655  0.59325  0.48088  1.0000
  C   C712      1.0  0.62517  0.65435  0.35577  1.0000
  H   H1122     1.0  0.57444  0.55456  0.48222  1.0000
  H   H1123     1.0  0.53982  0.53341  0.47615  1.0000
  H   H1124     1.0  0.57504  0.47190  0.48113  1.0000
  H   H1125     1.0  0.89715  0.34741  0.39380  1.0000
  H   H1126     1.0  0.97178  0.40431  0.50173  1.0000
  H   H1127     1.0  0.89951  0.49446  0.25618  1.0000
  H   H1128     1.0  0.92397  0.39255  0.49923  1.0000
  H   H1129     1.0  0.85387  0.33698  0.35768  1.0000
  H   H1130     1.0  0.88075  0.48369  0.49027  1.0000
  C   C713      1.0  0.96054  0.44326  0.49875  1.0000
  H   H1131     1.0  0.54275  0.59388  0.50053  1.0000
  S   S286      1.0  0.78250  0.32703  0.47389  1.0000
  H   H1132     1.0  0.50665  0.53394  0.50412  1.0000
  C   C714      1.0  0.88970  0.32984  0.38179  1.0000
  H   H1133     1.0  0.98114  0.46017  0.49971  1.0000
  H   H1134     1.0  0.55490  0.52759  0.50161  1.0000
  C   C715      1.0  0.59585  0.51254  0.49334  1.0000
  H   H1135     1.0  0.95810  0.43301  0.48135  1.0000
  C   C716      1.0  0.55460  0.54328  0.49065  1.0000
  N   N69       1.0  0.54861  0.56066  0.50535  1.0000
  Fe  Fe143     1.0  0.62681  0.65632  0.27058  1.0000
  C   C717      1.0  0.92639  0.49670  0.53355  1.0000
  C   C718      1.0  0.97312  0.41472  0.51877  1.0000
  Fe  Fe144     1.0  0.53739  0.40530  0.55109  1.0000
  S   S287      1.0  0.51321  0.40657  0.58194  1.0000
  C   C719      1.0  0.98176  0.36890  0.65697  1.0000
  Fe  Fe145     1.0  0.52819  0.38348  0.60223  1.0000
  S   S288      1.0  0.54288  0.38988  0.64040  1.0000
  H   H1136     1.0  0.49747  0.57940  0.65723  1.0000
  H   H1137     1.0  0.88852  0.52238  0.56628  1.0000
  S   S289      1.0  0.55474  0.38466  0.57244  1.0000
  S   S290      1.0  0.50470  0.36574  0.53732  1.0000
  S   S291      1.0  0.94617  0.35589  0.72184  1.0000
  H   H1138     1.0  0.86256  0.50368  0.58711  1.0000
  Fe  Fe146     1.0  0.51964  0.34543  0.56148  1.0000
  H   H1139     1.0  0.90325  0.53605  0.64112  1.0000
  C   C720      1.0  0.58317  0.49056  0.53925  1.0000
  C   C721      1.0  0.49881  0.65556  0.66152  1.0000
  H   H1140     1.0  0.56519  0.58661  0.53562  1.0000
  H   H1141     1.0  0.96878  0.40037  0.53349  1.0000
  C   C722      1.0  0.89221  0.52121  0.62681  1.0000
  C   C723      1.0  0.48823  0.63471  0.70771  1.0000
  H   H1142     1.0  0.97557  0.36448  0.63854  1.0000
  C   C724      1.0  0.51966  0.37748  0.66388  1.0000
  C   C725      1.0  0.52857  0.37833  0.68729  1.0000
  C   C726      1.0  0.51053  0.36811  0.70631  1.0000
  H   H1143     1.0  0.58906  0.58743  0.51500  1.0000
  H   H1144     1.0  0.50724  0.32934  0.64073  1.0000
  H   H1145     1.0  0.57085  0.61621  0.64990  1.0000
  H   H1146     1.0  0.54952  0.38706  0.69077  1.0000
  H   H1147     1.0  0.51765  0.36906  0.72430  1.0000
  C   C727      1.0  0.57482  0.47344  0.51953  1.0000
  H   H1148     1.0  0.60524  0.63773  0.51738  1.0000
  Fe  Fe147     1.0  0.95850  0.60305  0.55791  1.0000
  H   H1149     1.0  0.52955  0.64228  0.62443  1.0000
  S   S292      1.0  0.92933  0.56864  0.53364  1.0000
  H   H1150     1.0  0.54886  0.60345  0.60997  1.0000
  C   C728      1.0  0.92221  0.53570  0.52664  1.0000
  C   C729      1.0  0.90713  0.48203  0.51602  1.0000
  C   C730      1.0  0.94615  0.34712  0.50822  1.0000
  N   N70       1.0  0.89901  0.53353  0.60298  1.0000
  H   H1151     1.0  0.96145  0.59538  0.69816  1.0000
  S   S293      1.0  0.94288  0.61906  0.58642  1.0000
  H   H1152     1.0  0.88979  0.49772  0.58414  1.0000
  H   H1153     1.0  0.96607  0.35166  0.51140  1.0000
  H   H1154     1.0  0.93374  0.52998  0.59940  1.0000
  C   C731      1.0  0.96275  0.36106  0.67524  1.0000
  H   H1155     1.0  0.90322  0.57036  0.61516  1.0000
  H   H1156     1.0  0.51608  0.59782  0.60654  1.0000
  H   H1157     1.0  0.94194  0.35055  0.67073  1.0000
  C   C732      1.0  0.89202  0.55452  0.60168  1.0000
  H   H1158     1.0  0.87073  0.51235  0.63056  1.0000
  C   C733      1.0  0.56958  0.57424  0.52348  1.0000
  C   C734      1.0  0.92769  0.54521  0.59902  1.0000
  H   H1159     1.0  0.89726  0.50529  0.62837  1.0000
  H   H1160     1.0  0.94908  0.53421  0.55196  1.0000
  C   C735      1.0  0.52962  0.59596  0.61932  1.0000
  H   H1161     1.0  0.87057  0.54657  0.60488  1.0000
  N   N71       1.0  0.95460  0.42498  0.51897  1.0000
  H   H1162     1.0  0.57863  0.48240  0.55703  1.0000
  H   H1163     1.0  0.88791  0.32719  0.53679  1.0000
  C   C736      1.0  0.93408  0.52334  0.53865  1.0000
  S   S294      1.0  0.55660  0.43800  0.52228  1.0000
  N   N72       1.0  0.53268  0.61106  0.64144  1.0000
  H   H1164     1.0  0.51765  0.55716  0.52841  1.0000
  H   H1165     1.0  0.93354  0.55516  0.58144  1.0000
  H   H1166     1.0  0.89666  0.56399  0.58375  1.0000
  C   C737      1.0  0.90207  0.33332  0.52238  1.0000
  C   C738      1.0  0.95734  0.43909  0.54165  1.0000
  C   C739      1.0  0.88429  0.51340  0.58439  1.0000
  C   C740      1.0  0.59792  0.51833  0.53602  1.0000
  H   H1167     1.0  0.93547  0.48738  0.54324  1.0000
  H   H1168     1.0  0.49248  0.60312  0.64133  1.0000
  S   S295      1.0  0.96319  0.60330  0.64746  1.0000
  H   H1169     1.0  0.93942  0.56030  0.61289  1.0000
  C   C741      1.0  0.50661  0.60076  0.65298  1.0000
  C   C742      1.0  0.55090  0.60836  0.65794  1.0000
  H   H1170     1.0  0.55343  0.61947  0.67488  1.0000
  C   C743      1.0  0.98179  0.60897  0.69342  1.0000
  Fe  Fe148     1.0  0.50502  0.64047  0.57174  1.0000
  H   H1171     1.0  0.60452  0.53114  0.55151  1.0000
  S   S296      1.0  0.49459  0.34358  0.59228  1.0000
  H   H1172     1.0  0.50830  0.61133  0.67002  1.0000
  C   C744      1.0  0.92814  0.33973  0.52701  1.0000
  C   C745      1.0  0.92721  0.40277  0.51669  1.0000
  C   C746      1.0  0.55959  0.64788  0.54533  1.0000
  Fe  Fe149     1.0  0.97415  0.61958  0.61009  1.0000
  Fe  Fe150     1.0  0.98156  0.35885  0.56312  1.0000
  H   H1173     1.0  0.57215  0.55987  0.53452  1.0000
  H   H1174     1.0  0.54336  0.58734  0.66273  1.0000
  C   C747      1.0  0.51376  0.65475  0.70192  1.0000
  H   H1175     1.0  0.56600  0.33252  0.61206  1.0000
  S   S297      1.0  0.93779  0.33877  0.55639  1.0000
  S   S298      1.0  0.89774  0.44808  0.51102  1.0000
  C   C748      1.0  0.60456  0.52961  0.51308  1.0000
  H   H1176     1.0  0.55097  0.34687  0.66013  1.0000
  C   C749      1.0  0.54360  0.63925  0.63554  1.0000
  H   H1177     1.0  0.95281  0.42570  0.55719  1.0000
  H   H1178     1.0  0.52140  0.57459  0.62299  1.0000
  H   H1179     1.0  0.92229  0.38795  0.53104  1.0000
  C   C750      1.0  0.97053  0.36684  0.69924  1.0000
  C   C751      1.0  0.54596  0.32978  0.61499  1.0000
  H   H1180     1.0  0.52323  0.52957  0.52921  1.0000
  H   H1181     1.0  0.94348  0.44696  0.54228  1.0000
  H   H1182     1.0  0.91263  0.40964  0.51786  1.0000
  H   H1183     1.0  0.54826  0.34978  0.61666  1.0000
  C   C752      1.0  0.49254  0.36624  0.65958  1.0000
  C   C753      1.0  0.52288  0.54460  0.51732  1.0000
  S   S299      1.0  0.62323  0.56503  0.51034  1.0000
  C   C754      1.0  0.90297  0.52102  0.50915  1.0000
  C   C755      1.0  0.59034  0.64315  0.51963  1.0000
  S   S300      1.0  0.54532  0.64439  0.57347  1.0000
  H   H1184     1.0  0.58685  0.63579  0.55747  1.0000
  H   H1185     1.0  0.97778  0.45600  0.54404  1.0000
  C   C756      1.0  0.57979  0.64193  0.54233  1.0000
  H   H1186     1.0  0.48546  0.36554  0.64162  1.0000
  C   C757      1.0  0.54909  0.32706  0.65764  1.0000
  H   H1187     1.0  0.56946  0.33023  0.65621  1.0000
  H   H1188     1.0  0.56232  0.64719  0.62524  1.0000
  H   H1189     1.0  0.54801  0.65156  0.65187  1.0000
  C   C758      1.0  0.55065  0.65596  0.52578  1.0000
  Fe  Fe151     1.0  0.84475  0.45563  0.88716  1.0000
  S   S301      1.0  0.87255  0.48052  0.91648  1.0000
  S   S302      1.0  0.85132  0.42932  0.86028  1.0000
  Fe  Fe152     1.0  0.80536  0.47646  0.89846  1.0000
  S   S303      1.0  0.76297  0.46897  0.89381  1.0000
  Fe  Fe153     1.0  0.83637  0.46920  0.93866  1.0000
  S   S304      1.0  0.82894  0.45775  0.97760  1.0000
  S   S305      1.0  0.83901  0.48843  0.87235  1.0000
  S   S306      1.0  0.80871  0.44144  0.91063  1.0000
  S   S307      1.0  0.57484  0.45324  0.90602  1.0000
  H   H1190     1.0  0.51115  0.41070  0.96288  1.0000
  Fe  Fe154     1.0  0.51810  0.36561  0.79993  1.0000
  S   S308      1.0  0.97637  0.39888  0.78197  1.0000
  S   S309      1.0  0.56060  0.39490  0.80784  1.0000
  Fe  Fe155     1.0  0.95086  0.37347  0.81218  1.0000
  S   S310      1.0  0.93622  0.39147  0.84120  1.0000
  Fe  Fe156     1.0  0.95952  0.36130  0.76047  1.0000
  C   C759      1.0  0.52868  0.42867  0.95577  1.0000
  C   C760      1.0  0.57144  0.43619  0.87938  1.0000
  C   C761      1.0  0.54637  0.41612  0.87233  1.0000
  C   C762      1.0  0.54295  0.40352  0.85027  1.0000
  C   C763      1.0  0.56470  0.41050  0.83548  1.0000
  C   C764      1.0  0.58986  0.43038  0.84266  1.0000
  C   C765      1.0  0.59320  0.44341  0.86453  1.0000
  H   H1191     1.0  0.52943  0.41077  0.88364  1.0000
  H   H1192     1.0  0.52337  0.38878  0.84462  1.0000
  H   H1193     1.0  0.60673  0.43588  0.83121  1.0000
  H   H1194     1.0  0.61266  0.45883  0.87000  1.0000
  C   C766      1.0  0.74929  0.49029  0.89522  1.0000
  C   C767      1.0  0.70975  0.49502  0.89525  1.0000
  C   C768      1.0  0.72164  0.47914  0.89375  1.0000
  H   H1195     1.0  0.68851  0.48608  0.89381  1.0000
  H   H1196     1.0  0.70930  0.45803  0.89124  1.0000
  C   C769      1.0  0.87477  0.41837  0.85587  1.0000
  C   C770      1.0  0.87317  0.40420  0.83490  1.0000
  C   C771      1.0  0.89182  0.39611  0.82993  1.0000
  C   C772      1.0  0.91224  0.40164  0.84609  1.0000
  C   C773      1.0  0.91375  0.41567  0.86714  1.0000
  C   C774      1.0  0.89533  0.42412  0.87194  1.0000
  H   H1197     1.0  0.85734  0.39942  0.82233  1.0000
  H   H1198     1.0  0.89012  0.38522  0.81376  1.0000
  H   H1199     1.0  0.92933  0.42003  0.87987  1.0000
  H   H1200     1.0  0.89697  0.43493  0.88815  1.0000
  S   S311      1.0  0.50831  0.33503  0.77133  1.0000
  S   S312      1.0  0.83136  0.50311  0.92765  1.0000
  Fe  Fe157     1.0  0.86496  0.51222  0.90299  1.0000
  S   S313      1.0  0.89975  0.55327  0.90109  1.0000
  H   H1201     1.0  0.52322  0.58549  0.84120  1.0000
  S   S314      1.0  0.95050  0.57997  0.79886  1.0000
  H   H1202     1.0  0.51188  0.46347  0.96218  1.0000
  H   H1203     1.0  0.95075  0.49198  0.83345  1.0000
  H   H1204     1.0  0.55685  0.48038  0.94589  1.0000
  S   S315      1.0  0.51571  0.62370  0.78430  1.0000
  N   N73       1.0  0.56356  0.49025  0.82768  1.0000
  Fe  Fe158     1.0  0.66844  0.53411  0.90081  1.0000
  S   S316      1.0  0.64344  0.50778  0.93030  1.0000
  S   S317      1.0  0.71164  0.54367  0.89942  1.0000
  Fe  Fe159     1.0  0.62573  0.54950  0.88648  1.0000
  S   S318      1.0  0.59890  0.52485  0.91614  1.0000
  S   S319      1.0  0.61023  0.56519  0.85628  1.0000
  Fe  Fe160     1.0  0.63507  0.54011  0.93920  1.0000
  S   S320      1.0  0.63646  0.55080  0.97830  1.0000
  Fe  Fe161     1.0  0.60942  0.49449  0.90517  1.0000
  S   S321      1.0  0.66167  0.56789  0.91068  1.0000
  S   S322      1.0  0.63466  0.51773  0.87426  1.0000
  C   C775      1.0  0.86625  0.50750  0.99419  1.0000
  H   H1205     1.0  0.57938  0.35414  0.80867  1.0000
  H   H1206     1.0  0.62182  0.49535  0.97546  1.0000
  C   C776      1.0  0.57645  0.62164  0.84566  1.0000
  C   C777      1.0  0.57683  0.60588  0.82696  1.0000
  C   C778      1.0  0.58736  0.58900  0.83056  1.0000
  C   C779      1.0  0.59737  0.58720  0.85295  1.0000
  C   C780      1.0  0.59681  0.60281  0.87169  1.0000
  C   C781      1.0  0.54638  0.46331  0.81811  1.0000
  H   H1207     1.0  0.56925  0.60690  0.80964  1.0000
  H   H1208     1.0  0.58800  0.57747  0.81574  1.0000
  H   H1209     1.0  0.60458  0.60197  0.88897  1.0000
  H   H1210     1.0  0.73578  0.42990  0.99359  1.0000
  C   C782      1.0  0.76491  0.51765  0.89850  1.0000
  C   C783      1.0  0.75304  0.53356  0.89978  1.0000
  C   C784      1.0  0.72541  0.52243  0.89802  1.0000
  H   H1211     1.0  0.78618  0.52661  0.89967  1.0000
  H   H1212     1.0  0.76543  0.55473  0.90181  1.0000
  C   C785      1.0  0.91362  0.55957  0.87267  1.0000
  C   C786      1.0  0.89754  0.55314  0.85243  1.0000
  C   C787      1.0  0.90900  0.55929  0.82972  1.0000
  C   C788      1.0  0.93646  0.57155  0.82727  1.0000
  C   C789      1.0  0.95242  0.57724  0.84747  1.0000
  C   C790      1.0  0.94105  0.57165  0.87020  1.0000
  H   H1213     1.0  0.87634  0.54404  0.85434  1.0000
  H   H1214     1.0  0.89658  0.55481  0.81408  1.0000
  H   H1215     1.0  0.67604  0.52780  0.98385  1.0000
  H   H1216     1.0  0.95344  0.57626  0.88587  1.0000
  N   N74       1.0  0.71403  0.56116  0.97563  1.0000
  H   H1217     1.0  0.87455  0.51146  0.97641  1.0000
  H   H1218     1.0  0.57804  0.46959  0.95807  1.0000
  Fe  Fe162     1.0  0.53973  0.65193  0.81375  1.0000
  H   H1219     1.0  0.97349  0.58563  0.84565  1.0000
  H   H1220     1.0  0.51158  0.59344  0.90577  1.0000
  H   H1221     1.0  0.77205  0.49365  0.94416  1.0000
  N   N75       1.0  0.91545  0.48942  0.81903  1.0000
  C   C791      1.0  0.89121  0.46993  0.80636  1.0000
  C   C792      1.0  0.58500  0.32670  0.84489  1.0000
  C   C793      1.0  0.93242  0.47786  0.82370  1.0000
  C   C794      1.0  0.90819  0.49676  0.84191  1.0000
  N   N76       1.0  0.95856  0.65282  0.85054  1.0000
  H   H1222     1.0  0.97316  0.65438  0.88608  1.0000
  C   C795      1.0  0.56198  0.33463  0.81322  1.0000
  C   C796      1.0  0.70309  0.57302  0.95930  1.0000
  C   C797      1.0  0.56217  0.47406  0.96268  1.0000
  N   N77       1.0  0.53902  0.45079  0.97308  1.0000
  S   S323      1.0  0.48856  0.37709  0.78816  1.0000
  H   H1223     1.0  0.57235  0.51034  0.86154  1.0000
  C   C798      1.0  0.78032  0.47612  0.98581  1.0000
  H   H1224     1.0  0.97426  0.63038  0.86686  1.0000
  C   C799      1.0  0.51831  0.45747  0.97853  1.0000
  H   H1225     1.0  0.92727  0.61280  0.85579  1.0000
  H   H1226     1.0  0.50690  0.61382  0.85725  1.0000
  H   H1227     1.0  0.69661  0.58543  0.96904  1.0000
  H   H1228     1.0  0.73755  0.55722  0.94814  1.0000
  C   C800      1.0  0.48966  0.59531  0.86398  1.0000
  H   H1229     1.0  0.75276  0.59564  0.97574  1.0000
  H   H1230     1.0  0.56913  0.52917  0.82338  1.0000
  H   H1231     1.0  0.74715  0.43403  0.94003  1.0000
  C   C801      1.0  0.93093  0.63339  0.85681  1.0000
  H   H1232     1.0  0.92581  0.51257  0.85138  1.0000
  H   H1233     1.0  0.54415  0.35221  0.84883  1.0000
  C   C802      1.0  0.76353  0.44517  0.95301  1.0000
  H   H1234     1.0  0.60359  0.34546  0.84092  1.0000
  C   C803      1.0  0.55653  0.50870  0.81640  1.0000
  H   H1235     1.0  0.52514  0.45604  0.82190  1.0000
  H   H1236     1.0  0.89412  0.50408  0.83917  1.0000
  H   H1237     1.0  0.57945  0.36962  0.84922  1.0000
  S   S324      1.0  0.93168  0.33608  0.78969  1.0000
  H   H1238     1.0  0.56547  0.47697  0.86288  1.0000
  H   H1239     1.0  0.58680  0.63221  0.88259  1.0000
  N   N78       1.0  0.56146  0.32871  0.83887  1.0000
  C   C804      1.0  0.59149  0.49877  0.82248  1.0000
  S   S325      1.0  0.98174  0.36388  0.82543  1.0000
  H   H1240     1.0  0.53558  0.50288  0.81996  1.0000
  H   H1241     1.0  0.53895  0.48354  0.85843  1.0000
  H   H1242     1.0  0.60500  0.51916  0.82928  1.0000
  H   H1243     1.0  0.87953  0.45191  0.81723  1.0000
  H   H1244     1.0  0.52586  0.57446  0.89461  1.0000
  H   H1245     1.0  0.89840  0.47954  0.85412  1.0000
  C   C805      1.0  0.72233  0.54507  0.96167  1.0000
  H   H1246     1.0  0.93831  0.47209  0.80686  1.0000
  H   H1247     1.0  0.55932  0.50941  0.79674  1.0000
  H   H1248     1.0  0.57073  0.49122  0.97520  1.0000
  H   H1249     1.0  0.73736  0.47054  0.94228  1.0000
  C   C806      1.0  0.84376  0.48316  0.99917  1.0000
  C   C807      1.0  0.92996  0.51318  0.80407  1.0000
  S   S326      1.0  0.56231  0.64261  0.84264  1.0000
  N   N79       1.0  0.49736  0.57587  0.87127  1.0000
  H   H1250     1.0  0.77704  0.48906  0.99822  1.0000
  H   H1251     1.0  0.74585  0.57418  0.00092  1.0000
  H   H1252     1.0  0.59756  0.48545  0.83096  1.0000
  H   H1253     1.0  0.52279  0.43398  0.93869  1.0000
  H   H1254     1.0  0.87802  0.47808  0.80248  1.0000
  H   H1255     1.0  0.91755  0.52213  0.79985  1.0000
  C   C808      1.0  0.62652  0.52568  0.00006  1.0000
  C   C809      1.0  0.62040  0.50008  0.99374  1.0000
  H   H1256     1.0  0.70538  0.52904  0.95161  1.0000
  C   C810      1.0  0.55987  0.49026  0.85376  1.0000
  C   C811      1.0  0.50695  0.56796  0.85017  1.0000
  H   H1257     1.0  0.91664  0.63457  0.84449  1.0000
  C   C812      1.0  0.69353  0.54418  0.99299  1.0000
  H   H1258     1.0  0.78151  0.45755  0.94233  1.0000
  H   H1259     1.0  0.71631  0.43354  0.97075  1.0000
  H   H1260     1.0  0.68547  0.55743  0.94985  1.0000
  N   N80       1.0  0.75788  0.46170  0.96920  1.0000
  H   H1261     1.0  0.94813  0.52866  0.81319  1.0000
  H   H1262     1.0  0.55136  0.44904  0.82618  1.0000
  Fe  Fe163     1.0  0.96518  0.32918  0.80019  1.0000
  H   H1263     1.0  0.50050  0.44035  0.98640  1.0000
  H   H1264     1.0  0.93614  0.50853  0.78682  1.0000
  H   H1265     1.0  0.54408  0.33546  0.80795  1.0000
  H   H1266     1.0  0.59501  0.49879  0.80298  1.0000
  H   H1267     1.0  0.54396  0.42331  0.95117  1.0000
  H   H1268     1.0  0.51456  0.55459  0.85507  1.0000
  H   H1269     1.0  0.89590  0.46359  0.78920  1.0000
  C   C813      1.0  0.58668  0.62001  0.86798  1.0000
  S   S327      1.0  0.49196  0.33712  0.82783  1.0000
  H   H1270     1.0  0.49096  0.55767  0.83668  1.0000
  H   H1271     1.0  0.54865  0.46249  0.79847  1.0000
  H   H1272     1.0  0.96110  0.62728  0.82439  1.0000
  H   H1273     1.0  0.92198  0.45973  0.83473  1.0000
  C   C814      1.0  0.51856  0.58801  0.88939  1.0000
  H   H1274     1.0  0.56126  0.34648  0.87253  1.0000
  C   C815      1.0  0.75416  0.48083  0.95502  1.0000
  H   H1275     1.0  0.76712  0.43083  0.96296  1.0000
  H   H1276     1.0  0.79909  0.48881  0.97601  1.0000
  H   H1277     1.0  0.71763  0.58539  0.94540  1.0000
  C   C816      1.0  0.56161  0.35014  0.85305  1.0000
  C   C817      1.0  0.73359  0.44466  0.98285  1.0000
  H   H1278     1.0  0.73068  0.53572  0.97331  1.0000
  H   H1279     1.0  0.53576  0.60646  0.88259  1.0000
  C   C818      1.0  0.73704  0.58239  0.98842  1.0000
  H   H1280     1.0  0.75014  0.49391  0.96652  1.0000
  C   C819      1.0  0.54696  0.44302  0.99527  1.0000
  H   H1281     1.0  0.52558  0.47413  0.99154  1.0000
  H   H1282     1.0  0.92608  0.63647  0.87531  1.0000
  H   H1283     1.0  0.56219  0.43736  0.99176  1.0000
  C   C820      1.0  0.97675  0.65054  0.86739  1.0000
  H   H1284     1.0  0.72877  0.45646  0.99535  1.0000
  C   C821      1.0  0.96408  0.64752  0.82607  1.0000
  H   H1285     1.0  0.95089  0.64921  0.81275  1.0000
  H   H1286     1.0  0.78362  0.46221  0.99674  1.0000
  H   H1287     1.0  0.68617  0.55552  0.00331  1.0000
  H   H1288     1.0  0.73128  0.59483  0.99907  1.0000
  H   H1289     1.0  0.52989  0.42584  0.00391  1.0000
  H   H1290     1.0  0.76809  0.98188  0.14390  1.0000
  Fe  Fe164     1.0  0.87046  0.88841  0.23788  1.0000
  S   S328      1.0  0.87233  0.86772  0.20476  1.0000
  S   S329      1.0  0.85936  0.91977  0.24113  1.0000
  Fe  Fe165     1.0  0.85501  0.83126  0.22795  1.0000
  S   S330      1.0  0.82196  0.78816  0.22195  1.0000
  Fe  Fe166     1.0  0.91311  0.87814  0.21799  1.0000
  S   S331      1.0  0.94694  0.90237  0.19120  1.0000
  S   S332      1.0  0.89607  0.83956  0.23837  1.0000
  H   H1291     1.0  0.73657  0.78701  0.22822  1.0000
  S   S333      1.0  0.82817  0.93731  0.13876  1.0000
  Fe  Fe167     1.0  0.66302  0.68864  0.23006  1.0000
  S   S334      1.0  0.69493  0.73247  0.22594  1.0000
  H   H1292     1.0  0.68940  0.98534  0.05982  1.0000
  H   H1293     1.0  0.82452  0.91579  0.08877  1.0000
  H   H1294     1.0  0.84618  0.89088  0.07377  1.0000
  H   H1295     1.0  0.62230  0.93413  0.07959  1.0000
  Fe  Fe168     1.0  0.58559  0.96230  0.15030  1.0000
  S   S335      1.0  0.67564  0.96232  0.14328  1.0000
  S   S336      1.0  0.55128  0.94736  0.17775  1.0000
  H   H1296     1.0  0.87941  0.95718  0.04623  1.0000
  S   S337      1.0  0.60007  0.96349  0.05983  1.0000
  S   S338      1.0  0.60136  0.94280  0.12537  1.0000
  H   H1297     1.0  0.66909  0.94973  0.02958  1.0000
  H   H1298     1.0  0.63683  0.94342  0.03794  1.0000
  H   H1299     1.0  0.78035  0.73368  0.22056  1.0000
  H   H1300     1.0  0.98236  0.88627  0.21399  1.0000
  Fe  Fe169     1.0  0.64271  0.97227  0.13799  1.0000
  H   H1301     1.0  0.50972  0.90534  0.14733  1.0000
  C   C822      1.0  0.71006  0.98255  0.13695  1.0000
  C   C823      1.0  0.61960  0.98555  0.03701  1.0000
  H   H1302     1.0  0.71967  0.95394  0.15054  1.0000
  N   N81       1.0  0.92544  0.98079  0.18497  1.0000
  H   H1303     1.0  0.85434  0.90876  0.04615  1.0000
  H   H1304     1.0  0.73129  0.71133  0.22262  1.0000
  H   H1305     1.0  0.89080  0.94226  0.18300  1.0000
  C   C824      1.0  0.78667  0.77320  0.22359  1.0000
  C   C825      1.0  0.77399  0.78799  0.22611  1.0000
  C   C826      1.0  0.74604  0.77522  0.22692  1.0000
  C   C827      1.0  0.73026  0.74746  0.22563  1.0000
  C   C828      1.0  0.74299  0.73265  0.22375  1.0000
  C   C829      1.0  0.77091  0.74543  0.22256  1.0000
  H   H1306     1.0  0.78567  0.80933  0.22687  1.0000
  Fe  Fe170     1.0  0.60803  0.97465  0.09902  1.0000
  C   C830      1.0  0.94127  0.97088  0.19697  1.0000
  H   H1307     1.0  0.89127  0.96568  0.16216  1.0000
  H   H1308     1.0  0.89306  0.93265  0.10241  1.0000
  S   S339      1.0  0.62139  0.67850  0.24033  1.0000
  C   C831      1.0  0.50435  0.92420  0.20340  1.0000
  C   C832      1.0  0.51657  0.92414  0.18169  1.0000
  S   S340      1.0  0.91131  0.90037  0.25018  1.0000
  C   C833      1.0  0.87420  0.93296  0.10225  1.0000
  H   H1309     1.0  0.67414  0.91625  0.06953  1.0000
  H   H1310     1.0  0.51613  0.93802  0.21727  1.0000
  H   H1311     1.0  0.62951  0.90779  0.08051  1.0000
  C   C834      1.0  0.83978  0.93295  0.07851  1.0000
  C   C835      1.0  0.84599  0.92258  0.21419  1.0000
  C   C836      1.0  0.84693  0.94630  0.20880  1.0000
  C   C837      1.0  0.84062  0.95055  0.18580  1.0000
  C   C838      1.0  0.83276  0.93091  0.16831  1.0000
  C   C839      1.0  0.83016  0.90652  0.17417  1.0000
  C   C840      1.0  0.83676  0.90236  0.19714  1.0000
  H   H1312     1.0  0.85352  0.96182  0.22207  1.0000
  H   H1313     1.0  0.84219  0.96915  0.18166  1.0000
  H   H1314     1.0  0.82361  0.89104  0.16086  1.0000
  H   H1315     1.0  0.83476  0.88353  0.20160  1.0000
  H   H1316     1.0  0.69941  0.94897  0.06101  1.0000
  C   C841      1.0  0.67210  0.97319  0.07146  1.0000
  C   C842      1.0  0.83931  0.96289  0.01626  1.0000
  H   H1317     1.0  0.87739  0.95072  0.11235  1.0000
  H   H1318     1.0  0.87994  0.90868  0.06380  1.0000
  C   C843      1.0  0.86123  0.90927  0.06479  1.0000
  N   N82       1.0  0.66113  0.94464  0.06724  1.0000
  H   H1319     1.0  0.64395  0.93392  0.10219  1.0000
  H   H1320     1.0  0.82044  0.94502  0.01838  1.0000
  H   H1321     1.0  0.90479  0.95838  0.06501  1.0000
  H   H1322     1.0  0.84218  0.95106  0.08743  1.0000
  C   C844      1.0  0.50086  0.90587  0.16411  1.0000
  S   S341      1.0  0.62677  0.98860  0.16562  1.0000
  C   C845      1.0  0.61497  0.97686  0.01318  1.0000
  C   C846      1.0  0.68168  0.93768  0.07244  1.0000
  H   H1323     1.0  0.67874  0.97859  0.09028  1.0000
  N   N83       1.0  0.86510  0.93305  0.07767  1.0000
  C   C847      1.0  0.90389  0.95905  0.17120  1.0000
  C   C848      1.0  0.63824  0.92945  0.08307  1.0000
  C   C849      1.0  0.75500  0.98916  0.13900  1.0000
  C   C850      1.0  0.88512  0.95700  0.06514  1.0000
  H   H1324     1.0  0.83177  0.93203  0.06034  1.0000
  H   H1325     1.0  0.64398  0.91696  0.03820  1.0000
  H   H1326     1.0  0.68840  0.94227  0.09139  1.0000
  C   C851      1.0  0.97999  0.90927  0.18530  1.0000
  H   H1327     1.0  0.92888  0.95434  0.20933  1.0000
  H   H1328     1.0  0.65709  0.97910  0.06774  1.0000
  C   C852      1.0  0.72746  0.97333  0.14275  1.0000
  H   H1329     1.0  0.85924  0.91546  0.11239  1.0000
  C   C853      1.0  0.65245  0.93836  0.04211  1.0000
  H   H1330     1.0  0.91176  0.95117  0.15737  1.0000
  H   H1331     1.0  0.59927  0.95704  0.00901  1.0000
  H   H1332     1.0  0.90206  0.97512  0.21633  1.0000
  H   H1333     1.0  0.95002  0.96304  0.18389  1.0000
  H   H1334     1.0  0.88763  0.97537  0.07369  1.0000
  Fe  Fe171     1.0  0.84429  0.98059  0.13243  1.0000
  H   H1335     1.0  0.83906  0.97778  0.05164  1.0000
  C   C854      1.0  0.84986  0.98132  0.03515  1.0000
  H   H1336     1.0  0.65047  0.73751  0.24949  1.0000
  H   H1337     1.0  0.49346  0.65702  0.07596  1.0000
  H   H1338     1.0  0.95772  0.98674  0.20754  1.0000
  H   H1339     1.0  0.51576  0.65662  0.09784  1.0000
  H   H1340     1.0  0.98450  0.93388  0.15510  1.0000
  Fe  Fe172     1.0  0.87479  0.86333  0.46073  1.0000
  N   N84       1.0  0.65954  0.74417  0.28695  1.0000
  H   H1341     1.0  0.80751  0.79134  0.27330  1.0000
  Fe  Fe173     1.0  0.85334  0.88762  0.42660  1.0000
  S   S342      1.0  0.82969  0.89319  0.45557  1.0000
  S   S343      1.0  0.85146  0.89722  0.38773  1.0000
  Fe  Fe174     1.0  0.86645  0.90814  0.47872  1.0000
  H   H1342     1.0  0.65082  0.76623  0.26145  1.0000
  Fe  Fe175     1.0  0.81836  0.85136  0.46634  1.0000
  S   S344      1.0  0.77498  0.81845  0.47119  1.0000
  S   S345      1.0  0.89039  0.90500  0.44866  1.0000
  S   S346      1.0  0.84003  0.84571  0.43606  1.0000
  Fe  Fe176     1.0  0.89125  0.86159  0.26930  1.0000
  S   S347      1.0  0.89941  0.85628  0.30772  1.0000
  C   C855      1.0  0.90241  0.95953  0.28785  1.0000
  S   S348      1.0  0.72311  0.69288  0.48068  1.0000
  H   H1343     1.0  0.63021  0.71956  0.31268  1.0000
  H   H1344     1.0  0.71572  0.65926  0.37470  1.0000
  N   N85       1.0  0.73429  0.68295  0.40584  1.0000
  C   C856      1.0  0.76213  0.78355  0.47112  1.0000
  C   C857      1.0  0.77625  0.77222  0.48069  1.0000
  C   C858      1.0  0.76415  0.74450  0.48303  1.0000
  C   C859      1.0  0.73796  0.72759  0.47542  1.0000
  H   H1345     1.0  0.94703  0.84467  0.47685  1.0000
  H   H1346     1.0  0.84798  0.77322  0.26663  1.0000
  H   H1347     1.0  0.93715  0.92761  0.48875  1.0000
  H   H1348     1.0  0.85472  0.80626  0.27019  1.0000
  H   H1349     1.0  0.82043  0.73947  0.29640  1.0000
  H   H1350     1.0  0.62072  0.71028  0.28238  1.0000
  C   C860      1.0  0.67339  0.76674  0.30354  1.0000
  C   C861      1.0  0.86310  0.88321  0.36638  1.0000
  C   C862      1.0  0.85457  0.88093  0.34268  1.0000
  C   C863      1.0  0.86560  0.87272  0.32467  1.0000
  C   C864      1.0  0.88495  0.86621  0.33024  1.0000
  C   C865      1.0  0.89265  0.86734  0.35413  1.0000
  C   C866      1.0  0.88184  0.87590  0.37216  1.0000
  H   H1351     1.0  0.83954  0.88581  0.33828  1.0000
  H   H1352     1.0  0.85923  0.87165  0.30648  1.0000
  H   H1353     1.0  0.90743  0.86211  0.35869  1.0000
  H   H1354     1.0  0.88845  0.87743  0.39044  1.0000
  H   H1355     1.0  0.53044  0.96342  0.49306  1.0000
  H   H1356     1.0  0.95338  0.77392  0.50001  1.0000
  H   H1357     1.0  0.67188  0.71984  0.30529  1.0000
  H   H1358     1.0  0.79619  0.78492  0.48716  1.0000
  C   C867      1.0  0.82481  0.75574  0.30925  1.0000
  H   H1359     1.0  0.61475  0.66481  0.35981  1.0000
  N   N86       1.0  0.49015  0.93257  0.49793  1.0000
  S   S349      1.0  0.65760  0.66174  0.44345  1.0000
  N   N87       1.0  0.82896  0.77969  0.29672  1.0000
  C   C868      1.0  0.63168  0.72765  0.29442  1.0000
  H   H1360     1.0  0.83815  0.81921  0.30535  1.0000
  H   H1361     1.0  0.50957  0.95685  0.46748  1.0000
  C   C869      1.0  0.66053  0.75407  0.26252  1.0000
  C   C870      1.0  0.66162  0.70540  0.49365  1.0000
  Fe  Fe177     1.0  0.68185  0.65791  0.47218  1.0000
  H   H1362     1.0  0.77508  0.73619  0.49125  1.0000
  H   H1363     1.0  0.85917  0.91307  0.29708  1.0000
  H   H1364     1.0  0.87027  0.79420  0.28982  1.0000
  H   H1365     1.0  0.77620  0.70039  0.41138  1.0000
  H   H1366     1.0  0.97043  0.95510  0.48888  1.0000
  C   C871      1.0  0.93470  0.84217  0.49214  1.0000
  H   H1367     1.0  0.69447  0.77955  0.29835  1.0000
  H   H1368     1.0  0.50672  0.97434  0.49272  1.0000
  H   H1369     1.0  0.91709  0.96052  0.33389  1.0000
  H   H1370     1.0  0.87423  0.97844  0.48354  1.0000
  N   N88       1.0  0.88561  0.95267  0.30933  1.0000
  H   H1371     1.0  0.84273  0.75975  0.31959  1.0000
  C   C872      1.0  0.85150  0.78861  0.28020  1.0000
  H   H1372     1.0  0.69402  0.67412  0.40312  1.0000
  H   H1373     1.0  0.62106  0.73896  0.29438  1.0000
  H   H1374     1.0  0.84953  0.93652  0.28897  1.0000
  C   C873      1.0  0.89715  0.94432  0.32853  1.0000
  C   C874      1.0  0.73610  0.76658  0.46302  1.0000
  H   H1375     1.0  0.66249  0.71916  0.47956  1.0000
  H   H1376     1.0  0.66263  0.71113  0.27488  1.0000
  C   C875      1.0  0.83472  0.80082  0.31430  1.0000
  C   C876      1.0  0.85875  0.93090  0.30348  1.0000
  C   C877      1.0  0.91066  0.84143  0.48908  1.0000
  H   H1377     1.0  0.80024  0.75803  0.26935  1.0000
  C   C878      1.0  0.72429  0.73882  0.46466  1.0000
  H   H1378     1.0  0.66402  0.77927  0.30375  1.0000
  H   H1379     1.0  0.89424  0.96592  0.27302  1.0000
  H   H1380     1.0  0.90355  0.94218  0.28114  1.0000
  H   H1381     1.0  0.72668  0.66408  0.44005  1.0000
  H   H1382     1.0  0.71242  0.69546  0.42767  1.0000
  S   S350      1.0  0.85277  0.86660  0.49207  1.0000
  H   H1383     1.0  0.71821  0.70804  0.39784  1.0000
  H   H1384     1.0  0.78738  0.76673  0.29480  1.0000
  H   H1385     1.0  0.70450  0.72627  0.45796  1.0000
  H   H1386     1.0  0.92291  0.97574  0.29155  1.0000
  H   H1387     1.0  0.73988  0.69306  0.36865  1.0000
  H   H1388     1.0  0.81821  0.79496  0.32711  1.0000
  H   H1389     1.0  0.87521  0.98263  0.30342  1.0000
  C   C879      1.0  0.51005  0.95793  0.48730  1.0000
  H   H1390     1.0  0.87161  0.97135  0.33371  1.0000
  H   H1391     1.0  0.84546  0.92510  0.31924  1.0000
  C   C880      1.0  0.67261  0.72815  0.28729  1.0000
  H   H1392     1.0  0.69361  0.73976  0.28148  1.0000
  H   H1393     1.0  0.72502  0.77508  0.45546  1.0000
  H   H1394     1.0  0.69525  0.75620  0.50380  1.0000
  S   S351      1.0  0.90233  0.84708  0.46069  1.0000
  C   C881      1.0  0.80492  0.77363  0.28306  1.0000
  C   C882      1.0  0.88405  0.97594  0.31741  1.0000
  H   H1395     1.0  0.85294  0.80614  0.32478  1.0000
  H   H1396     1.0  0.67303  0.75988  0.32210  1.0000
  H   H1397     1.0  0.64160  0.68759  0.49280  1.0000
  H   H1398     1.0  0.75988  0.71063  0.43238  1.0000
  H   H1399     1.0  0.80798  0.74848  0.32192  1.0000
  H   H1400     1.0  0.88451  0.93811  0.34481  1.0000
  H   H1401     1.0  0.89940  0.92731  0.32281  1.0000
  C   C883      1.0  0.76020  0.70530  0.41328  1.0000
  S   S352      1.0  0.85020  0.85174  0.25968  1.0000
  H   H1402     1.0  0.67609  0.69905  0.48898  1.0000
  C   C884      1.0  0.73520  0.67613  0.38058  1.0000
  H   H1403     1.0  0.76572  0.72329  0.40256  1.0000
  C   C885      1.0  0.71382  0.69048  0.40875  1.0000
  H   H1404     1.0  0.51570  0.91605  0.49621  1.0000
  C   C886      1.0  0.72775  0.65977  0.42086  1.0000
  C   C887      1.0  0.95431  0.94053  0.50047  1.0000
  H   H1405     1.0  0.95466  0.89714  0.48577  1.0000
  H   H1406     1.0  0.58673  0.98788  0.48367  1.0000
  C   C888      1.0  0.49558  0.91150  0.49046  1.0000
  H   H1407     1.0  0.49451  0.90899  0.47074  1.0000
  H   H1408     1.0  0.55422  0.66347  0.48800  1.0000
  C   C889      1.0  0.88811  0.98907  0.49777  1.0000
  S   S353      1.0  0.66835  0.66787  0.26114  1.0000
  H   H1409     1.0  0.75029  0.67015  0.37768  1.0000
  H   H1410     1.0  0.91794  0.75449  0.50228  1.0000
  C   C890      1.0  0.97110  0.91037  0.49799  1.0000
  S   S354      1.0  0.61889  0.66341  0.30871  1.0000
  H   H1411     1.0  0.68129  0.76635  0.25620  1.0000
  C   C891      1.0  0.56138  0.65741  0.50313  1.0000
  Fe  Fe178     1.0  0.52617  0.85955  0.56386  1.0000
  C   C892      1.0  0.49604  0.87275  0.65895  1.0000
  S   S355      1.0  0.53371  0.82443  0.56149  1.0000
  Fe  Fe179     1.0  0.54532  0.91938  0.55200  1.0000
  S   S356      1.0  0.52217  0.92245  0.58254  1.0000
  S   S357      1.0  0.56521  0.95200  0.52332  1.0000
  Fe  Fe180     1.0  0.53517  0.89865  0.60402  1.0000
  S   S358      1.0  0.54691  0.90637  0.64307  1.0000
  C   C893      1.0  0.97807  0.85012  0.69721  1.0000
  H   H1412     1.0  0.64683  0.73913  0.51016  1.0000
  S   S359      1.0  0.56160  0.89878  0.57469  1.0000
  S   S360      1.0  0.51185  0.88000  0.53865  1.0000
  H   H1413     1.0  0.98212  0.80278  0.71119  1.0000
  C   C894      1.0  0.56614  0.84966  0.65854  1.0000
  S   S361      1.0  0.95361  0.83690  0.71966  1.0000
  H   H1414     1.0  0.56361  0.86686  0.66313  1.0000
  C   C895      1.0  0.96918  0.75626  0.73096  1.0000
  C   C896      1.0  0.51288  0.78918  0.56027  1.0000
  C   C897      1.0  0.94357  0.84122  0.51504  1.0000
  H   H1415     1.0  0.94153  0.74141  0.55934  1.0000
  S   S362      1.0  0.50097  0.85931  0.59402  1.0000
  H   H1416     1.0  0.51695  0.81652  0.64246  1.0000
  C   C898      1.0  0.52425  0.77315  0.56383  1.0000
  H   H1417     1.0  0.59590  0.86961  0.61924  1.0000
  H   H1418     1.0  0.97980  0.75001  0.71846  1.0000
  H   H1419     1.0  0.51815  0.73339  0.56477  1.0000
  H   H1420     1.0  0.54520  0.78237  0.56745  1.0000
  H   H1421     1.0  0.89107  0.83405  0.54709  1.0000
  C   C899      1.0  0.90327  0.83626  0.53177  1.0000
  H   H1422     1.0  0.64669  0.68062  0.53578  1.0000
  C   C900      1.0  0.49676  0.74465  0.72748  1.0000
  H   H1423     1.0  0.92406  0.77653  0.72668  1.0000
  H   H1424     1.0  0.58263  0.82352  0.62985  1.0000
  H   H1425     1.0  0.95796  0.74608  0.53134  1.0000
  H   H1426     1.0  0.52324  0.82662  0.61187  1.0000
  C   C901      1.0  0.52181  0.89217  0.66497  1.0000
  C   C902      1.0  0.52765  0.90053  0.68883  1.0000
  C   C903      1.0  0.57455  0.86309  0.61739  1.0000
  H   H1427     1.0  0.57231  0.88056  0.62111  1.0000
  H   H1428     1.0  0.51184  0.75748  0.71420  1.0000
  C   C904      1.0  0.89870  0.97632  0.51105  1.0000
  H   H1429     1.0  0.54756  0.91540  0.69377  1.0000
  H   H1430     1.0  0.51215  0.89736  0.72451  1.0000
  H   H1431     1.0  0.95049  0.84603  0.66968  1.0000
  H   H1432     1.0  0.67073  0.70766  0.55359  1.0000
  Fe  Fe181     1.0  0.97402  0.66020  0.57538  1.0000
  C   C905      1.0  0.48576  0.77679  0.55529  1.0000
  H   H1433     1.0  0.51160  0.94034  0.53092  1.0000
  C   C906      1.0  0.50763  0.89028  0.70629  1.0000
  H   H1434     1.0  0.95232  0.78888  0.74569  1.0000
  H   H1435     1.0  0.52663  0.84983  0.63469  1.0000
  H   H1436     1.0  0.68135  0.69292  0.53121  1.0000
  H   H1437     1.0  0.94086  0.73298  0.69133  1.0000
  C   C907      1.0  0.91501  0.76633  0.54826  1.0000
  H   H1438     1.0  0.51081  0.69495  0.72716  1.0000
  H   H1439     1.0  0.98035  0.95377  0.54250  1.0000
  N   N89       1.0  0.55809  0.84102  0.63361  1.0000
  H   H1440     1.0  0.97691  0.74334  0.59937  1.0000
  C   C908      1.0  0.56162  0.81830  0.62787  1.0000
  C   C909      1.0  0.66643  0.69893  0.53535  1.0000
  H   H1441     1.0  0.92250  0.72659  0.53285  1.0000
  H   H1442     1.0  0.91305  0.78410  0.54524  1.0000
  C   C910      1.0  0.52998  0.83313  0.63052  1.0000
  C   C911      1.0  0.96245  0.79190  0.54497  1.0000
  H   H1443     1.0  0.50311  0.66374  0.64383  1.0000
  H   H1444     1.0  0.96526  0.78997  0.56431  1.0000
  H   H1445     1.0  0.91924  0.72288  0.71674  1.0000
  S   S363      1.0  0.96614  0.69484  0.57678  1.0000
  C   C912      1.0  0.93137  0.73974  0.70464  1.0000
  H   H1446     1.0  0.62656  0.70717  0.52317  1.0000
  H   H1447     1.0  0.54939  0.80117  0.63962  1.0000
  C   C913      1.0  0.49159  0.93497  0.52421  1.0000
  C   C914      1.0  0.97093  0.85248  0.67384  1.0000
  C   C915      1.0  0.94082  0.90577  0.52938  1.0000
  H   H1448     1.0  0.91656  0.76463  0.56788  1.0000
  H   H1449     1.0  0.55560  0.81157  0.60907  1.0000
  N   N90       1.0  0.96298  0.92482  0.51442  1.0000
  H   H1450     1.0  0.69826  0.75213  0.53518  1.0000
  H   H1451     1.0  0.92510  0.98124  0.53998  1.0000
  H   H1452     1.0  0.58729  0.85590  0.66157  1.0000
  H   H1453     1.0  0.56899  0.85733  0.59841  1.0000
  S   S364      1.0  0.94031  0.84029  0.56384  1.0000
  N   N91       1.0  0.95128  0.76302  0.71814  1.0000
  H   H1454     1.0  0.96235  0.84242  0.51705  1.0000
  C   C916      1.0  0.50891  0.74526  0.56229  1.0000
  C   C917      1.0  0.92823  0.83892  0.53495  1.0000
  C   C918      1.0  0.93778  0.77119  0.73556  1.0000
  C   C919      1.0  0.96678  0.78501  0.70151  1.0000
  C   C920      1.0  0.58150  0.98750  0.52177  1.0000
  N   N92       1.0  0.93833  0.76861  0.53576  1.0000
  C   C921      1.0  0.89455  0.83771  0.50881  1.0000
  H   H1455     1.0  0.93399  0.91594  0.54184  1.0000
  S   S365      1.0  0.54016  0.66549  0.72233  1.0000
  H   H1456     1.0  0.53567  0.66136  0.52809  1.0000
  S   S366      1.0  0.49527  0.66611  0.59444  1.0000
  H   H1457     1.0  0.49442  0.71827  0.68709  1.0000
  H   H1458     1.0  0.53830  0.68167  0.67466  1.0000
  H   H1459     1.0  0.97702  0.77959  0.68782  1.0000
  H   H1460     1.0  0.94658  0.89356  0.54027  1.0000
  H   H1461     1.0  0.91760  0.74432  0.69480  1.0000
  H   H1462     1.0  0.96153  0.81024  0.54281  1.0000
  H   H1463     1.0  0.98429  0.77342  0.74150  1.0000
  N   N93       1.0  0.66713  0.71781  0.51751  1.0000
  H   H1464     1.0  0.92633  0.75542  0.74885  1.0000
  C   C922      1.0  0.69362  0.74182  0.51762  1.0000
  H   H1465     1.0  0.53045  0.72781  0.71625  1.0000
  C   C923      1.0  0.94010  0.74461  0.53997  1.0000
  H   H1466     1.0  0.98044  0.79487  0.53546  1.0000
  H   H1467     1.0  0.92350  0.89209  0.51823  1.0000
  C   C924      1.0  0.93589  0.77176  0.50991  1.0000
  H   H1468     1.0  0.55403  0.83363  0.67135  1.0000
  H   H1469     1.0  0.97734  0.89796  0.50797  1.0000
  H   H1470     1.0  0.70943  0.73696  0.51386  1.0000
  H   H1471     1.0  0.65015  0.73419  0.54131  1.0000
  H   H1472     1.0  0.49124  0.86573  0.64088  1.0000
  H   H1473     1.0  0.87551  0.83616  0.50643  1.0000
  H   H1474     1.0  0.50480  0.75272  0.74553  1.0000
  H   H1475     1.0  0.89639  0.74879  0.54202  1.0000
  C   C925      1.0  0.51469  0.71549  0.72921  1.0000
  H   H1476     1.0  0.48871  0.91517  0.64326  1.0000
  H   H1477     1.0  0.94772  0.95147  0.51229  1.0000
  H   H1478     1.0  0.48719  0.95039  0.53056  1.0000
  C   C926      1.0  0.51875  0.66569  0.67903  1.0000
  H   H1479     1.0  0.95815  0.73995  0.74389  1.0000
  C   C927      1.0  0.64680  0.72491  0.52333  1.0000
  H   H1480     1.0  0.93439  0.78965  0.50618  1.0000
  H   H1481     1.0  0.95398  0.79113  0.69201  1.0000
  N   N94       1.0  0.49041  0.71689  0.72529  1.0000
  H   H1482     1.0  0.52290  0.72234  0.74747  1.0000
  Fe  Fe182     1.0  0.48992  0.88279  0.57038  1.0000
  S   S367      1.0  0.89019  0.94262  0.50568  1.0000
  Fe  Fe183     1.0  0.87365  0.95217  0.88397  1.0000
  C   C928      1.0  0.56041  0.85340  0.86099  1.0000
  S   S368      1.0  0.89457  0.93969  0.85582  1.0000
  Fe  Fe184     1.0  0.83124  0.97037  0.89116  1.0000
  S   S369      1.0  0.79047  0.96397  0.88015  1.0000
  Fe  Fe185     1.0  0.85483  0.95844  0.93427  1.0000
  S   S370      1.0  0.84024  0.94348  0.97169  1.0000
  C   C929      1.0  0.98130  0.72411  0.79115  1.0000
  S   S371      1.0  0.83339  0.93420  0.90174  1.0000
  H   H1483     1.0  0.75669  0.93862  0.98577  1.0000
  S   S372      1.0  0.55587  0.68775  0.78965  1.0000
  Fe  Fe186     1.0  0.52080  0.69212  0.79984  1.0000
  S   S373      1.0  0.52720  0.73434  0.79878  1.0000
  S   S374      1.0  0.60303  0.93998  0.90076  1.0000
  C   C930      1.0  0.51515  0.84228  0.86773  1.0000
  S   S375      1.0  0.93994  0.81024  0.78617  1.0000
  Fe  Fe187     1.0  0.50944  0.88711  0.79565  1.0000
  H   H1484     1.0  0.74669  0.90577  0.97527  1.0000
  S   S376      1.0  0.55369  0.91261  0.79757  1.0000
  H   H1485     1.0  0.49416  0.83031  0.86174  1.0000
  H   H1486     1.0  0.52668  0.80309  0.87261  1.0000
  Fe  Fe188     1.0  0.95566  0.84564  0.81094  1.0000
  S   S377      1.0  0.93105  0.85333  0.83888  1.0000
  H   H1487     1.0  0.80764  0.96680  0.95763  1.0000
  H   H1488     1.0  0.62636  0.98685  0.97630  1.0000
  C   C931      1.0  0.58936  0.93253  0.87217  1.0000
  C   C932      1.0  0.60559  0.93767  0.85227  1.0000
  C   C933      1.0  0.59441  0.93108  0.82940  1.0000
  C   C934      1.0  0.56710  0.91996  0.82638  1.0000
  C   C935      1.0  0.55096  0.91538  0.84626  1.0000
  C   C936      1.0  0.56204  0.92126  0.86919  1.0000
  H   H1489     1.0  0.62672  0.94632  0.85457  1.0000
  H   H1490     1.0  0.60698  0.93471  0.81405  1.0000
  H   H1491     1.0  0.53005  0.90774  0.84402  1.0000
  H   H1492     1.0  0.54955  0.91767  0.88460  1.0000
  C   C937      1.0  0.50607  0.74807  0.80129  1.0000
  H   H1493     1.0  0.53721  0.86501  0.82575  1.0000
  H   H1494     1.0  0.96293  0.71359  0.78131  1.0000
  H   H1495     1.0  0.57419  0.84980  0.85006  1.0000
  H   H1496     1.0  0.95818  0.68445  0.86992  1.0000
  C   C938      1.0  0.51492  0.77361  0.79231  1.0000
  H   H1497     1.0  0.54476  0.97583  0.79191  1.0000
  S   S378      1.0  0.96935  0.76419  0.79393  1.0000
  H   H1498     1.0  0.79421  0.92173  0.94270  1.0000
  H   H1499     1.0  0.53391  0.78400  0.78351  1.0000
  H   H1500     1.0  0.53951  0.98004  0.82289  1.0000
  H   H1501     1.0  0.76030  0.89923  0.93516  1.0000
  C   C939      1.0  0.74364  0.93442  0.93910  1.0000
  S   S379      1.0  0.49529  0.66548  0.77060  1.0000
  H   H1502     1.0  0.73675  0.95243  0.87470  1.0000
  C   C940      1.0  0.90427  0.91524  0.85153  1.0000
  C   C941      1.0  0.89672  0.89388  0.86698  1.0000
  C   C942      1.0  0.90461  0.87497  0.86249  1.0000
  C   C943      1.0  0.92045  0.87714  0.84268  1.0000
  C   C944      1.0  0.92824  0.89864  0.82735  1.0000
  C   C945      1.0  0.92011  0.91740  0.83170  1.0000
  H   H1503     1.0  0.88446  0.89169  0.88222  1.0000
  H   H1504     1.0  0.89834  0.85849  0.87452  1.0000
  H   H1505     1.0  0.94036  0.90073  0.81203  1.0000
  H   H1506     1.0  0.92606  0.93367  0.81950  1.0000
  N   N95       1.0  0.53280  0.83706  0.85266  1.0000
  H   H1507     1.0  0.96478  0.91118  0.90678  1.0000
  H   H1508     1.0  0.52062  0.86343  0.86698  1.0000
  C   C946      1.0  0.96260  0.67986  0.85181  1.0000
  C   C947      1.0  0.59552  0.98846  0.79631  1.0000
  C   C948      1.0  0.52469  0.80875  0.85414  1.0000
  H   H1509     1.0  0.58960  0.98888  0.77753  1.0000
  H   H1510     1.0  0.56264  0.84923  0.87993  1.0000
  H   H1511     1.0  0.50650  0.80531  0.78722  1.0000
  H   H1512     1.0  0.56719  0.87488  0.85979  1.0000
  H   H1513     1.0  0.95870  0.91471  0.87602  1.0000
  H   H1514     1.0  0.59237  0.96836  0.79948  1.0000
  C   C949      1.0  0.74820  0.97278  0.88056  1.0000
  H   H1515     1.0  0.71460  0.97898  0.87981  1.0000
  C   C950      1.0  0.96641  0.90520  0.88829  1.0000
  C   C951      1.0  0.77554  0.98392  0.88472  1.0000
  H   H1516     1.0  0.72699  0.91365  0.93899  1.0000
  Fe  Fe189     1.0  0.63467  0.98263  0.90276  1.0000
  H   H1517     1.0  0.54337  0.83956  0.81559  1.0000
  H   H1518     1.0  0.95293  0.88343  0.88673  1.0000
  H   H1519     1.0  0.89365  0.97726  0.79322  1.0000
  C   C952      1.0  0.76265  0.92682  0.97446  1.0000
  S   S380      1.0  0.50671  0.65879  0.82655  1.0000
  C   C953      1.0  0.55165  0.97572  0.81038  1.0000
  C   C954      1.0  0.53084  0.84378  0.82767  1.0000
  S   S381      1.0  0.89493  0.97336  0.91771  1.0000
  C   C955      1.0  0.77589  0.92044  0.93544  1.0000
  H   H1520     1.0  0.77996  0.92717  0.91661  1.0000
  H   H1521     1.0  0.78073  0.92823  0.98266  1.0000
  H   H1522     1.0  0.58397  0.97337  0.84260  1.0000
  C   C956      1.0  0.49950  0.78588  0.79458  1.0000
  C   C957      1.0  0.73553  0.98781  0.88347  1.0000
  C   C958      1.0  0.85311  0.96754  0.99466  1.0000
  H   H1523     1.0  0.51606  0.83741  0.88673  1.0000
  H   H1524     1.0  0.54712  0.95521  0.81409  1.0000
  H   H1525     1.0  0.51014  0.83243  0.82107  1.0000
  Fe  Fe190     1.0  0.97561  0.80645  0.79564  1.0000
  H   H1526     1.0  0.94973  0.68258  0.83886  1.0000
  N   N96       1.0  0.76780  0.93652  0.94965  1.0000
  C   C959      1.0  0.78916  0.96445  0.94957  1.0000
  H   H1527     1.0  0.73718  0.94672  0.94898  1.0000
  Fe  Fe191     1.0  0.52906  0.65969  0.76139  1.0000
  S   S382      1.0  0.49379  0.85145  0.77202  1.0000
  H   H1528     1.0  0.50363  0.79597  0.84873  1.0000
  S   S383      1.0  0.97880  0.87407  0.78180  1.0000
  H   H1529     1.0  0.74709  0.94131  0.92025  1.0000
  C   C960      1.0  0.90538  0.98787  0.80930  1.0000
  H   H1530     1.0  0.79386  0.97237  0.93111  1.0000
  H   H1531     1.0  0.78365  0.97725  0.95986  1.0000
  H   H1532     1.0  0.53675  0.80373  0.84218  1.0000
  Fe  Fe192     1.0  0.96618  0.83873  0.75811  1.0000
  H   H1533     1.0  0.89182  0.98009  0.82488  1.0000
  H   H1534     1.0  0.92072  0.98216  0.81197  1.0000
  S   S384      1.0  0.86928  0.98623  0.87043  1.0000
  H   H1535     1.0  0.98372  0.88141  0.85689  1.0000
  H   H1536     1.0  0.98344  0.69496  0.84759  1.0000
