data_image0
_chemical_formula_structural       HSCHCHNCNH4C2HCH2C2HS2HC2FeSCFeS2FeS2FeHFeHS2HC2H4CHC3H2CHC6H10CH3SH2CH5C2HCH3C2HCSHSFeSCHFeSCFeS2FeSFeSHSC4H6CH2C4HCH3CHCSH4NHCH5CHC2H2CH2NH4CH2CHCH4CHS2HCH2CH2CH2CH5NC3H4C2NSNSFe2SC2SC5H3NSCHC3SHFeNSCSCH4C2FeCHFe2HSHCSCHC2H7FeHC2H3C3H3SH4CH4CH2CH2SH4SHCHC2HC4H5NCH3C3HNH4CHCS2HFeS2FeS2FeHFeSHC2HC4H3CH2S2CH2C2HC2FeH3NH5C2FeHSHCH2CFeH3SHSH4CH2C2H2SNH2SH2CHS2CH4CFeC2H2CHCSFeHC2H3S2CSH2FeHFeCHFeSC3NHC3SH5CH3C2H2CH2CFeSC4H6CH3SNSHS2H4C2HSHFeHSFeSHFeCHCHFeH2CHCHC3SCH4CSHC2HSCNH2FeS2H3CSC2SHFeSFeSCHCH4C7H4CH5SHSHC2HC3SCH2CHNCH7FeH3NH2C5H3S2H4CH5SC4NH5FeCHFeSNHC3HSCFeS2H3FeS2FeS2FeHFeS3C3H3C3H2C6H3CHCH2NC2H2NFeSCHCHNH9NCH4CHFeH3C2HCH2C2FeSH2CH3SCH2CHCHC2H2CH2CHC3H2CHSH6CHNHCHSFeSHFeS2FeS2Fe2HS2H2C2H6CH2SHC6H3CHCHCH2C3H2SH2NC3HC3H6NH2CSH4CH2CFeSCHFeSHFeS2FeSFeS3C3H2CHC2HC6H2SNHC3H3CH5CH3CH4CSHCHSNHSC3HCHCHC3H3S2H2SCFeSFeSH2CH3C4HCH2FeSCHNSCH2FeH2CHCHNH3FeCHCH6S2CNH2C3HCH3FeC2H5CH3CHCH2CHC5HCH4CH2SH4FeSHCH3C3H2CNSH2C2HNHCH2C2H3CH2SHFeS2FeS2FeCFeSC2H2C4HCH2SNSHC2FeNC2H6SH7CH2CH3CFeCH2CHCSC2HSCHSH2CH4FeCSH5SNH2CFeH2C2H2SCS3HFeS2NSFeSFeSCSCHCFeH2C4HCH2C3HCH2CHCH2CH9C2HFeSHC3H4CHCH3CHCH2CHCHNH2NC3H3CH5SH2SHFeS2FeSFeC5HC5H2SHFeS2H7FeS2C2H2SCHSCFeSFeSCHCH3SC6H3CH3CHSHNH3CFeH2CHCNH9FeS3H2C4H3C2FeNHSHC2SHCH2CFeH2C2H4CHFeH2SC2HC2H6C2FeS2HCHFeS2FeS2FeCFeS3C3H2CHC3HC6H13CH3SHC3HCHCHCHCHCHNH3CSNCNCH2C2H11SCH4CH3CHSNCHNH7CHCH2CSFeC5HCH5
_chemical_formula_sum              "H768 S192 C480 N48 Fe96"
_cell_length_a       49.2414
_cell_length_b       49.4421
_cell_length_c       36.6849
_cell_angle_alpha    89.9581
_cell_angle_beta     90.6344
_cell_angle_gamma    120.114

_space_group_name_H-M_alt    "P 1"
_space_group_IT_number       1

loop_
  _space_group_symop_operation_xyz
  'x, y, z'

loop_
  _atom_site_type_symbol
  _atom_site_label
  _atom_site_symmetry_multiplicity
  _atom_site_fract_x
  _atom_site_fract_y
  _atom_site_fract_z
  _atom_site_occupancy
  H   H1        1.0  0.27100  0.07067  0.32739  1.0000
  S   S1        1.0  0.33012  0.21757  0.51256  1.0000
  C   C1        1.0  0.36845  0.24152  0.33085  1.0000
  H   H2        1.0  0.21882  0.01851  0.22433  1.0000
  C   C2        1.0  0.15018  0.21585  0.48484  1.0000
  H   H3        1.0  0.25954  0.23115  0.23388  1.0000
  N   N1        1.0  0.31319  0.08830  0.29596  1.0000
  C   C3        1.0  0.36966  0.18065  0.01861  1.0000
  N   N2        1.0  0.11730  0.20411  0.49577  1.0000
  H   H4        1.0  0.15152  0.20644  0.45783  1.0000
  H   H5        1.0  0.22087  0.01686  0.09085  1.0000
  H   H6        1.0  0.33827  0.12318  0.33734  1.0000
  H   H7        1.0  0.20685  0.23954  0.16763  1.0000
  C   C4        1.0  0.27943  0.01185  0.19064  1.0000
  C   C5        1.0  0.24077  0.02517  0.21093  1.0000
  H   H8        1.0  0.29261  0.22184  0.27948  1.0000
  C   C6        1.0  0.33462  0.19889  0.03734  1.0000
  H   H9        1.0  0.32282  0.08360  0.35222  1.0000
  H   H10       1.0  0.50787  0.22880  0.49756  1.0000
  C   C7        1.0  0.44466  0.25281  0.41458  1.0000
  C   C8        1.0  0.25963  0.05604  0.19887  1.0000
  H   H11       1.0  0.07665  0.20558  0.47625  1.0000
  S   S2        1.0  0.24841  0.08403  0.20833  1.0000
  S   S3        1.0  0.24097  0.20803  0.15183  1.0000
  H   H12       1.0  0.35682  0.10153  0.32368  1.0000
  C   C9        1.0  0.30773  0.05704  0.28559  1.0000
  C   C10       1.0  0.33368  0.09964  0.32874  1.0000
  Fe  Fe1       1.0  0.36161  0.22019  0.46701  1.0000
  S   S4        1.0  0.34198  0.18587  0.41998  1.0000
  C   C11       1.0  0.28279  0.08620  0.30380  1.0000
  Fe  Fe2       1.0  0.32612  0.17780  0.13516  1.0000
  S   S5        1.0  0.27341  0.14952  0.13342  1.0000
  S   S6        1.0  0.35681  0.17569  0.09118  1.0000
  Fe  Fe3       1.0  0.32804  0.20013  0.21303  1.0000
  S   S7        1.0  0.27577  0.17301  0.21776  1.0000
  S   S8        1.0  0.35863  0.23361  0.25735  1.0000
  Fe  Fe4       1.0  0.27847  0.13408  0.18938  1.0000
  H   H13       1.0  0.10118  0.20424  0.44096  1.0000
  Fe  Fe5       1.0  0.27554  0.19109  0.16170  1.0000
  H   H14       1.0  0.38381  0.17019  0.02534  1.0000
  S   S9        1.0  0.33109  0.15980  0.18979  1.0000
  S   S10       1.0  0.32797  0.22077  0.15846  1.0000
  H   H15       1.0  0.27601  0.23339  0.31551  1.0000
  C   C12       1.0  0.28794  0.06446  0.18163  1.0000
  C   C13       1.0  0.29796  0.04253  0.17797  1.0000
  H   H16       1.0  0.30255  0.08810  0.17194  1.0000
  H   H17       1.0  0.32034  0.04946  0.16551  1.0000
  H   H18       1.0  0.29259  0.04797  0.26079  1.0000
  H   H19       1.0  0.26632  0.07652  0.28006  1.0000
  C   C14       1.0  0.29508  0.24229  0.29509  1.0000
  H   H20       1.0  0.29582  0.03965  0.30761  1.0000
  C   C15       1.0  0.35314  0.18567  0.04615  1.0000
  C   C16       1.0  0.10138  0.21366  0.46855  1.0000
  C   C17       1.0  0.01292  0.25156  0.50613  1.0000
  H   H21       1.0  0.31285  0.10352  0.24122  1.0000
  H   H22       1.0  0.32179  0.20281  0.05847  1.0000
  C   C18       1.0  0.32852  0.11032  0.26562  1.0000
  H   H23       1.0  0.33008  0.05758  0.27937  1.0000
  C   C19       1.0  0.34501  0.19977  0.37519  1.0000
  C   C20       1.0  0.32861  0.17852  0.34687  1.0000
  C   C21       1.0  0.33213  0.18872  0.31055  1.0000
  C   C22       1.0  0.35263  0.22014  0.30247  1.0000
  C   C23       1.0  0.25353  0.24801  0.15766  1.0000
  C   C24       1.0  0.36432  0.23141  0.36717  1.0000
  H   H24       1.0  0.31298  0.15420  0.35323  1.0000
  H   H25       1.0  0.31913  0.17237  0.28882  1.0000
  H   H26       1.0  0.10054  0.15892  0.47127  1.0000
  H   H27       1.0  0.31593  0.25618  0.22564  1.0000
  H   H28       1.0  0.33454  0.13451  0.27308  1.0000
  H   H29       1.0  0.35056  0.11109  0.25728  1.0000
  H   H30       1.0  0.28576  0.10957  0.30997  1.0000
  H   H31       1.0  0.41935  0.24038  0.40671  1.0000
  H   H32       1.0  0.16349  0.24182  0.48298  1.0000
  H   H33       1.0  0.11318  0.23955  0.46627  1.0000
  C   C25       1.0  0.26326  0.25109  0.25159  1.0000
  H   H34       1.0  0.46749  0.24476  0.49431  1.0000
  H   H35       1.0  0.25890  0.02183  0.10164  1.0000
  H   H36       1.0  0.45280  0.23552  0.41332  1.0000
  S   S11       1.0  0.39806  0.22002  0.50432  1.0000
  H   H37       1.0  0.16305  0.20953  0.50514  1.0000
  H   H38       1.0  0.37614  0.24800  0.38891  1.0000
  C   C26       1.0  0.10070  0.16964  0.49801  1.0000
  H   H39       1.0  0.46702  0.25218  0.34824  1.0000
  H   H40       1.0  0.07586  0.16006  0.50629  1.0000
  H   H41       1.0  0.31781  0.25257  0.31029  1.0000
  H   H42       1.0  0.24352  0.24208  0.27112  1.0000
  H   H43       1.0  0.22852  0.00630  0.13488  1.0000
  C   C27       1.0  0.23317  0.00621  0.10528  1.0000
  C   C28       1.0  0.25457  0.03604  0.81972  1.0000
  H   H44       1.0  0.31908  0.21812  0.99452  1.0000
  C   C29       1.0  0.39152  0.25279  0.68268  1.0000
  H   H45       1.0  0.33135  0.11127  0.91300  1.0000
  H   H46       1.0  0.28889  0.15432  0.93121  1.0000
  H   H47       1.0  0.25189  0.07384  0.79391  1.0000
  C   C30       1.0  0.26698  0.06697  0.80778  1.0000
  C   C31       1.0  0.25291  0.01599  0.72127  1.0000
  H   H48       1.0  0.46265  0.21045  0.65431  1.0000
  C   C32       1.0  0.33315  0.20755  0.00115  1.0000
  S   S12       1.0  0.21491  0.00854  0.81047  1.0000
  H   H49       1.0  0.29361  0.24377  0.67134  1.0000
  S   S13       1.0  0.39490  0.25029  0.75659  1.0000
  Fe  Fe6       1.0  0.36895  0.22227  0.54956  1.0000
  S   S14       1.0  0.36018  0.19120  0.59829  1.0000
  C   C33       1.0  0.29335  0.10921  0.96660  1.0000
  H   H50       1.0  0.26354  0.07951  0.88251  1.0000
  Fe  Fe7       1.0  0.39341  0.22057  0.80406  1.0000
  S   S15       1.0  0.41950  0.19408  0.80529  1.0000
  C   C34       1.0  0.27402  0.13016  0.92016  1.0000
  Fe  Fe8       1.0  0.37528  0.20760  0.88396  1.0000
  S   S16       1.0  0.40054  0.18098  0.89139  1.0000
  S   S17       1.0  0.34796  0.21427  0.92869  1.0000
  Fe  Fe9       1.0  0.43896  0.21885  0.85870  1.0000
  S   S18       1.0  0.48911  0.23586  0.87638  1.0000
  Fe  Fe10      1.0  0.37842  0.15864  0.83776  1.0000
  S   S19       1.0  0.35906  0.10643  0.83687  1.0000
  H   H51       1.0  0.26395  0.03118  0.69723  1.0000
  S   S20       1.0  0.35053  0.18306  0.83206  1.0000
  C   C35       1.0  0.26813  0.07895  0.91219  1.0000
  C   C36       1.0  0.30623  0.04915  0.84247  1.0000
  C   C37       1.0  0.31869  0.08004  0.83050  1.0000
  C   C38       1.0  0.29894  0.08902  0.81338  1.0000
  H   H52       1.0  0.32143  0.04212  0.85577  1.0000
  H   H53       1.0  0.30843  0.11273  0.80375  1.0000
  H   H54       1.0  0.42491  0.24197  0.59168  1.0000
  H   H55       1.0  0.31671  0.12660  0.87875  1.0000
  H   H56       1.0  0.29244  0.23159  0.60424  1.0000
  H   H57       1.0  0.33527  0.14920  0.91888  1.0000
  C   C39       1.0  0.35003  0.20292  0.97370  1.0000
  H   H58       1.0  0.38070  0.18498  0.96161  1.0000
  H   H59       1.0  0.27078  0.13241  0.89044  1.0000
  C   C40       1.0  0.36950  0.20772  0.64229  1.0000
  C   C41       1.0  0.36373  0.18830  0.67256  1.0000
  C   C42       1.0  0.37183  0.20111  0.70788  1.0000
  C   C43       1.0  0.38551  0.23338  0.71296  1.0000
  H   H60       1.0  0.25064  0.12001  0.93318  1.0000
  C   C44       1.0  0.38367  0.24001  0.64745  1.0000
  H   H61       1.0  0.35297  0.16328  0.66871  1.0000
  H   H62       1.0  0.36717  0.18602  0.73120  1.0000
  H   H63       1.0  0.41916  0.24297  0.94729  1.0000
  C   C45       1.0  0.36802  0.18913  0.98249  1.0000
  H   H64       1.0  0.28253  0.24214  0.52765  1.0000
  C   C46       1.0  0.27423  0.02729  0.83743  1.0000
  S   S21       1.0  0.41554  0.24762  0.85562  1.0000
  H   H65       1.0  0.30840  0.13296  0.97858  1.0000
  H   H66       1.0  0.42679  0.21004  0.64428  1.0000
  H   H67       1.0  0.26572  0.02966  0.74600  1.0000
  H   H68       1.0  0.43580  0.20960  0.98132  1.0000
  N   N3        1.0  0.28868  0.11080  0.92694  1.0000
  H   H69       1.0  0.27066  0.09832  0.98128  1.0000
  C   C47       1.0  0.31936  0.12507  0.90869  1.0000
  H   H70       1.0  0.27904  0.06406  0.91557  1.0000
  H   H71       1.0  0.24496  0.06705  0.92585  1.0000
  H   H72       1.0  0.09254  0.20943  0.54076  1.0000
  H   H73       1.0  0.33405  0.25400  0.67439  1.0000
  H   H74       1.0  0.30502  0.09536  0.97266  1.0000
  C   C48       1.0  0.45281  0.22474  0.64322  1.0000
  H   H75       1.0  0.42550  0.19366  0.58105  1.0000
  C   C49       1.0  0.45170  0.20750  0.58144  1.0000
  C   C50       1.0  0.31734  0.25084  0.60401  1.0000
  H   H76       1.0  0.47102  0.22583  0.95509  1.0000
  H   H77       1.0  0.42168  0.24477  0.01422  1.0000
  C   C51       1.0  0.45097  0.25517  0.59275  1.0000
  H   H78       1.0  0.45937  0.21441  0.55288  1.0000
  H   H79       1.0  0.12889  0.21077  0.55311  1.0000
  N   N4        1.0  0.46346  0.23516  0.60561  1.0000
  H   H80       1.0  0.11215  0.16173  0.51838  1.0000
  H   H81       1.0  0.22850  0.22838  0.54524  1.0000
  H   H82       1.0  0.50849  0.23862  0.61376  1.0000
  H   H83       1.0  0.33225  0.24033  0.61010  1.0000
  C   C52       1.0  0.46038  0.22936  0.98004  1.0000
  H   H84       1.0  0.46042  0.19168  0.59043  1.0000
  H   H85       1.0  0.47334  0.22750  0.00405  1.0000
  C   C53       1.0  0.24561  0.25237  0.53902  1.0000
  H   H86       1.0  0.45982  0.24491  0.66204  1.0000
  C   C54       1.0  0.11690  0.21724  0.53181  1.0000
  H   H87       1.0  0.12942  0.24314  0.53108  1.0000
  H   H88       1.0  0.38871  0.25519  0.62440  1.0000
  H   H89       1.0  0.29980  0.00873  0.69570  1.0000
  H   H90       1.0  0.05863  0.25589  0.78058  1.0000
  C   C55       1.0  0.49816  0.25313  0.60498  1.0000
  H   H91       1.0  0.22839  0.01145  0.72324  1.0000
  S   S22       1.0  0.16300  0.29998  0.49053  1.0000
  S   S23       1.0  0.25755  0.41103  0.16355  1.0000
  H   H92       1.0  0.27617  0.50217  0.30788  1.0000
  C   C56       1.0  0.24104  0.28879  0.17193  1.0000
  H   H93       1.0  0.23373  0.33602  0.12297  1.0000
  H   H94       1.0  0.25459  0.41041  0.02779  1.0000
  C   C57       1.0  0.23029  0.46721  0.14621  1.0000
  H   H95       1.0  0.25345  0.43270  0.31788  1.0000
  H   H96       1.0  0.21211  0.41958  0.31606  1.0000
  C   C58       1.0  0.16765  0.38520  0.04534  1.0000
  H   H97       1.0  0.15454  0.34080  0.42062  1.0000
  H   H98       1.0  0.22395  0.29549  0.17892  1.0000
  C   C59       1.0  0.19158  0.31524  0.06811  1.0000
  H   H99       1.0  0.44627  0.26016  0.44348  1.0000
  H   H100      1.0  0.46690  0.32410  0.37804  1.0000
  H   H101      1.0  0.20607  0.27869  0.10666  1.0000
  H   H102      1.0  0.47276  0.28942  0.33372  1.0000
  H   H103      1.0  0.25940  0.32591  0.03150  1.0000
  N   N5        1.0  0.29402  0.26549  0.27059  1.0000
  C   C60       1.0  0.31927  0.27590  0.24346  1.0000
  C   C61       1.0  0.23141  0.25713  0.16555  1.0000
  C   C62       1.0  0.23617  0.32462  0.03199  1.0000
  H   H104      1.0  0.13698  0.32404  0.35664  1.0000
  H   H105      1.0  0.17785  0.46626  0.12422  1.0000
  H   H106      1.0  0.19259  0.48583  0.08151  1.0000
  H   H107      1.0  0.21308  0.46188  0.16834  1.0000
  C   C63       1.0  0.25039  0.49279  0.08880  1.0000
  C   C64       1.0  0.04503  0.27287  0.50173  1.0000
  N   N6        1.0  0.22779  0.48724  0.11806  1.0000
  S   S24       1.0  0.21612  0.38330  0.45122  1.0000
  N   N7        1.0  0.22232  0.31667  0.06873  1.0000
  S   S25       1.0  0.20307  0.40663  0.21876  1.0000
  Fe  Fe11      1.0  0.20412  0.36586  0.24427  1.0000
  Fe  Fe12      1.0  0.20501  0.38546  0.16546  1.0000
  S   S26       1.0  0.17352  0.38421  0.11950  1.0000
  C   C65       1.0  0.18808  0.39067  0.07492  1.0000
  C   C66       1.0  0.21962  0.40062  0.06850  1.0000
  S   S27       1.0  0.17038  0.33903  0.28924  1.0000
  C   C67       1.0  0.20347  0.36810  0.40706  1.0000
  C   C68       1.0  0.22543  0.37759  0.37900  1.0000
  C   C69       1.0  0.21555  0.36791  0.34293  1.0000
  C   C70       1.0  0.18361  0.34912  0.33464  1.0000
  C   C71       1.0  0.03204  0.31205  0.48226  1.0000
  H   H108      1.0  0.22685  0.47505  0.23542  1.0000
  H   H109      1.0  0.20321  0.26731  0.05976  1.0000
  H   H110      1.0  0.23263  0.37509  0.32157  1.0000
  N   N8        1.0  0.46345  0.28001  0.39089  1.0000
  S   S28       1.0  0.20100  0.34222  0.19071  1.0000
  C   C72       1.0  0.49172  0.26210  0.49964  1.0000
  H   H111      1.0  0.29768  0.31063  0.27433  1.0000
  C   C73       1.0  0.24440  0.49930  0.23166  1.0000
  C   C74       1.0  0.23600  0.44050  0.31378  1.0000
  C   C75       1.0  0.24364  0.34087  0.09505  1.0000
  S   S29       1.0  0.28843  0.48027  0.23250  1.0000
  H   H112      1.0  0.23567  0.40561  0.09104  1.0000
  Fe  Fe13      1.0  0.18658  0.35191  0.49668  1.0000
  N   N9        1.0  0.24096  0.46509  0.34029  1.0000
  S   S30       1.0  0.47263  0.30599  0.50085  1.0000
  C   C76       1.0  0.16172  0.33878  0.36288  1.0000
  S   S31       1.0  0.28609  0.35151  0.17702  1.0000
  C   C77       1.0  0.49702  0.29465  0.40135  1.0000
  H   H113      1.0  0.25015  0.39241  0.38524  1.0000
  H   H114      1.0  0.22042  0.49331  0.35326  1.0000
  H   H115      1.0  0.50118  0.30374  0.42983  1.0000
  H   H116      1.0  0.23979  0.34770  0.02280  1.0000
  C   C78       1.0  0.23755  0.45273  0.37773  1.0000
  C   C79       1.0  0.17162  0.34816  0.39908  1.0000
  Fe  Fe14      1.0  0.42043  0.27212  0.50353  1.0000
  C   C80       1.0  0.21743  0.47480  0.33366  1.0000
  H   H117      1.0  0.50560  0.27770  0.39975  1.0000
  Fe  Fe15      1.0  0.25364  0.36942  0.19318  1.0000
  Fe  Fe16      1.0  0.25543  0.42936  0.21871  1.0000
  H   H118      1.0  0.34276  0.28554  0.25683  1.0000
  S   S32       1.0  0.25669  0.39025  0.24858  1.0000
  H   H119      1.0  0.22547  0.44451  0.13448  1.0000
  C   C81       1.0  0.19553  0.47136  0.10269  1.0000
  S   S33       1.0  0.38641  0.27247  0.46248  1.0000
  C   C82       1.0  0.05454  0.30325  0.49012  1.0000
  H   H120      1.0  0.03959  0.33546  0.47267  1.0000
  C   C83       1.0  0.29472  0.30249  0.16063  1.0000
  C   C84       1.0  0.28522  0.27082  0.15517  1.0000
  H   H121      1.0  0.14324  0.37775  0.05019  1.0000
  H   H122      1.0  0.21399  0.43167  0.38177  1.0000
  H   H123      1.0  0.18944  0.44854  0.08988  1.0000
  H   H124      1.0  0.31929  0.32004  0.15833  1.0000
  H   H125      1.0  0.24079  0.28659  0.08267  1.0000
  H   H126      1.0  0.19369  0.33734  0.05782  1.0000
  H   H127      1.0  0.19309  0.45473  0.33647  1.0000
  Fe  Fe17      1.0  0.35745  0.26996  0.51074  1.0000
  H   H128      1.0  0.26140  0.26835  0.23389  1.0000
  C   C85       1.0  0.27278  0.31156  0.16944  1.0000
  C   C86       1.0  0.27286  0.49229  0.33587  1.0000
  H   H129      1.0  0.26684  0.34211  0.09696  1.0000
  H   H130      1.0  0.17439  0.29612  0.04999  1.0000
  H   H131      1.0  0.24552  0.47038  0.07580  1.0000
  C   C87       1.0  0.29847  0.29272  0.29212  1.0000
  C   C88       1.0  0.21792  0.28598  0.07985  1.0000
  C   C89       1.0  0.23031  0.40344  0.03267  1.0000
  H   H132      1.0  0.07921  0.31981  0.48638  1.0000
  H   H133      1.0  0.30239  0.26412  0.14862  1.0000
  H   H134      1.0  0.27982  0.28575  0.31289  1.0000
  S   S34       1.0  0.33863  0.30315  0.51522  1.0000
  H   H135      1.0  0.24054  0.47040  0.39857  1.0000
  H   H136      1.0  0.23858  0.44906  0.28533  1.0000
  H   H137      1.0  0.18131  0.31131  0.09586  1.0000
  H   H138      1.0  0.25528  0.44564  0.38395  1.0000
  C   C90       1.0  0.45302  0.30313  0.39526  1.0000
  H   H139      1.0  0.32004  0.29438  0.22548  1.0000
  H   H140      1.0  0.24815  0.36445  0.08724  1.0000
  H   H141      1.0  0.45580  0.31141  0.42407  1.0000
  H   H142      1.0  0.38377  0.26598  0.32469  1.0000
  C   C91       1.0  0.50041  0.29350  0.50439  1.0000
  H   H143      1.0  0.42786  0.29305  0.38754  1.0000
  H   H144      1.0  0.21949  0.48442  0.30571  1.0000
  C   C92       1.0  0.45915  0.26948  0.35247  1.0000
  H   H145      1.0  0.29120  0.48568  0.34020  1.0000
  H   H146      1.0  0.45883  0.26200  0.03770  1.0000
  S   S35       1.0  0.07256  0.26061  0.50991  1.0000
  H   H147      1.0  0.25420  0.47848  0.15883  1.0000
  H   H148      1.0  0.32156  0.30428  0.30669  1.0000
  H   H149      1.0  0.27493  0.50450  0.09967  1.0000
  H   H150      1.0  0.43403  0.25810  0.34379  1.0000
  S   S36       1.0  0.14174  0.29614  0.57586  1.0000
  H   H151      1.0  0.23929  0.47145  0.80268  1.0000
  C   C93       1.0  0.27624  0.26014  0.52915  1.0000
  H   H152      1.0  0.30379  0.30533  0.64303  1.0000
  C   C94       1.0  0.11368  0.29745  0.74942  1.0000
  C   C95       1.0  0.24761  0.46836  0.71131  1.0000
  H   H153      1.0  0.50825  0.28539  0.00234  1.0000
  C   C96       1.0  0.05665  0.32750  0.87098  1.0000
  C   C97       1.0  0.06530  0.30689  0.88602  1.0000
  C   C98       1.0  0.04399  0.27453  0.88530  1.0000
  C   C99       1.0  0.02679  0.31563  0.85500  1.0000
  H   H154      1.0  0.08816  0.31594  0.89881  1.0000
  H   H155      1.0  0.22954  0.44328  0.70716  1.0000
  H   H156      1.0  0.50776  0.27400  0.62318  1.0000
  H   H157      1.0  0.37297  0.29421  0.63274  1.0000
  H   H158      1.0  0.01910  0.30966  0.64386  1.0000
  N   N10       1.0  0.10053  0.30114  0.78387  1.0000
  C   C100      1.0  0.25923  0.30640  0.53256  1.0000
  H   H159      1.0  0.05538  0.28392  0.80823  1.0000
  H   H160      1.0  0.09915  0.33777  0.81396  1.0000
  H   H161      1.0  0.19365  0.34601  0.65241  1.0000
  C   C101      1.0  0.35573  0.30192  0.62676  1.0000
  C   C102      1.0  0.50773  0.29868  0.87593  1.0000
  C   C103      1.0  0.10890  0.33413  0.78842  1.0000
  H   H162      1.0  0.20875  0.34309  0.71662  1.0000
  N   N11       1.0  0.24235  0.48093  0.74540  1.0000
  H   H163      1.0  0.10780  0.26720  0.81240  1.0000
  H   H164      1.0  0.49658  0.30866  0.97601  1.0000
  H   H165      1.0  0.10592  0.30597  0.72560  1.0000
  H   H166      1.0  0.10446  0.29469  0.84125  1.0000
  C   C104      1.0  0.49468  0.28529  0.97783  1.0000
  H   H167      1.0  0.02375  0.28317  0.61465  1.0000
  C   C105      1.0  0.24351  0.46268  0.77667  1.0000
  S   S37       1.0  0.16015  0.36081  0.87762  1.0000
  S   S38       1.0  0.16166  0.37665  0.62071  1.0000
  H   H168      1.0  0.24658  0.48135  0.68703  1.0000
  Fe  Fe18      1.0  0.19558  0.40160  0.91137  1.0000
  S   S39       1.0  0.16804  0.42665  0.91155  1.0000
  S   S40       1.0  0.22332  0.39825  0.95880  1.0000
  Fe  Fe19      1.0  0.18734  0.38941  0.82958  1.0000
  S   S41       1.0  0.15961  0.41366  0.82312  1.0000
  S   S42       1.0  0.19913  0.36663  0.78377  1.0000
  Fe  Fe20      1.0  0.19507  0.45006  0.86108  1.0000
  H   H169      1.0  0.32267  0.28160  0.68844  1.0000
  Fe  Fe21      1.0  0.13488  0.38796  0.87369  1.0000
  S   S43       1.0  0.22508  0.42788  0.86346  1.0000
  H   H170      1.0  0.16243  0.38358  0.98665  1.0000
  C   C106      1.0  0.20969  0.39706  0.00308  1.0000
  C   C107      1.0  0.17845  0.38850  0.00941  1.0000
  H   H171      1.0  0.40234  0.27780  0.68661  1.0000
  C   C108      1.0  0.17238  0.37356  0.66569  1.0000
  C   C109      1.0  0.16522  0.38810  0.69377  1.0000
  C   C110      1.0  0.17353  0.38630  0.73002  1.0000
  C   C111      1.0  0.18939  0.37024  0.73838  1.0000
  H   H172      1.0  0.45844  0.27582  0.61088  1.0000
  H   H173      1.0  0.15303  0.40066  0.68739  1.0000
  H   H174      1.0  0.16754  0.39727  0.75135  1.0000
  C   C112      1.0  0.06598  0.28111  0.78294  1.0000
  H   H175      1.0  0.27094  0.46985  0.71164  1.0000
  H   H176      1.0  0.25291  0.32441  0.53382  1.0000
  S   S44       1.0  0.21023  0.35357  0.55023  1.0000
  S   S45       1.0  0.08237  0.36814  0.87189  1.0000
  C   C113      1.0  0.23707  0.27551  0.54093  1.0000
  H   H177      1.0  0.05537  0.28715  0.75967  1.0000
  H   H178      1.0  0.09997  0.34224  0.76536  1.0000
  C   C114      1.0  0.11368  0.29200  0.81478  1.0000
  C   C115      1.0  0.30119  0.28750  0.62264  1.0000
  H   H179      1.0  0.10662  0.27260  0.74425  1.0000
  C   C116      1.0  0.19658  0.35568  0.71030  1.0000
  C   C117      1.0  0.18798  0.35721  0.67400  1.0000
  Fe  Fe22      1.0  0.16626  0.34845  0.57511  1.0000
  H   H180      1.0  0.36026  0.31161  0.59855  1.0000
  H   H181      1.0  0.36078  0.32146  0.64580  1.0000
  H   H182      1.0  0.48353  0.29175  0.87021  1.0000
  N   N12       1.0  0.32308  0.27587  0.63032  1.0000
  H   H183      1.0  0.44558  0.28429  0.94455  1.0000
  H   H184      1.0  0.13980  0.31100  0.75014  1.0000
  H   H185      1.0  0.20953  0.49228  0.72062  1.0000
  H   H186      1.0  0.02005  0.33153  0.84325  1.0000
  H   H187      1.0  0.13979  0.30682  0.81620  1.0000
  C   C118      1.0  0.28998  0.31427  0.52348  1.0000
  C   C119      1.0  0.44443  0.26129  0.94678  1.0000
  Fe  Fe23      1.0  0.18352  0.30109  0.54569  1.0000
  H   H188      1.0  0.22068  0.30695  0.01133  1.0000
  S   S46       1.0  0.21100  0.50045  0.84763  1.0000
  H   H189      1.0  0.19204  0.45396  0.74024  1.0000
  C   C120      1.0  0.01410  0.26268  0.86930  1.0000
  H   H190      1.0  0.26717  0.49699  0.86377  1.0000
  H   H191      1.0  0.22542  0.43749  0.77408  1.0000
  C   C121      1.0  0.29873  0.29130  0.52206  1.0000
  Fe  Fe24      1.0  0.12290  0.29851  0.52078  1.0000
  H   H192      1.0  0.26675  0.46413  0.77920  1.0000
  H   H193      1.0  0.50697  0.26177  0.57709  1.0000
  H   H194      1.0  0.32270  0.26001  0.57576  1.0000
  S   S47       1.0  0.39394  0.27459  0.55152  1.0000
  H   H195      1.0  0.13474  0.34972  0.79000  1.0000
  S   S48       1.0  0.19900  0.26543  0.55514  1.0000
  H   H196      1.0  0.30558  0.29881  0.59545  1.0000
  H   H197      1.0  0.44751  0.28626  0.01286  1.0000
  H   H198      1.0  0.20643  0.48768  0.76925  1.0000
  H   H199      1.0  0.50665  0.28276  0.95357  1.0000
  C   C122      1.0  0.21123  0.47861  0.74375  1.0000
  H   H200      1.0  0.05058  0.25863  0.89738  1.0000
  H   H201      1.0  0.30721  0.33841  0.51802  1.0000
  C   C123      1.0  0.44681  0.26341  0.01250  1.0000
  C   C124      1.0  0.31812  0.26328  0.66776  1.0000
  H   H202      1.0  0.27625  0.26828  0.62271  1.0000
  H   H203      1.0  0.45914  0.26411  0.56484  1.0000
  S   S49       1.0  0.14449  0.35067  0.52169  1.0000
  N   N13       1.0  0.46157  0.25984  0.97934  1.0000
  H   H204      1.0  0.45443  0.25769  0.92147  1.0000
  H   H205      1.0  0.18063  0.75178  0.29943  1.0000
  S   S50       1.0  0.27581  0.67137  0.23576  1.0000
  H   H206      1.0  0.44496  0.74779  0.35690  1.0000
  H   H207      1.0  0.23417  0.53359  0.11411  1.0000
  C   C125      1.0  0.37044  0.74646  0.35144  1.0000
  H   H208      1.0  0.49930  0.74187  0.39312  1.0000
  S   S51       1.0  0.36419  0.67999  0.11370  1.0000
  S   S52       1.0  0.35942  0.69739  0.44434  1.0000
  C   C126      1.0  0.23496  0.51742  0.13463  1.0000
  H   H209      1.0  0.46145  0.72296  0.46321  1.0000
  H   H210      1.0  0.30741  0.72805  0.11215  1.0000
  H   H211      1.0  0.25875  0.52955  0.14768  1.0000
  H   H212      1.0  0.21083  0.51523  0.23203  1.0000
  C   C127      1.0  0.44034  0.72861  0.37623  1.0000
  Fe  Fe25      1.0  0.38114  0.73351  0.48932  1.0000
  C   C128      1.0  0.23535  0.52209  0.22983  1.0000
  C   C129      1.0  0.32787  0.68365  0.05828  1.0000
  H   H213      1.0  0.42306  0.75048  0.43356  1.0000
  H   H214      1.0  0.45502  0.69746  0.42517  1.0000
  C   C130      1.0  0.44897  0.71460  0.43654  1.0000
  H   H215      1.0  0.42327  0.70172  0.44215  1.0000
  C   C131      1.0  0.32308  0.69022  0.02224  1.0000
  S   S53       1.0  0.25042  0.71031  0.15736  1.0000
  Fe  Fe26      1.0  0.27959  0.63236  0.20868  1.0000
  H   H216      1.0  0.21146  0.73696  0.25899  1.0000
  C   C132      1.0  0.28946  0.56247  0.22202  1.0000
  C   C133      1.0  0.29858  0.53974  0.22463  1.0000
  H   H217      1.0  0.30696  0.58677  0.21818  1.0000
  H   H218      1.0  0.32318  0.54675  0.22291  1.0000
  H   H219      1.0  0.33262  0.65979  0.38033  1.0000
  S   S54       1.0  0.33230  0.65685  0.21335  1.0000
  S   S55       1.0  0.27884  0.64933  0.15199  1.0000
  C   C134      1.0  0.25780  0.55372  0.22467  1.0000
  S   S56       1.0  0.24517  0.58126  0.22072  1.0000
  H   H220      1.0  0.44709  0.71274  0.36270  1.0000
  H   H221      1.0  0.33199  0.67312  0.31511  1.0000
  Fe  Fe27      1.0  0.33114  0.67628  0.15817  1.0000
  H   H222      1.0  0.30405  0.72768  0.06349  1.0000
  Fe  Fe28      1.0  0.32858  0.69723  0.23593  1.0000
  C   C135      1.0  0.37025  0.73896  0.38843  1.0000
  H   H223      1.0  0.21784  0.51412  0.15619  1.0000
  Fe  Fe29      1.0  0.28001  0.69057  0.17940  1.0000
  S   S57       1.0  0.33241  0.71886  0.18097  1.0000
  C   C136      1.0  0.34261  0.69150  0.33545  1.0000
  C   C137      1.0  0.34297  0.68402  0.37238  1.0000
  C   C138      1.0  0.35632  0.68569  0.06836  1.0000
  N   N14       1.0  0.45739  0.74087  0.41124  1.0000
  H   H224      1.0  0.30980  0.67748  0.07837  1.0000
  C   C139      1.0  0.35690  0.70769  0.39893  1.0000
  C   C140      1.0  0.37943  0.69323  0.04200  1.0000
  C   C141      1.0  0.35666  0.72278  0.32486  1.0000
  S   S58       1.0  0.35863  0.73325  0.27868  1.0000
  H   H225      1.0  0.41450  0.71497  0.38030  1.0000
  H   H226      1.0  0.40145  0.69476  0.04968  1.0000
  H   H227      1.0  0.27757  0.51135  0.35549  1.0000
  H   H228      1.0  0.36327  0.74861  0.05942  1.0000
  H   H229      1.0  0.36317  0.74622  0.10817  1.0000
  C   C142      1.0  0.30944  0.74266  0.08813  1.0000
  H   H230      1.0  0.17398  0.75122  0.23209  1.0000
  H   H231      1.0  0.29062  0.74877  0.09068  1.0000
  H   H232      1.0  0.22480  0.74863  0.13519  1.0000
  C   C143      1.0  0.26342  0.75013  0.16517  1.0000
  C   C144      1.0  0.27608  0.50808  0.22910  1.0000
  H   H233      1.0  0.30778  0.59126  0.02016  1.0000
  H   H234      1.0  0.24920  0.50782  0.06700  1.0000
  C   C145      1.0  0.25100  0.52908  0.85073  1.0000
  H   H235      1.0  0.24245  0.56675  0.83798  1.0000
  H   H236      1.0  0.34121  0.58093  0.97809  1.0000
  C   C146      1.0  0.30707  0.73059  0.68100  1.0000
  Fe  Fe30      1.0  0.37178  0.65549  0.85945  1.0000
  S   S59       1.0  0.35503  0.60390  0.85453  1.0000
  C   C147      1.0  0.27391  0.52103  0.85840  1.0000
  C   C148      1.0  0.29199  0.58372  0.84517  1.0000
  C   C149      1.0  0.31490  0.57560  0.85250  1.0000
  C   C150      1.0  0.30578  0.54421  0.85895  1.0000
  H   H237      1.0  0.29883  0.60782  0.83984  1.0000
  H   H238      1.0  0.32346  0.53785  0.86472  1.0000
  H   H239      1.0  0.01716  0.73811  0.52380  1.0000
  H   H240      1.0  0.33097  0.63186  0.00914  1.0000
  H   H241      1.0  0.34112  0.73411  0.62308  1.0000
  H   H242      1.0  0.29081  0.51673  0.75224  1.0000
  C   C151      1.0  0.28518  0.57074  0.95264  1.0000
  H   H243      1.0  0.30037  0.71171  0.61053  1.0000
  H   H244      1.0  0.24959  0.73542  0.52637  1.0000
  H   H245      1.0  0.26710  0.52859  0.72686  1.0000
  S   S60       1.0  0.34359  0.67970  0.85597  1.0000
  N   N15       1.0  0.31289  0.60110  0.96267  1.0000
  S   S61       1.0  0.40923  0.74479  0.87750  1.0000
  H   H246      1.0  0.28304  0.55160  0.97052  1.0000
  S   S62       1.0  0.39568  0.67797  0.91239  1.0000
  S   S63       1.0  0.34056  0.70815  0.95177  1.0000
  H   H247      1.0  0.28670  0.56405  0.92408  1.0000
  H   H248      1.0  0.28741  0.70618  0.67707  1.0000
  H   H249      1.0  0.38052  0.67405  0.68724  1.0000
  H   H250      1.0  0.30679  0.75429  0.52812  1.0000
  C   C152      1.0  0.34167  0.59895  0.95955  1.0000
  C   C153      1.0  0.26012  0.56045  0.84412  1.0000
  H   H251      1.0  0.29340  0.62758  0.93866  1.0000
  S   S64       1.0  0.38940  0.70486  0.61878  1.0000
  H   H252      1.0  0.39288  0.70618  0.98609  1.0000
  Fe  Fe31      1.0  0.38514  0.71768  0.82658  1.0000
  H   H253      1.0  0.37830  0.69006  0.75073  1.0000
  S   S65       1.0  0.42071  0.73442  0.52132  1.0000
  Fe  Fe32      1.0  0.43265  0.71590  0.87808  1.0000
  S   S66       1.0  0.48427  0.73288  0.88608  1.0000
  H   H254      1.0  0.26341  0.52427  0.77542  1.0000
  Fe  Fe33      1.0  0.39517  0.73588  0.57090  1.0000
  C   C154      1.0  0.38401  0.69712  0.69260  1.0000
  H   H255      1.0  0.34460  0.59265  0.93129  1.0000
  C   C155      1.0  0.38933  0.71757  0.66354  1.0000
  H   H256      1.0  0.26306  0.57156  0.95452  1.0000
  Fe  Fe34      1.0  0.36996  0.70455  0.90709  1.0000
  H   H257      1.0  0.33500  0.64875  0.94524  1.0000
  H   H258      1.0  0.36308  0.62166  0.96638  1.0000
  C   C156      1.0  0.34657  0.69858  0.99616  1.0000
  H   H259      1.0  0.28919  0.61244  0.00366  1.0000
  C   C157      1.0  0.30998  0.60941  0.00057  1.0000
  H   H260      1.0  0.26277  0.72634  0.63319  1.0000
  C   C158      1.0  0.31487  0.62550  0.93779  1.0000
  C   C159      1.0  0.26701  0.51407  0.75010  1.0000
  C   C160      1.0  0.38280  0.70617  0.72855  1.0000
  S   S67       1.0  0.41100  0.69110  0.82535  1.0000
  C   C161      1.0  0.38666  0.73566  0.73552  1.0000
  H   H261      1.0  0.32838  0.72914  0.68796  1.0000
  H   H262      1.0  0.31824  0.62068  0.90909  1.0000
  H   H263      1.0  0.30120  0.68899  0.01458  1.0000
  H   H264      1.0  0.30168  0.74064  0.70512  1.0000
  C   C162      1.0  0.37457  0.69962  0.00597  1.0000
  S   S68       1.0  0.35344  0.73015  0.53905  1.0000
  H   H265      1.0  0.44376  0.74594  0.77989  1.0000
  C   C163      1.0  0.39398  0.74740  0.67063  1.0000
  C   C164      1.0  0.31975  0.73574  0.61716  1.0000
  H   H266      1.0  0.32449  0.75016  0.59225  1.0000
  S   S69       1.0  0.38441  0.74739  0.78004  1.0000
  C   C165      1.0  0.28277  0.75021  0.63918  1.0000
  N   N16       1.0  0.31184  0.74960  0.64800  1.0000
  H   H267      1.0  0.47821  0.74324  0.77185  1.0000
  H   H268      1.0  0.47220  0.75505  0.81579  1.0000
  Fe  Fe35      1.0  0.19817  0.84640  0.48207  1.0000
  S   S70       1.0  0.17145  0.79392  0.48190  1.0000
  S   S71       1.0  0.22832  0.87618  0.43567  1.0000
  H   H269      1.0  0.29585  0.80130  0.43144  1.0000
  H   H270      1.0  0.18872  0.79142  0.30046  1.0000
  H   H271      1.0  0.23614  0.97947  0.21667  1.0000
  C   C166      1.0  0.19970  0.77659  0.29725  1.0000
  S   S72       1.0  0.21312  0.84301  0.17734  1.0000
  C   C167      1.0  0.05695  0.77715  0.49883  1.0000
  C   C168      1.0  0.36520  0.76164  0.08492  1.0000
  S   S73       1.0  0.20979  0.90715  0.18978  1.0000
  H   H272      1.0  0.25351  0.82129  0.23404  1.0000
  Fe  Fe36      1.0  0.21431  0.87221  0.22488  1.0000
  S   S74       1.0  0.18207  0.84445  0.27098  1.0000
  Fe  Fe37      1.0  0.21345  0.88047  0.14234  1.0000
  S   S75       1.0  0.17958  0.87101  0.09539  1.0000
  C   C169      1.0  0.24617  0.76323  0.15055  1.0000
  H   H273      1.0  0.38122  0.77069  0.34332  1.0000
  C   C170      1.0  0.19368  0.88317  0.05098  1.0000
  H   H274      1.0  0.24343  0.80522  0.14347  1.0000
  H   H275      1.0  0.49867  0.77756  0.38597  1.0000
  H   H276      1.0  0.24126  0.89515  0.06341  1.0000
  H   H277      1.0  0.05311  0.83353  0.44940  1.0000
  C   C171      1.0  0.21511  0.86676  0.39010  1.0000
  C   C172      1.0  0.23498  0.88498  0.36198  1.0000
  C   C173      1.0  0.22515  0.87833  0.32534  1.0000
  C   C174      1.0  0.19529  0.85343  0.31663  1.0000
  C   C175      1.0  0.17557  0.83492  0.34474  1.0000
  C   C176      1.0  0.18546  0.84149  0.38140  1.0000
  C   C177      1.0  0.22791  0.97482  0.05227  1.0000
  H   H278      1.0  0.15240  0.81566  0.33816  1.0000
  H   H279      1.0  0.16995  0.82735  0.40290  1.0000
  H   H280      1.0  0.24046  0.89281  0.30394  1.0000
  H   H281      1.0  0.26613  0.97617  0.10626  1.0000
  C   C178      1.0  0.22522  0.89459  0.04269  1.0000
  H   H282      1.0  0.14856  0.87335  0.02993  1.0000
  H   H283      1.0  0.24715  0.76648  0.28051  1.0000
  H   H284      1.0  0.21478  0.98413  0.03692  1.0000
  H   H285      1.0  0.17990  0.92961  0.08914  1.0000
  H   H286      1.0  0.27847  0.87271  0.47032  1.0000
  S   S76       1.0  0.26688  0.90053  0.22839  1.0000
  H   H287      1.0  0.34508  0.77793  0.14427  1.0000
  S   S77       1.0  0.16024  0.85055  0.51061  1.0000
  H   H288      1.0  0.23278  0.93739  0.10185  1.0000
  C   C179      1.0  0.24042  0.96164  0.11097  1.0000
  C   C180      1.0  0.30206  0.82031  0.45174  1.0000
  H   H289      1.0  0.33871  0.77431  0.02797  1.0000
  C   C181      1.0  0.25050  0.00302  0.20660  1.0000
  C   C182      1.0  0.34629  0.79065  0.11875  1.0000
  C   C183      1.0  0.29236  0.86071  0.47364  1.0000
  S   S78       1.0  0.40411  0.78575  0.48508  1.0000
  C   C184      1.0  0.25663  0.79522  0.15530  1.0000
  H   H290      1.0  0.25791  0.90462  0.36857  1.0000
  H   H291      1.0  0.24228  0.76625  0.23206  1.0000
  C   C185      1.0  0.04531  0.81288  0.46601  1.0000
  H   H292      1.0  0.31760  0.87874  0.47129  1.0000
  N   N17       1.0  0.22256  0.97418  0.09191  1.0000
  C   C186      1.0  0.06710  0.80426  0.47817  1.0000
  H   H293      1.0  0.09158  0.81827  0.47102  1.0000
  H   H294      1.0  0.23186  0.83180  0.26392  1.0000
  H   H295      1.0  0.28858  0.85148  0.50188  1.0000
  H   H296      1.0  0.21617  0.78184  0.32067  1.0000
  H   H297      1.0  0.32469  0.79596  0.05320  1.0000
  H   H298      1.0  0.38070  0.75739  0.40865  1.0000
  H   H299      1.0  0.21997  0.95093  0.04143  1.0000
  Fe  Fe38      1.0  0.26547  0.87321  0.17879  1.0000
  H   H300      1.0  0.30408  0.75911  0.19713  1.0000
  H   H301      1.0  0.50510  0.76738  0.43088  1.0000
  H   H302      1.0  0.27387  0.86053  0.40465  1.0000
  N   N18       1.0  0.34092  0.77088  0.08623  1.0000
  H   H303      1.0  0.23423  0.82240  0.44602  1.0000
  H   H304      1.0  0.23700  0.96095  0.14091  1.0000
  C   C187      1.0  0.29094  0.76909  0.18511  1.0000
  C   C188      1.0  0.01349  0.79484  0.47509  1.0000
  C   C189      1.0  0.28466  0.81435  0.17429  1.0000
  C   C190      1.0  0.30170  0.80118  0.18928  1.0000
  C   C191      1.0  0.18873  0.95389  0.09929  1.0000
  H   H305      1.0  0.32328  0.81583  0.20428  1.0000
  H   H306      1.0  0.25326  0.98952  0.04582  1.0000
  H   H307      1.0  0.31298  0.86656  0.40498  1.0000
  S   S79       1.0  0.29399  0.98585  0.18761  1.0000
  S   S80       1.0  0.29927  0.85477  0.17930  1.0000
  H   H308      1.0  0.17442  0.96280  0.08585  1.0000
  H   H309      1.0  0.25929  0.82144  0.28234  1.0000
  H   H310      1.0  0.24452  0.80217  0.47888  1.0000
  H   H311      1.0  0.38930  0.78231  0.08596  1.0000
  C   C192      1.0  0.24128  0.81569  0.26060  1.0000
  H   H312      1.0  0.36974  0.81225  0.11835  1.0000
  H   H313      1.0  0.29836  0.80962  0.47922  1.0000
  H   H314      1.0  0.18399  0.95218  0.12908  1.0000
  H   H315      1.0  0.32832  0.79798  0.12064  1.0000
  H   H316      1.0  0.24158  0.79204  0.43155  1.0000
  S   S81       1.0  0.26597  0.90833  0.13949  1.0000
  C   C193      1.0  0.28790  0.84878  0.40934  1.0000
  C   C194      1.0  0.17302  0.88221  0.02365  1.0000
  C   C195      1.0  0.19334  0.77600  0.23192  1.0000
  C   C196      1.0  0.34271  0.78864  0.05304  1.0000
  N   N19       1.0  0.28294  0.83544  0.44638  1.0000
  H   H317      1.0  0.45351  0.78234  0.40872  1.0000
  H   H318      1.0  0.28074  0.83036  0.38805  1.0000
  H   H319      1.0  0.32761  0.83738  0.44937  1.0000
  H   H320      1.0  0.36616  0.81010  0.05069  1.0000
  H   H321      1.0  0.46151  0.77299  0.45336  1.0000
  Fe  Fe39      1.0  0.26247  0.93315  0.18900  1.0000
  C   C197      1.0  0.24938  0.81198  0.45086  1.0000
  H   H322      1.0  0.18248  0.79104  0.23389  1.0000
  Fe  Fe40      1.0  0.13579  0.79835  0.51523  1.0000
  S   S82       1.0  0.49289  0.82108  0.50914  1.0000
  N   N20       1.0  0.21604  0.78259  0.26205  1.0000
  H   H323      1.0  0.20488  0.78041  0.20491  1.0000
  C   C198      1.0  0.02513  0.75909  0.50775  1.0000
  C   C199      1.0  0.22980  0.76216  0.25836  1.0000
  C   C200      1.0  0.44851  0.76266  0.42738  1.0000
  H   H324      1.0  0.48805  0.76022  0.51696  1.0000
  S   S83       1.0  0.08326  0.76531  0.51471  1.0000
  C   C201      1.0  0.49161  0.75762  0.40497  1.0000
  Fe  Fe41      1.0  0.18498  0.85063  0.56254  1.0000
  S   S84       1.0  0.15855  0.79861  0.56868  1.0000
  S   S85       1.0  0.18528  0.88372  0.60550  1.0000
  H   H325      1.0  0.33290  0.79313  0.67767  1.0000
  H   H326      1.0  0.36025  0.78238  0.66053  1.0000
  H   H327      1.0  0.19016  0.81380  0.92840  1.0000
  Fe  Fe42      1.0  0.19801  0.91754  0.89148  1.0000
  S   S86       1.0  0.17252  0.94450  0.88730  1.0000
  S   S87       1.0  0.23002  0.91783  0.93624  1.0000
  Fe  Fe43      1.0  0.18271  0.89417  0.81305  1.0000
  S   S88       1.0  0.15595  0.91903  0.80189  1.0000
  S   S89       1.0  0.19359  0.86482  0.77535  1.0000
  Fe  Fe44      1.0  0.19509  0.95948  0.83251  1.0000
  H   H328      1.0  0.22628  0.80002  0.89733  1.0000
  Fe  Fe45      1.0  0.13525  0.90191  0.85721  1.0000
  S   S90       1.0  0.08359  0.88413  0.86584  1.0000
  S   S91       1.0  0.22351  0.93595  0.83890  1.0000
  S   S92       1.0  0.15901  0.87377  0.86618  1.0000
  C   C202      1.0  0.05681  0.84458  0.85544  1.0000
  C   C203      1.0  0.06701  0.82298  0.85151  1.0000
  C   C204      1.0  0.04514  0.79126  0.84526  1.0000
  H   H329      1.0  0.20069  0.84242  0.64648  1.0000
  H   H330      1.0  0.09168  0.83057  0.85393  1.0000
  H   H331      1.0  0.20403  0.83568  0.71331  1.0000
  C   C205      1.0  0.10073  0.80504  0.61694  1.0000
  C   C206      1.0  0.21542  0.90433  0.98010  1.0000
  C   C207      1.0  0.18384  0.89280  0.98826  1.0000
  H   H332      1.0  0.24752  0.87062  0.84116  1.0000
  H   H333      1.0  0.16777  0.89207  0.96738  1.0000
  C   C208      1.0  0.18563  0.87622  0.65237  1.0000
  C   C209      1.0  0.17770  0.89263  0.67717  1.0000
  C   C210      1.0  0.17951  0.88882  0.71487  1.0000
  C   C211      1.0  0.18933  0.86855  0.72809  1.0000
  C   C212      1.0  0.19656  0.85153  0.70327  1.0000
  C   C213      1.0  0.19459  0.85524  0.66544  1.0000
  H   H334      1.0  0.17031  0.90854  0.66713  1.0000
  H   H335      1.0  0.17343  0.90166  0.73367  1.0000
  H   H336      1.0  0.20319  0.81797  0.82792  1.0000
  C   C214      1.0  0.09790  0.83899  0.57162  1.0000
  H   H337      1.0  0.09799  0.78752  0.59595  1.0000
  C   C215      1.0  0.31934  0.79990  0.54891  1.0000
  H   H338      1.0  0.26492  0.00363  0.84698  1.0000
  H   H339      1.0  0.22262  0.85240  0.93776  1.0000
  N   N21       1.0  0.25365  0.98652  0.71878  1.0000
  C   C216      1.0  0.23682  0.86980  0.86801  1.0000
  C   C217      1.0  0.23787  0.96985  0.68469  1.0000
  H   H340      1.0  0.12634  0.82154  0.62097  1.0000
  H   H341      1.0  0.18860  0.84779  0.91439  1.0000
  N   N22       1.0  0.21843  0.83750  0.88178  1.0000
  Fe  Fe46      1.0  0.37961  0.78262  0.53762  1.0000
  S   S93       1.0  0.22540  0.85117  0.53371  1.0000
  C   C218      1.0  0.20431  0.83775  0.91709  1.0000
  H   H342      1.0  0.17713  0.82739  0.85047  1.0000
  C   C219      1.0  0.39242  0.75634  0.70655  1.0000
  H   H343      1.0  0.25859  0.83856  0.90686  1.0000
  N   N23       1.0  0.48604  0.79018  0.77433  1.0000
  H   H344      1.0  0.32425  0.84313  0.56892  1.0000
  H   H345      1.0  0.05318  0.77459  0.84303  1.0000
  H   H346      1.0  0.48916  0.77841  0.71872  1.0000
  H   H347      1.0  0.21242  0.96126  0.75144  1.0000
  H   H348      1.0  0.07546  0.85712  0.62694  1.0000
  H   H349      1.0  0.25586  0.88526  0.88750  1.0000
  H   H350      1.0  0.17900  0.79355  0.86433  1.0000
  H   H351      1.0  0.01754  0.78970  0.96613  1.0000
  H   H352      1.0  0.44826  0.79778  0.78935  1.0000
  N   N24       1.0  0.08416  0.82172  0.60567  1.0000
  C   C220      1.0  0.02463  0.83433  0.85220  1.0000
  H   H353      1.0  0.48612  0.83272  0.78709  1.0000
  H   H354      1.0  0.27581  0.76016  0.66202  1.0000
  H   H355      1.0  0.09148  0.79228  0.64296  1.0000
  H   H356      1.0  0.39577  0.77933  0.71197  1.0000
  C   C221      1.0  0.08759  0.84403  0.63462  1.0000
  H   H357      1.0  0.24955  0.98413  0.66021  1.0000
  Fe  Fe47      1.0  0.19648  0.79881  0.53517  1.0000
  H   H358      1.0  0.04749  0.78123  0.57833  1.0000
  H   H359      1.0  0.03919  0.78572  0.62468  1.0000
  H   H360      1.0  0.08510  0.85069  0.56122  1.0000
  C   C222      1.0  0.05055  0.79879  0.59940  1.0000
  C   C223      1.0  0.19336  0.81816  0.85507  1.0000
  H   H361      1.0  0.22171  0.88029  0.86408  1.0000
  C   C224      1.0  0.29825  0.76958  0.53671  1.0000
  H   H362      1.0  0.23803  0.94748  0.68197  1.0000
  H   H363      1.0  0.25047  0.82396  0.86080  1.0000
  C   C225      1.0  0.23938  0.82440  0.88691  1.0000
  C   C226      1.0  0.46936  0.75717  0.78593  1.0000
  Fe  Fe48      1.0  0.44196  0.78644  0.52075  1.0000
  S   S94       1.0  0.41963  0.78812  0.57307  1.0000
  H   H364      1.0  0.28798  0.97184  0.71732  1.0000
  H   H365      1.0  0.23690  0.94392  0.74936  1.0000
  C   C227      1.0  0.23603  0.90512  0.00734  1.0000
  H   H366      1.0  0.01665  0.85101  0.85496  1.0000
  H   H367      1.0  0.07759  0.83186  0.66081  1.0000
  H   H368      1.0  0.39860  0.76344  0.64842  1.0000
  S   S95       1.0  0.21403  0.76488  0.54401  1.0000
  C   C228      1.0  0.48075  0.79177  0.73485  1.0000
  H   H369      1.0  0.47686  0.80630  0.82460  1.0000
  H   H370      1.0  0.47980  0.78918  0.89256  1.0000
  C   C229      1.0  0.28661  0.99362  0.71906  1.0000
  H   H371      1.0  0.11281  0.86150  0.63985  1.0000
  C   C230      1.0  0.01298  0.78094  0.84225  1.0000
  H   H372      1.0  0.26708  0.82449  0.56615  1.0000
  C   C231      1.0  0.25459  0.77882  0.54589  1.0000
  C   C232      1.0  0.30799  0.81967  0.55938  1.0000
  H   H373      1.0  0.03735  0.81030  0.58963  1.0000
  H   H374      1.0  0.28578  0.76476  0.61471  1.0000
  C   C233      1.0  0.27570  0.80921  0.55773  1.0000
  H   H375      1.0  0.09711  0.82308  0.54975  1.0000
  H   H376      1.0  0.45530  0.78154  0.72840  1.0000
  C   C234      1.0  0.47384  0.80758  0.79467  1.0000
  H   H377      1.0  0.21289  0.96402  0.68379  1.0000
  C   C235      1.0  0.33784  0.78189  0.65441  1.0000
  C   C236      1.0  0.23723  0.96661  0.75032  1.0000
  C   C237      1.0  0.50389  0.79588  0.88697  1.0000
  H   H378      1.0  0.12296  0.85726  0.57561  1.0000
  H   H379      1.0  0.24872  0.97854  0.77642  1.0000
  C   C238      1.0  0.26590  0.75897  0.53562  1.0000
  H   H380      1.0  0.26048  0.91394  0.00110  1.0000
  S   S96       1.0  0.35986  0.81377  0.55208  1.0000
  H   H381      1.0  0.34194  0.79680  0.62992  1.0000
  H   H382      1.0  0.49301  0.81634  0.72505  1.0000
  H   H383      1.0  0.01095  0.78653  0.91785  1.0000
  H   H384      1.0  0.29911  0.00612  0.74458  1.0000
  H   H385      1.0  0.71874  0.23527  0.15670  1.0000
  H   H386      1.0  0.77165  0.21490  0.30936  1.0000
  C   C239      1.0  0.81142  0.05329  0.05506  1.0000
  H   H387      1.0  0.76583  0.25374  0.22655  1.0000
  N   N25       1.0  0.94947  0.23903  0.38091  1.0000
  H   H388      1.0  0.78823  0.08921  0.02988  1.0000
  C   C240      1.0  0.77641  0.06019  0.09452  1.0000
  H   H389      1.0  0.97187  0.21638  0.40750  1.0000
  S   S97       1.0  0.75344  0.20394  0.14418  1.0000
  Fe  Fe49      1.0  0.85745  0.22001  0.46425  1.0000
  S   S98       1.0  0.83109  0.18551  0.41889  1.0000
  H   H390      1.0  0.71430  0.24542  0.44664  1.0000
  Fe  Fe50      1.0  0.83846  0.17339  0.13124  1.0000
  S   S99       1.0  0.78595  0.14627  0.12633  1.0000
  S   S100      1.0  0.87003  0.17243  0.08769  1.0000
  Fe  Fe51      1.0  0.83729  0.19244  0.20972  1.0000
  S   S101      1.0  0.78470  0.16614  0.21143  1.0000
  S   S102      1.0  0.86785  0.22494  0.25481  1.0000
  Fe  Fe52      1.0  0.78778  0.12797  0.18174  1.0000
  Fe  Fe53      1.0  0.78744  0.18676  0.15616  1.0000
  H   H391      1.0  0.83006  0.11231  0.03576  1.0000
  S   S103      1.0  0.84037  0.15252  0.18503  1.0000
  S   S104      1.0  0.84001  0.21566  0.15608  1.0000
  H   H392      1.0  0.87178  0.24567  0.38545  1.0000
  H   H393      1.0  0.83344  0.07479  0.12202  1.0000
  C   C241      1.0  0.79946  0.05955  0.19087  1.0000
  C   C242      1.0  0.80959  0.03767  0.18782  1.0000
  H   H394      1.0  0.81637  0.08395  0.19559  1.0000
  H   H395      1.0  0.83437  0.04539  0.19020  1.0000
  H   H396      1.0  0.82932  0.10883  0.12010  1.0000
  H   H397      1.0  0.90734  0.21094  0.34934  1.0000
  H   H398      1.0  0.96586  0.24409  0.50293  1.0000
  H   H399      1.0  0.77273  0.07672  0.11156  1.0000
  C   C243      1.0  0.76748  0.04969  0.18843  1.0000
  H   H400      1.0  0.83030  0.19438  0.05600  1.0000
  H   H401      1.0  0.83432  0.06476  0.04073  1.0000
  S   S105      1.0  0.89821  0.21985  0.49177  1.0000
  H   H402      1.0  0.80491  0.11813  0.06551  1.0000
  C   C244      1.0  0.84031  0.19709  0.37324  1.0000
  C   C245      1.0  0.82664  0.17460  0.34540  1.0000
  C   C246      1.0  0.83471  0.18291  0.30882  1.0000
  C   C247      1.0  0.85671  0.21375  0.30005  1.0000
  C   C248      1.0  0.86994  0.23638  0.32777  1.0000
  C   C249      1.0  0.86157  0.22813  0.36427  1.0000
  H   H403      1.0  0.81004  0.15057  0.35221  1.0000
  H   H404      1.0  0.82430  0.16535  0.28754  1.0000
  H   H405      1.0  0.79282  0.20534  0.27723  1.0000
  C   C250      1.0  0.79309  0.22497  0.29239  1.0000
  H   H406      1.0  0.85582  0.10545  0.09004  1.0000
  C   C251      1.0  0.86347  0.17977  0.04251  1.0000
  H   H407      1.0  0.92375  0.18949  0.36999  1.0000
  C   C252      1.0  0.91970  0.20946  0.37417  1.0000
  H   H408      1.0  0.90327  0.20346  0.39743  1.0000
  H   H409      1.0  0.81112  0.03513  0.07335  1.0000
  C   C253      1.0  0.84257  0.19030  0.03431  1.0000
  C   C254      1.0  0.96939  0.24723  0.34828  1.0000
  C   C255      1.0  0.76590  0.24368  0.15146  1.0000
  H   H410      1.0  0.89519  0.16605  0.02048  1.0000
  H   H411      1.0  0.81368  0.23473  0.31129  1.0000
  S   S106      1.0  0.75403  0.07653  0.19158  1.0000
  H   H412      1.0  0.77496  0.04162  0.11292  1.0000
  H   H413      1.0  0.75646  0.04892  0.07478  1.0000
  N   N26       1.0  0.80693  0.07634  0.07583  1.0000
  C   C256      1.0  0.80747  0.09994  0.05061  1.0000
  C   C257      1.0  0.83249  0.09194  0.10319  1.0000
  C   C258      1.0  0.76597  0.23565  0.24438  1.0000
  H   H414      1.0  0.82070  0.24089  0.22619  1.0000
  C   C259      1.0  0.74345  0.25273  0.15738  1.0000
  C   C260      1.0  0.96610  0.23512  0.41242  1.0000
  C   C261      1.0  0.51462  0.25309  0.50145  1.0000
  H   H415      1.0  0.00542  0.22801  0.51510  1.0000
  H   H416      1.0  0.79257  0.04109  0.03410  1.0000
  H   H417      1.0  0.76400  0.21657  0.22637  1.0000
  H   H418      1.0  0.74441  0.22571  0.26112  1.0000
  H   H419      1.0  0.97494  0.22862  0.34142  1.0000
  H   H420      1.0  0.72096  0.01018  0.18046  1.0000
  N   N27       1.0  0.79474  0.24911  0.26725  1.0000
  H   H421      1.0  0.95154  0.22884  0.43736  1.0000
  H   H422      1.0  0.95748  0.25043  0.32400  1.0000
  C   C262      1.0  0.74573  0.01786  0.18270  1.0000
  S   S107      1.0  0.83374  0.21908  0.51677  1.0000
  H   H423      1.0  0.97917  0.23788  0.94696  1.0000
  H   H424      1.0  0.76231  0.09816  0.70378  1.0000
  H   H425      1.0  0.74641  0.06323  0.81058  1.0000
  H   H426      1.0  0.80829  0.17101  0.75861  1.0000
  C   C263      1.0  0.75329  0.02354  0.81297  1.0000
  H   H427      1.0  0.85296  0.16487  0.74538  1.0000
  H   H428      1.0  0.79206  0.24719  0.54576  1.0000
  C   C264      1.0  0.96396  0.25131  0.59057  1.0000
  Fe  Fe54      1.0  0.87722  0.22397  0.54403  1.0000
  S   S108      1.0  0.88151  0.19573  0.58983  1.0000
  C   C265      1.0  0.79256  0.14593  0.75105  1.0000
  H   H429      1.0  0.84963  0.13493  0.71489  1.0000
  Fe  Fe55      1.0  0.89194  0.20960  0.79939  1.0000
  S   S109      1.0  0.91800  0.18331  0.79621  1.0000
  H   H430      1.0  0.86939  0.24198  0.62276  1.0000
  Fe  Fe56      1.0  0.87474  0.19256  0.87913  1.0000
  S   S110      1.0  0.89925  0.16475  0.88224  1.0000
  S   S111      1.0  0.84896  0.20039  0.92464  1.0000
  Fe  Fe57      1.0  0.93762  0.20456  0.85120  1.0000
  S   S112      1.0  0.98786  0.22215  0.86913  1.0000
  Fe  Fe58      1.0  0.87722  0.14597  0.82732  1.0000
  S   S113      1.0  0.85839  0.09524  0.81226  1.0000
  S   S114      1.0  0.91470  0.23389  0.85217  1.0000
  S   S115      1.0  0.84959  0.17076  0.82645  1.0000
  C   C266      1.0  0.80767  0.03607  0.81630  1.0000
  C   C267      1.0  0.81790  0.06814  0.81526  1.0000
  C   C268      1.0  0.79569  0.07786  0.81437  1.0000
  H   H431      1.0  0.82477  0.02845  0.81766  1.0000
  H   H432      1.0  0.80332  0.10246  0.81474  1.0000
  C   C269      1.0  0.76350  0.05561  0.81233  1.0000
  H   H433      1.0  0.78948  0.15126  0.67773  1.0000
  C   C270      1.0  0.85370  0.19090  0.96961  1.0000
  C   C271      1.0  0.87405  0.17967  0.97782  1.0000
  H   H434      1.0  0.88610  0.17536  0.95620  1.0000
  C   C272      1.0  0.88519  0.20943  0.63474  1.0000
  C   C273      1.0  0.89556  0.19679  0.66210  1.0000
  C   C274      1.0  0.89748  0.20629  0.69853  1.0000
  C   C275      1.0  0.88836  0.22796  0.70786  1.0000
  C   C276      1.0  0.87899  0.24136  0.68030  1.0000
  C   C277      1.0  0.87743  0.23215  0.64376  1.0000
  H   H435      1.0  0.90184  0.17938  0.65511  1.0000
  H   H436      1.0  0.90539  0.19633  0.71946  1.0000
  S   S116      1.0  0.88604  0.23699  0.75367  1.0000
  N   N28       1.0  0.80680  0.13589  0.72268  1.0000
  H   H437      1.0  0.82212  0.20477  0.99170  1.0000
  C   C278      1.0  0.81197  0.15489  0.68956  1.0000
  C   C279      1.0  0.83717  0.14035  0.73625  1.0000
  C   C280      1.0  0.77545  0.01385  0.81604  1.0000
  H   H438      1.0  0.94286  0.21685  0.97119  1.0000
  H   H439      1.0  0.82682  0.18028  0.69572  1.0000
  H   H440      1.0  0.78131  0.08753  0.73834  1.0000
  C   C281      1.0  0.78557  0.10249  0.71389  1.0000
  H   H441      1.0  0.79569  0.09430  0.69250  1.0000
  H   H442      1.0  0.83410  0.12507  0.75995  1.0000
  H   H443      1.0  0.78810  0.13201  0.77640  1.0000
  H   H444      1.0  0.82409  0.14917  0.66800  1.0000
  H   H445      1.0  0.76977  0.14324  0.74164  1.0000
  C   C282      1.0  0.83790  0.19608  0.99792  1.0000
  H   H446      1.0  0.95294  0.23262  0.61144  1.0000
  H   H447      1.0  0.73808  0.23313  0.56417  1.0000
  H   H448      1.0  0.94282  0.22750  0.92446  1.0000
  C   C283      1.0  0.95573  0.23566  0.95091  1.0000
  H   H449      1.0  0.91306  0.25315  0.94055  1.0000
  H   H450      1.0  0.98044  0.24682  0.57473  1.0000
  H   H451      1.0  0.94486  0.24837  0.57158  1.0000
  H   H452      1.0  0.91330  0.24439  0.98797  1.0000
  C   C284      1.0  0.87918  0.17445  0.01422  1.0000
  S   S117      1.0  0.66269  0.29269  0.49302  1.0000
  H   H453      1.0  0.73541  0.29062  0.17099  1.0000
  C   C285      1.0  0.75286  0.28406  0.16546  1.0000
  H   H454      1.0  0.68689  0.29180  0.04679  1.0000
  S   S118      1.0  0.76793  0.40397  0.15450  1.0000
  N   N29       1.0  0.73561  0.31444  0.06304  1.0000
  H   H455      1.0  0.77355  0.49997  0.28811  1.0000
  S   S119      1.0  0.79647  0.47447  0.22227  1.0000
  C   C286      1.0  0.94276  0.26438  0.38892  1.0000
  C   C287      1.0  0.73553  0.28463  0.06693  1.0000
  C   C288      1.0  0.72921  0.43916  0.29410  1.0000
  H   H456      1.0  0.77172  0.43194  0.33253  1.0000
  C   C289      1.0  0.76112  0.29156  0.40752  1.0000
  H   H457      1.0  0.79878  0.29442  0.27009  1.0000
  C   C290      1.0  0.75402  0.32493  0.44952  1.0000
  H   H458      1.0  0.84454  0.26928  0.26003  1.0000
  C   C291      1.0  0.71155  0.29046  0.40921  1.0000
  C   C292      1.0  0.79749  0.27581  0.28844  1.0000
  C   C293      1.0  0.75637  0.33676  0.09131  1.0000
  H   H459      1.0  0.71814  0.46135  0.04341  1.0000
  H   H460      1.0  0.74154  0.44435  0.26763  1.0000
  H   H461      1.0  0.74876  0.46666  0.38098  1.0000
  S   S120      1.0  0.88248  0.27205  0.45837  1.0000
  S   S121      1.0  0.72123  0.37291  0.44613  1.0000
  H   H462      1.0  0.72587  0.27353  0.09367  1.0000
  H   H463      1.0  0.81912  0.28662  0.30582  1.0000
  S   S122      1.0  0.71171  0.39994  0.20644  1.0000
  C   C294      1.0  0.69175  0.34467  0.32726  1.0000
  Fe  Fe59      1.0  0.71325  0.36078  0.23567  1.0000
  S   S123      1.0  0.67967  0.33513  0.28141  1.0000
  Fe  Fe60      1.0  0.71537  0.37736  0.15511  1.0000
  S   S124      1.0  0.68406  0.37263  0.10724  1.0000
  H   H464      1.0  0.73484  0.46778  0.21135  1.0000
  H   H465      1.0  0.74755  0.40113  0.07923  1.0000
  C   C295      1.0  0.69963  0.38520  0.06348  1.0000
  H   H466      1.0  0.72364  0.46215  0.14373  1.0000
  H   H467      1.0  0.88661  0.26038  0.32092  1.0000
  H   H468      1.0  0.69467  0.29355  0.42614  1.0000
  C   C296      1.0  0.70939  0.36109  0.40078  1.0000
  C   C297      1.0  0.73194  0.37341  0.37328  1.0000
  C   C298      1.0  0.72317  0.36515  0.33662  1.0000
  C   C299      1.0  0.66936  0.33171  0.35491  1.0000
  H   H469      1.0  0.69841  0.26699  0.39610  1.0000
  C   C300      1.0  0.67814  0.33985  0.39164  1.0000
  H   H470      1.0  0.74066  0.37467  0.31559  1.0000
  H   H471      1.0  0.77551  0.32926  0.46469  1.0000
  Fe  Fe61      1.0  0.92148  0.27187  0.49051  1.0000
  S   S125      1.0  0.97241  0.30243  0.47566  1.0000
  C   C301      1.0  0.99996  0.29078  0.48666  1.0000
  H   H472      1.0  0.70822  0.44181  0.29024  1.0000
  N   N30       1.0  0.74208  0.48550  0.09284  1.0000
  S   S126      1.0  0.71176  0.33556  0.18393  1.0000
  C   C302      1.0  0.53205  0.31573  0.51093  1.0000
  H   H473      1.0  0.74759  0.32819  0.11914  1.0000
  H   H474      1.0  0.73737  0.44282  0.11424  1.0000
  Fe  Fe62      1.0  0.76419  0.42362  0.20805  1.0000
  H   H475      1.0  0.99205  0.26943  0.35253  1.0000
  H   H476      1.0  0.72532  0.42694  0.36567  1.0000
  C   C303      1.0  0.74236  0.47693  0.05428  1.0000
  H   H477      1.0  0.79158  0.46270  0.30019  1.0000
  C   C304      1.0  0.73166  0.39784  0.05700  1.0000
  H   H478      1.0  0.66062  0.33016  0.41273  1.0000
  N   N31       1.0  0.75029  0.46002  0.32319  1.0000
  H   H479      1.0  0.75798  0.35987  0.08840  1.0000
  H   H480      1.0  0.75624  0.38946  0.38041  1.0000
  H   H481      1.0  0.71099  0.27098  0.47871  1.0000
  Fe  Fe63      1.0  0.68904  0.34510  0.49213  1.0000
  C   C305      1.0  0.67936  0.38173  0.03443  1.0000
  H   H482      1.0  0.76111  0.34424  0.42955  1.0000
  C   C306      1.0  0.74719  0.32768  0.02654  1.0000
  H   H483      1.0  0.70088  0.44126  0.10441  1.0000
  H   H484      1.0  0.75548  0.46420  0.05102  1.0000
  H   H485      1.0  0.64502  0.31569  0.34783  1.0000
  H   H486      1.0  0.74705  0.27046  0.47542  1.0000
  H   H487      1.0  0.79470  0.47174  0.34799  1.0000
  H   H488      1.0  0.77160  0.33255  0.02242  1.0000
  S   S127      1.0  0.79780  0.34624  0.17606  1.0000
  S   S128      1.0  0.76569  0.38617  0.24125  1.0000
  C   C307      1.0  0.54627  0.27531  0.50827  1.0000
  N   N32       1.0  0.73843  0.29400  0.43136  1.0000
  H   H489      1.0  0.93084  0.26858  0.36551  1.0000
  H   H490      1.0  0.73819  0.32698  0.46937  1.0000
  C   C308      1.0  0.78478  0.30663  0.16657  1.0000
  C   C309      1.0  0.80714  0.29764  0.15993  1.0000
  C   C310      1.0  0.77829  0.45644  0.32619  1.0000
  H   H491      1.0  0.70244  0.33064  0.06439  1.0000
  C   C311      1.0  0.73347  0.45169  0.35822  1.0000
  H   H492      1.0  0.96467  0.28684  0.39519  1.0000
  H   H493      1.0  0.78067  0.34065  0.09008  1.0000
  H   H494      1.0  0.73976  0.49638  0.31060  1.0000
  Fe  Fe64      1.0  0.76430  0.36387  0.18737  1.0000
  C   C312      1.0  0.78427  0.50159  0.21218  1.0000
  C   C313      1.0  0.75244  0.49209  0.20835  1.0000
  H   H495      1.0  0.82508  0.27912  0.22522  1.0000
  H   H496      1.0  0.71235  0.45438  0.35695  1.0000
  H   H497      1.0  0.51203  0.31478  0.38348  1.0000
  H   H498      1.0  0.72063  0.41411  0.30023  1.0000
  H   H499      1.0  0.83188  0.31504  0.16055  1.0000
  C   C314      1.0  0.72530  0.45673  0.11475  1.0000
  H   H500      1.0  0.65453  0.37198  0.03927  1.0000
  H   H501      1.0  0.71931  0.30826  0.38721  1.0000
  H   H502      1.0  0.69401  0.29930  0.09497  1.0000
  C   C315      1.0  0.76025  0.49283  0.31408  1.0000
  H   H503      1.0  0.72096  0.26753  0.04531  1.0000
  C   C316      1.0  0.77473  0.50448  0.10657  1.0000
  H   H504      1.0  0.78745  0.49117  0.10576  1.0000
  H   H505      1.0  0.77029  0.31019  0.38644  1.0000
  C   C317      1.0  0.72718  0.26914  0.45918  1.0000
  H   H506      1.0  0.75970  0.28819  0.06532  1.0000
  C   C318      1.0  0.99048  0.26062  0.49914  1.0000
  C   C319      1.0  0.70333  0.30873  0.06746  1.0000
  C   C320      1.0  0.79777  0.26623  0.15273  1.0000
  C   C321      1.0  0.74319  0.40622  0.02149  1.0000
  C   C322      1.0  0.55490  0.30667  0.51312  1.0000
  H   H507      1.0  0.74728  0.35007  0.02261  1.0000
  C   C323      1.0  0.82245  0.26012  0.24368  1.0000
  H   H508      1.0  0.78166  0.29406  0.42356  1.0000
  H   H509      1.0  0.75377  0.49794  0.03658  1.0000
  H   H510      1.0  0.70119  0.49017  0.08587  1.0000
  H   H511      1.0  0.98853  0.25711  0.41855  1.0000
  C   C324      1.0  0.72595  0.50383  0.09577  1.0000
  H   H512      1.0  0.77695  0.26838  0.30647  1.0000
  H   H513      1.0  0.75012  0.26850  0.39335  1.0000
  S   S129      1.0  0.57411  0.26291  0.51094  1.0000
  H   H514      1.0  0.53899  0.34011  0.51440  1.0000
  H   H515      1.0  0.81523  0.25956  0.14786  1.0000
  H   H516      1.0  0.96252  0.25720  0.01950  1.0000
  H   H517      1.0  0.92737  0.25878  0.41307  1.0000
  Fe  Fe65      1.0  0.86150  0.27153  0.51269  1.0000
  S   S130      1.0  0.64571  0.29787  0.57820  1.0000
  H   H518      1.0  0.73218  0.36597  0.68461  1.0000
  C   C325      1.0  0.78468  0.26441  0.54428  1.0000
  H   H519      1.0  0.62528  0.37493  0.75730  1.0000
  H   H520      1.0  0.58840  0.37227  0.80715  1.0000
  H   H521      1.0  0.81209  0.34037  0.52181  1.0000
  C   C326      1.0  0.60432  0.35523  0.74385  1.0000
  C   C327      1.0  0.57091  0.31743  0.88960  1.0000
  C   C328      1.0  0.54833  0.28555  0.88630  1.0000
  H   H522      1.0  0.73213  0.31146  0.00447  1.0000
  H   H523      1.0  0.59523  0.32449  0.89486  1.0000
  C   C329      1.0  0.56934  0.35283  0.79097  1.0000
  N   N33       1.0  0.98017  0.28280  0.60740  1.0000
  S   S131      1.0  0.90319  0.27641  0.54443  1.0000
  H   H524      1.0  0.75940  0.34614  0.59994  1.0000
  H   H525      1.0  0.65878  0.31366  0.71799  1.0000
  C   C330      1.0  0.53015  0.33051  0.88039  1.0000
  C   C331      1.0  0.56188  0.34000  0.88662  1.0000
  H   H526      1.0  0.61504  0.34239  0.81287  1.0000
  N   N34       1.0  0.58099  0.33483  0.77092  1.0000
  H   H527      1.0  0.65953  0.32623  0.65226  1.0000
  C   C332      1.0  0.66724  0.33756  0.70967  1.0000
  H   H528      1.0  0.73605  0.37202  0.63629  1.0000
  H   H529      1.0  0.53636  0.29227  0.77187  1.0000
  C   C333      1.0  0.74639  0.36693  0.66073  1.0000
  C   C334      1.0  0.55439  0.30810  0.75207  1.0000
  H   H530      1.0  0.94805  0.26945  0.65212  1.0000
  H   H531      1.0  0.55922  0.36327  0.77226  1.0000
  H   H532      1.0  0.70480  0.31614  0.62332  1.0000
  C   C335      1.0  0.95772  0.28695  0.62978  1.0000
  H   H533      1.0  0.77041  0.38724  0.66509  1.0000
  H   H534      1.0  0.56237  0.29393  0.73684  1.0000
  S   S132      1.0  0.68220  0.38560  0.61517  1.0000
  H   H535      1.0  0.67513  0.38749  0.97658  1.0000
  Fe  Fe66      1.0  0.70565  0.41057  0.90276  1.0000
  S   S133      1.0  0.68105  0.43838  0.90479  1.0000
  S   S134      1.0  0.73807  0.41258  0.94822  1.0000
  Fe  Fe67      1.0  0.68239  0.38689  0.82554  1.0000
  S   S135      1.0  0.65678  0.41351  0.82136  1.0000
  S   S136      1.0  0.67656  0.35151  0.78241  1.0000
  Fe  Fe68      1.0  0.69943  0.45310  0.84819  1.0000
  C   C336      1.0  0.51675  0.27609  0.87918  1.0000
  Fe  Fe69      1.0  0.64059  0.39637  0.87794  1.0000
  S   S137      1.0  0.72680  0.42794  0.84747  1.0000
  C   C337      1.0  0.69095  0.39045  0.99894  1.0000
  C   C338      1.0  0.72286  0.40244  0.99237  1.0000
  H   H536      1.0  0.61286  0.34213  0.72746  1.0000
  H   H537      1.0  0.96891  0.31061  0.64250  1.0000
  C   C339      1.0  0.67892  0.37550  0.66160  1.0000
  C   C340      1.0  0.68876  0.39910  0.68816  1.0000
  C   C341      1.0  0.68797  0.39201  0.72538  1.0000
  C   C342      1.0  0.67755  0.36127  0.73616  1.0000
  H   H538      1.0  0.74353  0.32813  0.71383  1.0000
  C   C343      1.0  0.66765  0.34461  0.67249  1.0000
  H   H539      1.0  0.69739  0.42304  0.67988  1.0000
  H   H540      1.0  0.69584  0.41042  0.74566  1.0000
  S   S138      1.0  0.58964  0.38015  0.88949  1.0000
  N   N35       1.0  0.74685  0.33743  0.65630  1.0000
  S   S139      1.0  0.66357  0.36711  0.88086  1.0000
  H   H541      1.0  0.79216  0.35944  0.63089  1.0000
  C   C344      1.0  0.59578  0.32302  0.79683  1.0000
  C   C345      1.0  0.80566  0.29469  0.53238  1.0000
  Fe  Fe70      1.0  0.67297  0.34989  0.57122  1.0000
  N   N36       1.0  0.95858  0.26557  0.96269  1.0000
  C   C346      1.0  0.92693  0.26165  0.96644  1.0000
  C   C347      1.0  0.75873  0.33067  0.69025  1.0000
  H   H542      1.0  0.92810  0.28401  0.97392  1.0000
  H   H543      1.0  0.60631  0.31069  0.78252  1.0000
  H   H544      1.0  0.98292  0.27437  0.84085  1.0000
  H   H545      1.0  0.59443  0.36551  0.72455  1.0000
  H   H546      1.0  0.69857  0.30792  0.67117  1.0000
  H   H547      1.0  0.99768  0.26832  0.65281  1.0000
  S   S140      1.0  0.71516  0.50258  0.83033  1.0000
  H   H548      1.0  0.55073  0.33774  0.81043  1.0000
  H   H549      1.0  0.75938  0.30855  0.68779  1.0000
  H   H550      1.0  0.54264  0.31615  0.73234  1.0000
  H   H551      1.0  0.71433  0.28905  0.64376  1.0000
  H   H552      1.0  0.97388  0.30432  0.55939  1.0000
  H   H553      1.0  0.78292  0.34977  0.69711  1.0000
  H   H554      1.0  0.96427  0.28331  0.90814  1.0000
  C   C348      1.0  0.79585  0.31685  0.53078  1.0000
  H   H555      1.0  0.55541  0.26816  0.88914  1.0000
  H   H556      1.0  0.93738  0.28400  0.61312  1.0000
  C   C349      1.0  0.00569  0.28328  0.85377  1.0000
  H   H557      1.0  0.97901  0.31282  0.94311  1.0000
  H   H558      1.0  0.77153  0.49825  0.84146  1.0000
  H   H559      1.0  0.97787  0.29758  0.00794  1.0000
  C   C350      1.0  0.76753  0.34053  0.62575  1.0000
  Fe  Fe71      1.0  0.68525  0.29800  0.54793  1.0000
  C   C351      1.0  0.71473  0.31152  0.64838  1.0000
  H   H560      1.0  0.76782  0.31841  0.62101  1.0000
  H   H561      1.0  0.52307  0.34793  0.87803  1.0000
  C   C352      1.0  0.97632  0.28986  0.93524  1.0000
  H   H562      1.0  0.57853  0.30643  0.81663  1.0000
  C   C353      1.0  0.97534  0.27510  0.99818  1.0000
  S   S141      1.0  0.71408  0.35004  0.54540  1.0000
  C   C354      1.0  0.74423  0.27861  0.55254  1.0000
  C   C355      1.0  0.76513  0.30875  0.54029  1.0000
  H   H563      1.0  0.99933  0.27827  0.99627  1.0000
  S   S142      1.0  0.70570  0.26794  0.56527  1.0000
  C   C356      1.0  0.99274  0.30676  0.57850  1.0000
  H   H564      1.0  0.87201  0.25823  0.68738  1.0000
  S   S143      1.0  0.84421  0.30596  0.51915  1.0000
  H   H565      1.0  0.00427  0.33086  0.59004  1.0000
  H   H566      1.0  0.75778  0.32592  0.53827  1.0000
  C   C357      1.0  0.00633  0.28612  0.63077  1.0000
  H   H567      1.0  0.57921  0.32398  0.51840  1.0000
  H   H568      1.0  0.01055  0.30492  0.56191  1.0000
  H   H569      1.0  0.76796  0.41574  0.01647  1.0000
  H   H570      1.0  0.00033  0.29341  0.93165  1.0000
  Fe  Fe72      1.0  0.62550  0.29750  0.52279  1.0000
  C   C358      1.0  0.75415  0.25653  0.55472  1.0000
  S   S144      1.0  0.65025  0.34988  0.51752  1.0000
  H   H571      1.0  0.80592  0.73271  0.20102  1.0000
  H   H572      1.0  0.72364  0.73636  0.15925  1.0000
  H   H573      1.0  0.77799  0.71784  0.29599  1.0000
  H   H574      1.0  0.52766  0.74361  0.51042  1.0000
  H   H575      1.0  0.77583  0.50927  0.33567  1.0000
  S   S145      1.0  0.75639  0.70303  0.14779  1.0000
  N   N37       1.0  0.80624  0.75036  0.25446  1.0000
  H   H576      1.0  0.83323  0.69995  0.05125  1.0000
  H   H577      1.0  0.88533  0.74699  0.37728  1.0000
  C   C359      1.0  0.82252  0.75022  0.22099  1.0000
  Fe  Fe73      1.0  0.78863  0.62362  0.17520  1.0000
  H   H578      1.0  0.73800  0.52576  0.07964  1.0000
  H   H579      1.0  0.81179  0.65375  0.35174  1.0000
  C   C360      1.0  0.79763  0.55545  0.20081  1.0000
  C   C361      1.0  0.80679  0.53336  0.20894  1.0000
  H   H580      1.0  0.81518  0.57983  0.19782  1.0000
  H   H581      1.0  0.83147  0.54091  0.21224  1.0000
  S   S146      1.0  0.84119  0.64649  0.17505  1.0000
  C   C362      1.0  0.76581  0.54590  0.19656  1.0000
  S   S147      1.0  0.75327  0.57248  0.18497  1.0000
  S   S148      1.0  0.78527  0.64385  0.12163  1.0000
  S   S149      1.0  0.78873  0.66196  0.20827  1.0000
  H   H582      1.0  0.82547  0.66280  0.28612  1.0000
  Fe  Fe74      1.0  0.87003  0.72661  0.45854  1.0000
  S   S150      1.0  0.83870  0.69192  0.41549  1.0000
  S   S151      1.0  0.85116  0.72828  0.51380  1.0000
  N   N38       1.0  0.95795  0.73242  0.37781  1.0000
  S   S152      1.0  0.86674  0.66863  0.07614  1.0000
  Fe  Fe75      1.0  0.84113  0.68666  0.20367  1.0000
  S   S153      1.0  0.87471  0.71691  0.24864  1.0000
  Fe  Fe76      1.0  0.78988  0.68435  0.15455  1.0000
  S   S154      1.0  0.91135  0.72452  0.48140  1.0000
  C   C363      1.0  0.97496  0.73263  0.34476  1.0000
  S   S155      1.0  0.84248  0.71168  0.15173  1.0000
  C   C364      1.0  0.86300  0.68240  0.03329  1.0000
  H   H583      1.0  0.91282  0.70316  0.35230  1.0000
  C   C365      1.0  0.88015  0.73365  0.32044  1.0000
  Fe  Fe77      1.0  0.83790  0.66928  0.12333  1.0000
  H   H584      1.0  0.91218  0.70404  0.40112  1.0000
  H   H585      1.0  0.78826  0.52616  0.09034  1.0000
  C   C366      1.0  0.84792  0.69967  0.36899  1.0000
  C   C367      1.0  0.92628  0.70430  0.37741  1.0000
  C   C368      1.0  0.83847  0.68126  0.30588  1.0000
  C   C369      1.0  0.86342  0.70992  0.29459  1.0000
  H   H586      1.0  0.97917  0.75423  0.50394  1.0000
  C   C370      1.0  0.87234  0.72862  0.35753  1.0000
  H   H587      1.0  0.84095  0.74413  0.22680  1.0000
  H   H588      1.0  0.92749  0.68244  0.37841  1.0000
  C   C371      1.0  0.74326  0.51422  0.20078  1.0000
  C   C372      1.0  0.83079  0.67617  0.34301  1.0000
  C   C373      1.0  0.76947  0.74340  0.14715  1.0000
  H   H589      1.0  0.97761  0.71158  0.34340  1.0000
  C   C374      1.0  0.84515  0.69696  0.02832  1.0000
  H   H590      1.0  0.72557  0.51091  0.12452  1.0000
  H   H591      1.0  0.77104  0.70169  0.25073  1.0000
  C   C375      1.0  0.78956  0.71851  0.26988  1.0000
  H   H592      1.0  0.77540  0.51190  0.13531  1.0000
  C   C376      1.0  0.97554  0.73210  0.41056  1.0000
  H   H593      1.0  0.80596  0.70961  0.27532  1.0000
  H   H594      1.0  0.97829  0.71110  0.41121  1.0000
  C   C377      1.0  0.74801  0.75346  0.15445  1.0000
  H   H595      1.0  0.76514  0.74392  0.22578  1.0000
  H   H596      1.0  0.75373  0.74191  0.51352  1.0000
  H   H597      1.0  0.96342  0.73213  0.43594  1.0000
  H   H598      1.0  0.96230  0.73290  0.31951  1.0000
  H   H599      1.0  0.99947  0.75315  0.41189  1.0000
  H   H600      1.0  0.71858  0.50678  0.19788  1.0000
  H   H601      1.0  0.89922  0.75599  0.31168  1.0000
  H   H602      1.0  0.99892  0.75363  0.34421  1.0000
  H   H603      1.0  0.74682  0.56764  0.81388  1.0000
  C   C378      1.0  0.75541  0.53026  0.82790  1.0000
  C   C379      1.0  0.76457  0.56132  0.81932  1.0000
  H   H604      1.0  0.84678  0.70794  0.60626  1.0000
  Fe  Fe78      1.0  0.87525  0.65546  0.82625  1.0000
  S   S156      1.0  0.85974  0.60416  0.82290  1.0000
  H   H605      1.0  0.85139  0.64794  0.66489  1.0000
  C   C380      1.0  0.81034  0.54497  0.83290  1.0000
  C   C381      1.0  0.81948  0.57608  0.82474  1.0000
  C   C382      1.0  0.79649  0.58422  0.81798  1.0000
  H   H606      1.0  0.82802  0.53850  0.83809  1.0000
  H   H607      1.0  0.80313  0.60803  0.81159  1.0000
  H   H608      1.0  0.89337  0.65542  0.70866  1.0000
  H   H609      1.0  0.84759  0.65923  0.72948  1.0000
  C   C383      1.0  0.82856  0.58358  0.71777  1.0000
  H   H610      1.0  0.83541  0.57039  0.69903  1.0000
  C   C384      1.0  0.84291  0.70786  0.99362  1.0000
  H   H611      1.0  0.82909  0.71913  0.98989  1.0000
  H   H612      1.0  0.83687  0.65101  0.91060  1.0000
  H   H613      1.0  0.75043  0.60374  0.91296  1.0000
  C   C385      1.0  0.96904  0.73256  0.94737  1.0000
  H   H614      1.0  0.88567  0.62631  0.74272  1.0000
  C   C386      1.0  0.83887  0.62256  0.67170  1.0000
  H   H615      1.0  0.80269  0.57344  0.71523  1.0000
  H   H616      1.0  0.83356  0.57904  0.74615  1.0000
  C   C387      1.0  0.82772  0.62542  0.91181  1.0000
  H   H617      1.0  0.78357  0.64155  0.90297  1.0000
  C   C388      1.0  0.77504  0.61595  0.90309  1.0000
  H   H618      1.0  0.77173  0.60625  0.97597  1.0000
  N   N39       1.0  0.84565  0.61741  0.70963  1.0000
  H   H619      1.0  0.88834  0.61817  0.69558  1.0000
  H   H620      1.0  0.80349  0.64438  0.96523  1.0000
  N   N40       1.0  0.79543  0.60871  0.92604  1.0000
  C   C389      1.0  0.79556  0.61898  0.96394  1.0000
  C   C390      1.0  0.77838  0.52213  0.83479  1.0000
  C   C391      1.0  0.83546  0.63372  0.73494  1.0000
  H   H621      1.0  0.84646  0.61080  0.65174  1.0000
  H   H622      1.0  0.84085  0.63083  0.76366  1.0000
  H   H623      1.0  0.82871  0.61756  0.88374  1.0000
  C   C392      1.0  0.87976  0.62987  0.71433  1.0000
  H   H624      1.0  0.81333  0.61349  0.66719  1.0000
  H   H625      1.0  0.80975  0.62467  0.73269  1.0000
  H   H626      1.0  0.81173  0.61516  0.98187  1.0000
  H   H627      1.0  0.77441  0.60858  0.87430  1.0000
  H   H628      1.0  0.78331  0.56623  0.89702  1.0000
  S   S157      1.0  0.84303  0.67504  0.82676  1.0000
  H   H629      1.0  0.84414  0.62151  0.92910  1.0000
  H   H630      1.0  0.79835  0.56841  0.94226  1.0000
  S   S158      1.0  0.90166  0.70579  0.58361  1.0000
  H   H631      1.0  0.92908  0.71331  0.65475  1.0000
  Fe  Fe79      1.0  0.87737  0.71088  0.78813  1.0000
  S   S159      1.0  0.90447  0.68438  0.87363  1.0000
  S   S160      1.0  0.85687  0.72201  0.73882  1.0000
  Fe  Fe80      1.0  0.87476  0.70684  0.87102  1.0000
  S   S161      1.0  0.90757  0.68892  0.78457  1.0000
  Fe  Fe81      1.0  0.93403  0.72012  0.83203  1.0000
  C   C393      1.0  0.78349  0.57466  0.92522  1.0000
  C   C394      1.0  0.87839  0.67865  0.00348  1.0000
  C   C395      1.0  0.86114  0.71089  0.63014  1.0000
  C   C396      1.0  0.85820  0.70394  0.96377  1.0000
  C   C397      1.0  0.87590  0.68925  0.96883  1.0000
  H   H632      1.0  0.88757  0.68589  0.94615  1.0000
  C   C398      1.0  0.88937  0.71092  0.62644  1.0000
  C   C399      1.0  0.85106  0.71366  0.66489  1.0000
  C   C400      1.0  0.86953  0.71730  0.69588  1.0000
  C   C401      1.0  0.89764  0.71710  0.69217  1.0000
  C   C402      1.0  0.90732  0.71349  0.65755  1.0000
  H   H633      1.0  0.82878  0.71272  0.66787  1.0000
  H   H634      1.0  0.91224  0.72028  0.71581  1.0000
  S   S162      1.0  0.85390  0.71662  0.92031  1.0000
  H   H635      1.0  0.75897  0.56117  0.93526  1.0000
  Fe  Fe82      1.0  0.89523  0.73107  0.53600  1.0000
  S   S163      1.0  0.98639  0.74051  0.83782  1.0000
  S   S164      1.0  0.90634  0.74496  0.83256  1.0000
  H   H636      1.0  0.94516  0.71218  0.95157  1.0000
  H   H637      1.0  0.92327  0.74416  0.92475  1.0000
  H   H638      1.0  0.98494  0.73143  0.96834  1.0000
  H   H639      1.0  0.82978  0.74808  0.62035  1.0000
  H   H640      1.0  0.93320  0.74585  0.99050  1.0000
  H   H641      1.0  0.97709  0.72952  0.92014  1.0000
  H   H642      1.0  0.89216  0.66731  0.00728  1.0000
  Fe  Fe83      1.0  0.70787  0.86105  0.46988  1.0000
  S   S165      1.0  0.68110  0.80861  0.46756  1.0000
  S   S166      1.0  0.73761  0.89120  0.42350  1.0000
  C   C403      1.0  0.75801  0.78551  0.15656  1.0000
  C   C404      1.0  0.78333  0.76045  0.24544  1.0000
  H   H643      1.0  0.72806  0.99596  0.29676  1.0000
  H   H644      1.0  0.73914  0.97174  0.17363  1.0000
  S   S167      1.0  0.71722  0.83692  0.16651  1.0000
  C   C405      1.0  0.80087  0.76562  0.14082  1.0000
  H   H645      1.0  0.94292  0.76245  0.35361  1.0000
  S   S168      1.0  0.71606  0.90253  0.17697  1.0000
  C   C406      1.0  0.69862  0.94369  0.25596  1.0000
  Fe  Fe84      1.0  0.72148  0.86856  0.21282  1.0000
  S   S169      1.0  0.69042  0.84801  0.26178  1.0000
  Fe  Fe85      1.0  0.71671  0.87335  0.13042  1.0000
  S   S170      1.0  0.68200  0.85678  0.08327  1.0000
  C   C407      1.0  0.56568  0.78986  0.49854  1.0000
  H   H646      1.0  0.80978  0.75670  0.51045  1.0000
  C   C408      1.0  0.69690  0.87048  0.03963  1.0000
  H   H647      1.0  0.73438  0.91766  0.25901  1.0000
  H   H648      1.0  0.84272  0.79635  0.27028  1.0000
  H   H649      1.0  0.74088  0.90884  0.05883  1.0000
  S   S171      1.0  0.66984  0.86420  0.49960  1.0000
  C   C409      1.0  0.72504  0.87679  0.37907  1.0000
  C   C410      1.0  0.69379  0.85433  0.37174  1.0000
  C   C411      1.0  0.68373  0.84492  0.33564  1.0000
  C   C412      1.0  0.70493  0.85745  0.30680  1.0000
  C   C413      1.0  0.73659  0.87866  0.31438  1.0000
  C   C414      1.0  0.74651  0.88867  0.35041  1.0000
  H   H650      1.0  0.74074  0.82416  0.37180  1.0000
  H   H651      1.0  0.65923  0.82840  0.32994  1.0000
  H   H652      1.0  0.77483  0.87807  0.04782  1.0000
  C   C415      1.0  0.51187  0.77719  0.50998  1.0000
  H   H653      1.0  0.69998  0.94563  0.32982  1.0000
  H   H654      1.0  0.74871  0.82460  0.10307  1.0000
  H   H655      1.0  0.75218  0.99967  0.25860  1.0000
  C   C416      1.0  0.75594  0.99606  0.17897  1.0000
  H   H656      1.0  0.76157  0.82954  0.46970  1.0000
  S   S172      1.0  0.98630  0.80503  0.45787  1.0000
  H   H657      1.0  0.70592  0.95481  0.22874  1.0000
  N   N41       1.0  0.72603  0.95316  0.28042  1.0000
  H   H658      1.0  0.79488  0.78396  0.23247  1.0000
  H   H659      1.0  0.76358  0.80694  0.35778  1.0000
  H   H660      1.0  0.75327  0.88790  0.29247  1.0000
  C   C417      1.0  0.78429  0.86182  0.04927  1.0000
  Fe  Fe86      1.0  0.76860  0.92713  0.17371  1.0000
  H   H661      1.0  0.76750  0.94897  0.28241  1.0000
  H   H662      1.0  0.67709  0.84504  0.39371  1.0000
  C   C418      1.0  0.72666  0.89666  0.03525  1.0000
  H   H663      1.0  0.74133  0.79289  0.16288  1.0000
  C   C419      1.0  0.76262  0.82338  0.37768  1.0000
  N   N42       1.0  0.76332  0.81372  0.41568  1.0000
  H   H664      1.0  0.59826  0.83824  0.48708  1.0000
  H   H665      1.0  0.79360  0.80577  0.45118  1.0000
  H   H666      1.0  0.78279  0.86039  0.43750  1.0000
  H   H667      1.0  0.68539  0.91785  0.25151  1.0000
  H   H668      1.0  0.71715  0.79662  0.07478  1.0000
  H   H669      1.0  0.77080  0.90586  0.35608  1.0000
  H   H670      1.0  0.81828  0.77283  0.30703  1.0000
  H   H671      1.0  0.68202  0.95045  0.26740  1.0000
  H   H672      1.0  0.55840  0.85469  0.49273  1.0000
  Fe  Fe87      1.0  0.76959  0.86615  0.16384  1.0000
  S   S173      1.0  0.89667  0.77855  0.45080  1.0000
  S   S174      1.0  0.77411  0.89524  0.21311  1.0000
  S   S175      1.0  0.80169  0.97931  0.17853  1.0000
  H   H673      1.0  0.78269  0.84723  0.37232  1.0000
  H   H674      1.0  0.97853  0.78245  0.38024  1.0000
  C   C420      1.0  0.53438  0.76787  0.50643  1.0000
  C   C421      1.0  0.73579  0.78239  0.42187  1.0000
  C   C422      1.0  0.78949  0.80773  0.15078  1.0000
  C   C423      1.0  0.81083  0.79768  0.14271  1.0000
  H   H675      1.0  0.81371  0.83606  0.41837  1.0000
  H   H676      1.0  0.83519  0.81477  0.13786  1.0000
  H   H677      1.0  0.75395  0.78306  0.04629  1.0000
  C   C424      1.0  0.73672  0.82128  0.07624  1.0000
  C   C425      1.0  0.79246  0.81276  0.42258  1.0000
  Fe  Fe88      1.0  0.93672  0.77675  0.47845  1.0000
  N   N43       1.0  0.75888  0.82887  0.04595  1.0000
  H   H678      1.0  0.60127  0.89524  0.03031  1.0000
  S   S176      1.0  0.80290  0.84815  0.15248  1.0000
  H   H679      1.0  0.74094  0.83813  0.43569  1.0000
  C   C426      1.0  0.95509  0.76078  0.37846  1.0000
  C   C427      1.0  0.71512  0.93799  0.31625  1.0000
  S   S177      1.0  0.76899  0.90055  0.12432  1.0000
  H   H680      1.0  0.78589  0.81169  0.07358  1.0000
  C   C428      1.0  0.74328  0.98752  0.28511  1.0000
  H   H681      1.0  0.75649  0.95500  0.23774  1.0000
  H   H682      1.0  0.60831  0.86298  0.02804  1.0000
  C   C429      1.0  0.76225  0.83646  0.44079  1.0000
  Fe  Fe89      1.0  0.64542  0.81184  0.50201  1.0000
  H   H683      1.0  0.71337  0.78239  0.41747  1.0000
  H   H684      1.0  0.72613  0.83652  0.07599  1.0000
  C   C430      1.0  0.74704  0.94328  0.26425  1.0000
  C   C431      1.0  0.55166  0.83043  0.49672  1.0000
  H   H685      1.0  0.70107  0.91207  0.31341  1.0000
  H   H686      1.0  0.94160  0.76098  0.40252  1.0000
  H   H687      1.0  0.79720  0.86623  0.07576  1.0000
  H   H688      1.0  0.76398  0.99534  0.30363  1.0000
  C   C432      1.0  0.57427  0.82118  0.49359  1.0000
  H   H689      1.0  0.73516  0.94343  0.33507  1.0000
  Fe  Fe90      1.0  0.88081  0.78037  0.50746  1.0000
  H   H690      1.0  0.79404  0.79562  0.40440  1.0000
  H   H691      1.0  0.73564  0.76453  0.40334  1.0000
  S   S178      1.0  0.59342  0.77742  0.49608  1.0000
  C   C433      1.0  0.82960  0.77216  0.28126  1.0000
  C   C434      1.0  0.52043  0.80850  0.50498  1.0000
  H   H692      1.0  0.80169  0.86831  0.02711  1.0000
  C   C435      1.0  0.00356  0.76816  0.49647  1.0000
  C   C436      1.0  0.77251  0.80818  0.04763  1.0000
  H   H693      1.0  0.77092  0.76146  0.27007  1.0000
  H   H694      1.0  0.83419  0.77347  0.20755  1.0000
  H   H695      1.0  0.84716  0.76496  0.28830  1.0000
  H   H696      1.0  0.78899  0.81282  0.02485  1.0000
  H   H697      1.0  0.73554  0.77441  0.45033  1.0000
  H   H698      1.0  0.81749  0.75810  0.13457  1.0000
  C   C437      1.0  0.80357  0.77432  0.51637  1.0000
  C   C438      1.0  0.78791  0.00590  0.18187  1.0000
  Fe  Fe91      1.0  0.69483  0.86254  0.55051  1.0000
  S   S179      1.0  0.66813  0.81021  0.55472  1.0000
  S   S180      1.0  0.69838  0.89533  0.59570  1.0000
  H   H699      1.0  0.58300  0.80718  0.66617  1.0000
  C   C439      1.0  0.58775  0.78407  0.60136  1.0000
  H   H700      1.0  0.89147  0.80357  0.59181  1.0000
  Fe  Fe92      1.0  0.70003  0.90355  0.88085  1.0000
  S   S181      1.0  0.67600  0.93188  0.88207  1.0000
  S   S182      1.0  0.73353  0.90810  0.92605  1.0000
  Fe  Fe93      1.0  0.67722  0.88044  0.80341  1.0000
  S   S183      1.0  0.65167  0.90712  0.79842  1.0000
  S   S184      1.0  0.67869  0.84960  0.75899  1.0000
  Fe  Fe94      1.0  0.69445  0.94644  0.82560  1.0000
  C   C440      1.0  0.00276  0.80265  0.84512  1.0000
  Fe  Fe95      1.0  0.63545  0.89005  0.85515  1.0000
  S   S185      1.0  0.58608  0.87638  0.87173  1.0000
  S   S186      1.0  0.72145  0.92108  0.82602  1.0000
  S   S187      1.0  0.65804  0.86031  0.85861  1.0000
  C   C441      1.0  0.55810  0.83650  0.87648  1.0000
  C   C442      1.0  0.56653  0.81352  0.87321  1.0000
  C   C443      1.0  0.54372  0.78184  0.87692  1.0000
  H   H701      1.0  0.61105  0.83238  0.55572  1.0000
  H   H702      1.0  0.59054  0.82003  0.86773  1.0000
  C   C444      1.0  0.76024  0.93464  0.69272  1.0000
  H   H703      1.0  0.90863  0.81849  0.63593  1.0000
  C   C445      1.0  0.71897  0.89313  0.96938  1.0000
  C   C446      1.0  0.68935  0.86666  0.97364  1.0000
  C   C447      1.0  0.00125  0.78872  0.94424  1.0000
  H   H704      1.0  0.67514  0.85484  0.94983  1.0000
  C   C448      1.0  0.68961  0.88021  0.64004  1.0000
  C   C449      1.0  0.68009  0.89456  0.66589  1.0000
  C   C450      1.0  0.67500  0.88423  0.70216  1.0000
  C   C451      1.0  0.68033  0.86014  0.71293  1.0000
  C   C452      1.0  0.68855  0.84495  0.68671  1.0000
  C   C453      1.0  0.69306  0.85486  0.65027  1.0000
  H   H705      1.0  0.67698  0.91392  0.65790  1.0000
  H   H706      1.0  0.66766  0.89540  0.72195  1.0000
  H   H707      1.0  0.69236  0.82605  0.69484  1.0000
  H   H708      1.0  0.70033  0.84363  0.63044  1.0000
  H   H709      1.0  0.54270  0.79730  0.61822  1.0000
  H   H710      1.0  0.60997  0.78376  0.60620  1.0000
  H   H711      1.0  0.58059  0.77683  0.57249  1.0000
  H   H712      1.0  0.76082  0.92811  0.99692  1.0000
  H   H713      1.0  0.53337  0.82922  0.77455  1.0000
  H   H714      1.0  0.62017  0.86247  0.58911  1.0000
  H   H715      1.0  0.71966  0.92762  0.74668  1.0000
  H   H716      1.0  0.75801  0.82990  0.98730  1.0000
  H   H717      1.0  0.73917  0.96796  0.75943  1.0000
  C   C454      1.0  0.52000  0.80403  0.78194  1.0000
  H   H718      1.0  0.63949  0.84010  0.59079  1.0000
  H   H719      1.0  0.56939  0.76585  0.61887  1.0000
  H   H720      1.0  0.88819  0.77714  0.62730  1.0000
  S   S188      1.0  0.72324  0.77710  0.52658  1.0000
  H   H721      1.0  0.56440  0.83809  0.60626  1.0000
  C   C455      1.0  0.82706  0.80529  0.52263  1.0000
  C   C456      1.0  0.78753  0.98796  0.71502  1.0000
  C   C457      1.0  0.83162  0.77087  0.61381  1.0000
  H   H722      1.0  0.83211  0.78887  0.68276  1.0000
  C   C458      1.0  0.95759  0.76527  0.98569  1.0000
  H   H723      1.0  0.57450  0.86035  0.00541  1.0000
  C   C459      1.0  0.60129  0.82390  0.64735  1.0000
  H   H724      1.0  0.60721  0.92661  0.97510  1.0000
  C   C460      1.0  0.61663  0.83860  0.58503  1.0000
  H   H725      1.0  0.55467  0.80867  0.57219  1.0000
  C   C461      1.0  0.52680  0.82764  0.88371  1.0000
  H   H726      1.0  0.62343  0.82389  0.65397  1.0000
  C   C462      1.0  0.56210  0.81484  0.60118  1.0000
  H   H727      1.0  0.59079  0.84796  0.94679  1.0000
  N   N44       1.0  0.59190  0.81534  0.60876  1.0000
  H   H728      1.0  0.72258  0.79965  0.00750  1.0000
  H   H729      1.0  0.80250  0.94791  0.74672  1.0000
  H   H730      1.0  0.81056  0.99145  0.70591  1.0000
  C   C463      1.0  0.73780  0.90772  0.00018  1.0000
  S   S189      1.0  0.71302  0.99623  0.80711  1.0000
  N   N45       1.0  0.61831  0.88972  0.97872  1.0000
  C   C464      1.0  0.61555  0.86396  0.95558  1.0000
  N   N46       1.0  0.76584  0.95500  0.72477  1.0000
  C   C465      1.0  0.73574  0.95164  0.73670  1.0000
  H   H731      1.0  0.78246  0.93684  0.68256  1.0000
  H   H732      1.0  0.74908  0.94039  0.66969  1.0000
  C   C466      1.0  0.77975  0.94570  0.75473  1.0000
  C   C467      1.0  0.67844  0.85521  0.00876  1.0000
  H   H733      1.0  0.72346  0.95647  0.71418  1.0000
  H   H734      1.0  0.78420  0.96046  0.77945  1.0000
  H   H735      1.0  0.74431  0.90957  0.69946  1.0000
  H   H736      1.0  0.00203  0.81163  0.94394  1.0000
  H   H737      1.0  0.52020  0.84537  0.88658  1.0000
  H   H738      1.0  0.83436  0.77378  0.58377  1.0000
  H   H739      1.0  0.76383  0.92092  0.76282  1.0000
  H   H740      1.0  0.65558  0.83461  0.01209  1.0000
  H   H741      1.0  0.87408  0.81102  0.68874  1.0000
  H   H742      1.0  0.53005  0.79165  0.76680  1.0000
  H   H743      1.0  0.60561  0.84778  0.65363  1.0000
  S   S190      1.0  0.92350  0.78341  0.53449  1.0000
  C   C468      1.0  0.85465  0.79147  0.67313  1.0000
  H   H744      1.0  0.62963  0.87298  0.93036  1.0000
  H   H745      1.0  0.62008  0.91803  0.93329  1.0000
  H   H746      1.0  0.58139  0.89191  0.94934  1.0000
  H   H747      1.0  0.52455  0.80243  0.81135  1.0000
  C   C469      1.0  0.85893  0.82653  0.62484  1.0000
  H   H748      1.0  0.94827  0.78561  0.92053  1.0000
  H   H749      1.0  0.97809  0.79509  0.84226  1.0000
  H   H750      1.0  0.97266  0.76466  0.00815  1.0000
  C   C470      1.0  0.60622  0.90738  0.95836  1.0000
  H   H751      1.0  0.55036  0.76411  0.87430  1.0000
  S   S191      1.0  0.86706  0.81621  0.52265  1.0000
  N   N47       1.0  0.85829  0.79698  0.63339  1.0000
  C   C471      1.0  0.88795  0.79916  0.62165  1.0000
  H   H752      1.0  0.77759  0.99565  0.69257  1.0000
  N   N48       1.0  0.96898  0.76240  0.94957  1.0000
  H   H753      1.0  0.76780  0.98928  0.81770  1.0000
  H   H754      1.0  0.83671  0.82555  0.63278  1.0000
  H   H755      1.0  0.87872  0.84678  0.63915  1.0000
  H   H756      1.0  0.66679  0.91942  0.96432  1.0000
  H   H757      1.0  0.95730  0.78756  0.98819  1.0000
  H   H758      1.0  0.86191  0.83155  0.59513  1.0000
  H   H759      1.0  0.83673  0.85190  0.53526  1.0000
  C   C472      1.0  0.81863  0.82790  0.53029  1.0000
  H   H760      1.0  0.73144  0.83954  0.00889  1.0000
  C   C473      1.0  0.78685  0.81961  0.53169  1.0000
  H   H761      1.0  0.62370  0.84961  0.97025  1.0000
  H   H762      1.0  0.78054  0.83714  0.53781  1.0000
  C   C474      1.0  0.76335  0.78858  0.52562  1.0000
  S   S192      1.0  0.73519  0.86397  0.52072  1.0000
  Fe  Fe96      1.0  0.70619  0.81164  0.52015  1.0000
  C   C475      1.0  0.74201  0.82424  0.01085  1.0000
  C   C476      1.0  0.59975  0.87652  0.01210  1.0000
  C   C477      1.0  0.65161  0.91096  0.98881  1.0000
  C   C478      1.0  0.77183  0.76598  0.51815  1.0000
  C   C479      1.0  0.51231  0.77290  0.88340  1.0000
  H   H763      1.0  0.95519  0.75951  0.89340  1.0000
  C   C480      1.0  0.94802  0.76297  0.92083  1.0000
  H   H764      1.0  0.85489  0.76984  0.68087  1.0000
  H   H765      1.0  0.80887  0.76918  0.62073  1.0000
  H   H766      1.0  0.66087  0.89914  0.00658  1.0000
  H   H767      1.0  0.65478  0.93180  0.00406  1.0000
  H   H768      1.0  0.79218  0.00387  0.73874  1.0000
