data_image0
_chemical_formula_structural       SH3CHNH5NCH2C4HCH2CH3SHCH2C2H5CH3C2H2NHSCFeS2FeS2FeS3C4H3C3H2CHS2H2Fe2H2NC3H3CHSC3H6CHFeH2CHFeS2FeS2FeSFeS3HSHC5H2C4HCH4SCFeH4CH2S3H4C2H2NH5C2H3C2H2CNCNCHCH2SH3CH2CH5C4H2CNH3CH6CHFeNH2CS2H2C2HCHFeHCHSHSH3CH4CH2C4H4NC2HCH2S2HSH3FeSHC3H5C5HFeNHC2HC5H2FeSHNCHC2H2CS2FeSFeC5H4CHSHCHCFeH5CHC2NH11FeH2SHSFeHFeSH3CSC4H2CSCHSC2H2CH3FeSFeH2C3H3SFeSH3S2CHC2HCSHC2H2CHC2SNC3H2CFeH3SFeH4FeSCFeH2FeS3HC2H2CH2CHCHSFeH3CSH5C2HSH3CHCHCH2S2H2FeS2FeS2FeSFeS3HCH3C3NC6H4CHC3HC2SHC2H5CHFeCH2CHSHCH4CHC2H2CH4CSCHC2HNHSH8N2H4C2HCHCH4FeHFeC2HS2H2CHFeSHS2CH2SH4CHC3SHC3H2CHCH2FeS2H3CHCSHCH7C3HCFeH3SHSCNH2C3HS2FeSFeC2H2CH4C2NH2SH5CFeH3CH2CH2FeCH2C3HCHNC2H3FeS2HFeHSC5HCHFeHC2HSH2SHSH2C7HC2H3C2HC2H3CHSH4FeH2CH3SCH4NC2H2NFeSHFeS2FeSFeS3NHC5H3CHSHC3HC2NH2C3HSCH4CH7CHC3H4SC3H2CHC4HFe2HFe2SFeS2HS2C6H6NSCH3FeHS3H4C2SH6CH2C2NC2H2SHNSC2H2CHCHNH3CHCH2FeCHSCSH6CHC2H2CSH3C2H2CH2CH2CNFeCHFeHCS3HFe2H2CH4SH2CFeS2C2H2SC4H3CHSNH3C2H2C2FeH6C3HCHSC3H9C3H3CH9C2SH3FeSFeCSHFeS2FeSCSC3HCH4C7HNCHFeCH6SH2C2HCHCHCH3SH3NH2CHCHCSHFeCHCSCNH4CNC2H2CH2FeC2HSCHCH4NH2CHSH3CH4CFeS2FeS2FeSFeS3CH2C2HCHC2HNH3C3H2CH2C2H4CHCH4CH2SHCHSCFeHCHSH3CH2NC2HC2H2SH2CHCHNHC2HCH2FeS2HFeSFeHSHS2C6H3C3FeHS2C2SCH8C2HSHCHC2HSH2NH2NCH6SHSH2CFeNH3C2NHC2H2CH3C3HCFeSHCH2CHCH3SHSCSH2CFe2HS2FeH5C4H2CHCH3SH2NFeSCHCHNCHC3HCHCHC2SH5CH2FeCSH4CH2NH3CH2C2HCH2CHSH6CH4Fe2S2CSCFeS2FeSCSC2H2CH2CSHC6H2CH2CHCHFeHNCHCHC2FeH7S2H2FeC2H2CH2C3N
_chemical_formula_sum              "S192 H768 C480 N48 Fe96"
_cell_length_a       41.5673
_cell_length_b       41.8218
_cell_length_c       34.2218
_cell_angle_alpha    90.0324
_cell_angle_beta     89.896
_cell_angle_gamma    119.967

_space_group_name_H-M_alt    "P 1"
_space_group_IT_number       1

loop_
  _space_group_symop_operation_xyz
  'x, y, z'

loop_
  _atom_site_type_symbol
  _atom_site_label
  _atom_site_symmetry_multiplicity
  _atom_site_fract_x
  _atom_site_fract_y
  _atom_site_fract_z
  _atom_site_occupancy
  S   S1        1.0  0.30401  0.09226  0.28805  1.0000
  H   H1        1.0  0.17792  0.03468  0.33985  1.0000
  H   H2        1.0  0.07321  0.14865  0.35303  1.0000
  H   H3        1.0  0.05033  0.18377  0.20464  1.0000
  C   C1        1.0  0.46232  0.25168  0.31995  1.0000
  H   H4        1.0  0.03103  0.04703  0.34320  1.0000
  N   N1        1.0  0.42611  0.01033  0.08777  1.0000
  H   H5        1.0  0.04632  0.18113  0.13221  1.0000
  H   H6        1.0  0.40377  0.02603  0.13609  1.0000
  H   H7        1.0  0.05112  0.07918  0.30349  1.0000
  H   H8        1.0  0.13426  0.02931  0.23295  1.0000
  H   H9        1.0  0.23487  0.08596  0.31068  1.0000
  N   N2        1.0  0.46563  0.01525  0.32064  1.0000
  C   C2        1.0  0.06987  0.04440  0.47144  1.0000
  H   H10       1.0  0.17380  0.04058  0.26281  1.0000
  H   H11       1.0  0.03054  0.14893  0.34585  1.0000
  C   C3        1.0  0.26476  0.05624  0.31080  1.0000
  C   C4        1.0  0.23370  0.06015  0.31764  1.0000
  C   C5        1.0  0.20121  0.03093  0.33369  1.0000
  C   C6        1.0  0.02341  0.16952  0.19067  1.0000
  H   H12       1.0  0.50607  0.07200  0.30922  1.0000
  C   C7        1.0  0.46394  0.02939  0.10452  1.0000
  H   H13       1.0  0.50419  0.21449  0.32292  1.0000
  H   H14       1.0  0.44189  0.04950  0.33209  1.0000
  C   C8        1.0  0.07882  0.07614  0.49337  1.0000
  H   H15       1.0  0.26403  0.07511  0.43955  1.0000
  H   H16       1.0  0.47909  0.05917  0.09665  1.0000
  H   H17       1.0  0.29603  0.01307  0.40192  1.0000
  S   S2        1.0  0.06671  0.04591  0.42001  1.0000
  H   H18       1.0  0.41661  0.05596  0.09441  1.0000
  C   C9        1.0  0.50523  0.21500  0.24461  1.0000
  H   H19       1.0  0.31696  0.03763  0.48946  1.0000
  H   H20       1.0  0.28721  0.01978  0.31492  1.0000
  C   C10       1.0  0.02119  0.16820  0.14960  1.0000
  C   C11       1.0  0.40514  0.06194  0.48035  1.0000
  H   H21       1.0  0.50862  0.17638  0.30598  1.0000
  H   H22       1.0  0.48615  0.22400  0.25657  1.0000
  H   H23       1.0  0.31030  0.07664  0.48477  1.0000
  H   H24       1.0  0.04454  0.10344  0.40695  1.0000
  H   H25       1.0  0.02722  0.07417  0.15240  1.0000
  C   C12       1.0  0.26336  0.02305  0.32039  1.0000
  H   H26       1.0  0.45038  0.03019  0.37500  1.0000
  H   H27       1.0  0.42171  0.08576  0.46207  1.0000
  H   H28       1.0  0.48867  0.18456  0.24051  1.0000
  C   C13       1.0  0.06077  0.01154  0.49096  1.0000
  C   C14       1.0  0.01799  0.09058  0.39031  1.0000
  H   H29       1.0  0.46326  0.02755  0.13700  1.0000
  H   H30       1.0  0.21793  0.02610  0.20107  1.0000
  N   N3        1.0  0.02470  0.09486  0.34767  1.0000
  H   H31       1.0  0.44250  0.04395  0.03591  1.0000
  S   S3        1.0  0.10322  0.01137  0.33436  1.0000
  C   C15       1.0  0.16243  0.03234  0.23283  1.0000
  Fe  Fe1       1.0  0.43394  0.10874  0.29682  1.0000
  S   S4        1.0  0.41347  0.14910  0.29315  1.0000
  S   S5        1.0  0.47915  0.11056  0.25814  1.0000
  Fe  Fe2       1.0  0.39129  0.07383  0.37273  1.0000
  S   S6        1.0  0.36820  0.11209  0.37573  1.0000
  S   S7        1.0  0.37151  0.02408  0.41247  1.0000
  Fe  Fe3       1.0  0.42505  0.15676  0.35742  1.0000
  S   S8        1.0  0.45478  0.21225  0.38743  1.0000
  S   S9        1.0  0.37762  0.05987  0.30914  1.0000
  S   S10       1.0  0.44933  0.11937  0.36045  1.0000
  C   C16       1.0  0.47951  0.11731  0.20710  1.0000
  C   C17       1.0  0.44831  0.11360  0.18760  1.0000
  C   C18       1.0  0.44895  0.11739  0.14669  1.0000
  C   C19       1.0  0.48101  0.12580  0.12507  1.0000
  H   H32       1.0  0.42338  0.10694  0.20388  1.0000
  H   H33       1.0  0.42435  0.11349  0.13167  1.0000
  H   H34       1.0  0.44351  0.22562  0.30649  1.0000
  C   C20       1.0  0.37873  0.02865  0.46346  1.0000
  C   C21       1.0  0.31002  0.05353  0.46837  1.0000
  C   C22       1.0  0.45252  0.00794  0.27971  1.0000
  H   H35       1.0  0.18023  0.05560  0.21291  1.0000
  H   H36       1.0  0.23707  0.03542  0.40948  1.0000
  C   C23       1.0  0.24459  0.01223  0.47968  1.0000
  H   H37       1.0  0.28550  0.06513  0.39937  1.0000
  S   S11       1.0  0.47885  0.12468  0.07342  1.0000
  S   S12       1.0  0.08166  0.23109  0.05625  1.0000
  H   H38       1.0  0.07349  0.08953  0.35043  1.0000
  H   H39       1.0  0.21141  0.01008  0.25057  1.0000
  Fe  Fe4       1.0  0.35834  0.10121  0.31157  1.0000
  Fe  Fe5       1.0  0.03104  0.17794  0.03959  1.0000
  H   H40       1.0  0.08577  0.10165  0.47858  1.0000
  H   H41       1.0  0.45259  0.03227  0.26646  1.0000
  N   N4        1.0  0.27375  0.02978  0.44943  1.0000
  C   C24       1.0  0.04601  0.07689  0.33557  1.0000
  C   C25       1.0  0.42847  0.01434  0.04476  1.0000
  C   C26       1.0  0.26474  0.05239  0.42337  1.0000
  H   H42       1.0  0.24498  0.24187  0.02611  1.0000
  H   H43       1.0  0.50380  0.03640  0.45787  1.0000
  H   H44       1.0  0.05148  0.13878  0.30570  1.0000
  C   C27       1.0  0.44143  0.02454  0.34389  1.0000
  H   H45       1.0  0.24258  0.03322  0.49791  1.0000
  S   S13       1.0  0.16697  0.21758  0.02548  1.0000
  C   C28       1.0  0.50418  0.04652  0.32168  1.0000
  C   C29       1.0  0.40445  0.02668  0.10357  1.0000
  C   C30       1.0  0.04600  0.13454  0.33769  1.0000
  H   H46       1.0  0.33292  0.06573  0.44650  1.0000
  H   H47       1.0  0.48075  0.01725  0.09363  1.0000
  H   H48       1.0  0.16223  0.00955  0.15934  1.0000
  H   H49       1.0  0.43858  0.24178  0.04208  1.0000
  H   H50       1.0  0.49794  0.24140  0.03841  1.0000
  H   H51       1.0  0.37530  0.01179  0.09284  1.0000
  C   C31       1.0  0.47093  0.25300  0.35962  1.0000
  H   H52       1.0  0.01123  0.09440  0.11651  1.0000
  Fe  Fe6       1.0  0.05247  0.18798  0.95219  1.0000
  H   H53       1.0  0.43082  0.20323  0.92215  1.0000
  H   H54       1.0  0.22566  0.17760  0.56052  1.0000
  C   C32       1.0  0.46027  0.21344  0.93034  1.0000
  H   H55       1.0  0.32355  0.20058  0.57617  1.0000
  Fe  Fe7       1.0  0.12914  0.10984  0.72559  1.0000
  S   S14       1.0  0.18611  0.15421  0.70758  1.0000
  S   S15       1.0  0.11588  0.10145  0.79011  1.0000
  Fe  Fe8       1.0  0.10611  0.08377  0.64157  1.0000
  S   S16       1.0  0.16071  0.12675  0.61708  1.0000
  S   S17       1.0  0.06138  0.03820  0.60513  1.0000
  Fe  Fe9       1.0  0.18565  0.11162  0.66702  1.0000
  S   S18       1.0  0.23744  0.10825  0.65451  1.0000
  Fe  Fe10      1.0  0.15620  0.16516  0.65977  1.0000
  S   S19       1.0  0.16657  0.22173  0.64287  1.0000
  S   S20       1.0  0.13116  0.06613  0.68910  1.0000
  S   S21       1.0  0.09886  0.12332  0.68031  1.0000
  H   H56       1.0  0.16748  0.21447  0.72765  1.0000
  S   S22       1.0  0.03257  0.16399  0.89165  1.0000
  H   H57       1.0  0.02118  0.00681  0.94398  1.0000
  C   C33       1.0  0.26969  0.03177  0.66833  1.0000
  C   C34       1.0  0.26872  0.06391  0.65823  1.0000
  C   C35       1.0  0.23771  0.06742  0.66758  1.0000
  C   C36       1.0  0.20767  0.03850  0.68708  1.0000
  C   C37       1.0  0.10580  0.21761  0.74012  1.0000
  H   H58       1.0  0.29369  0.02938  0.66096  1.0000
  H   H59       1.0  0.29212  0.08613  0.64322  1.0000
  C   C38       1.0  0.09631  0.12423  0.81555  1.0000
  C   C39       1.0  0.10835  0.13674  0.85372  1.0000
  C   C40       1.0  0.09022  0.15087  0.87670  1.0000
  C   C41       1.0  0.05916  0.15144  0.86199  1.0000
  H   H60       1.0  0.18814  0.23075  0.77473  1.0000
  C   C42       1.0  0.06637  0.12648  0.80014  1.0000
  H   H61       1.0  0.13136  0.13482  0.86589  1.0000
  H   H62       1.0  0.50741  0.04644  0.85611  1.0000
  H   H63       1.0  0.42872  0.02906  0.70531  1.0000
  H   H64       1.0  0.30411  0.24207  0.54470  1.0000
  S   S23       1.0  0.34967  0.00901  0.69671  1.0000
  C   C43       1.0  0.06767  0.04175  0.55394  1.0000
  Fe  Fe11      1.0  0.11204  0.21431  0.01399  1.0000
  H   H65       1.0  0.03735  0.10210  0.93015  1.0000
  H   H66       1.0  0.49795  0.10779  0.64668  1.0000
  H   H67       1.0  0.26612  0.24572  0.56511  1.0000
  H   H68       1.0  0.09946  0.16004  0.90628  1.0000
  C   C44       1.0  0.30847  0.20093  0.60292  1.0000
  H   H69       1.0  0.48262  0.02482  0.72958  1.0000
  H   H70       1.0  0.05657  0.11637  0.77097  1.0000
  S   S24       1.0  0.39925  0.03692  0.59575  1.0000
  S   S25       1.0  0.10420  0.24248  0.96210  1.0000
  S   S26       1.0  0.06223  0.15853  0.00156  1.0000
  H   H71       1.0  0.18377  0.04088  0.69471  1.0000
  H   H72       1.0  0.22875  0.23333  0.69176  1.0000
  H   H73       1.0  0.43520  0.06353  0.67000  1.0000
  H   H74       1.0  0.39134  0.01281  0.90353  1.0000
  C   C45       1.0  0.04763  0.13973  0.82347  1.0000
  C   C46       1.0  0.02930  0.02496  0.71398  1.0000
  H   H75       1.0  0.23282  0.20902  0.62336  1.0000
  H   H76       1.0  0.45025  0.07643  0.71961  1.0000
  N   N5        1.0  0.48476  0.06231  0.68523  1.0000
  H   H77       1.0  0.32865  0.22350  0.62217  1.0000
  H   H78       1.0  0.26364  0.17385  0.54036  1.0000
  H   H79       1.0  0.11544  0.21036  0.81699  1.0000
  H   H80       1.0  0.46867  0.01866  0.88738  1.0000
  H   H81       1.0  0.39160  0.01841  0.83147  1.0000
  C   C47       1.0  0.44814  0.05769  0.69543  1.0000
  C   C48       1.0  0.20862  0.00638  0.69719  1.0000
  H   H82       1.0  0.23981  0.14788  0.58311  1.0000
  H   H83       1.0  0.29928  0.17439  0.61868  1.0000
  H   H84       1.0  0.04583  0.05250  0.72801  1.0000
  C   C49       1.0  0.07825  0.07498  0.53449  1.0000
  C   C50       1.0  0.28967  0.24120  0.57244  1.0000
  H   H85       1.0  0.46893  0.04255  0.62644  1.0000
  H   H86       1.0  0.27639  0.22929  0.64903  1.0000
  C   C51       1.0  0.16126  0.21671  0.75878  1.0000
  N   N6        1.0  0.48588  0.24737  0.90868  1.0000
  C   C52       1.0  0.50049  0.05398  0.71991  1.0000
  N   N7        1.0  0.27652  0.20581  0.59322  1.0000
  C   C53       1.0  0.48170  0.23958  0.86629  1.0000
  H   H87       1.0  0.04425  0.02491  0.68698  1.0000
  C   C54       1.0  0.38974  0.03352  0.54514  1.0000
  H   H88       1.0  0.05620  0.07560  0.95092  1.0000
  H   H89       1.0  0.45280  0.23006  0.85644  1.0000
  S   S27       1.0  0.01658  0.20241  0.98891  1.0000
  H   H90       1.0  0.43207  0.08981  0.53380  1.0000
  H   H91       1.0  0.14499  0.18810  0.77045  1.0000
  H   H92       1.0  0.02355  0.14008  0.81202  1.0000
  C   C55       1.0  0.25753  0.20610  0.62960  1.0000
  H   H93       1.0  0.08459  0.09945  0.55111  1.0000
  H   H94       1.0  0.08780  0.18894  0.75090  1.0000
  C   C56       1.0  0.25029  0.17498  0.56812  1.0000
  H   H95       1.0  0.46162  0.00759  0.66173  1.0000
  H   H96       1.0  0.05504  0.04883  0.88711  1.0000
  H   H97       1.0  0.50769  0.03956  0.64485  1.0000
  H   H98       1.0  0.46640  0.19080  0.92438  1.0000
  H   H99       1.0  0.46248  0.21838  0.96248  1.0000
  C   C57       1.0  0.02985  0.07493  0.94329  1.0000
  C   C58       1.0  0.05901  0.01009  0.53203  1.0000
  C   C59       1.0  0.13212  0.23850  0.80436  1.0000
  C   C60       1.0  0.48050  0.03678  0.65317  1.0000
  H   H100      1.0  0.48836  0.21755  0.85869  1.0000
  H   H101      1.0  0.01468  0.07264  0.97092  1.0000
  C   C61       1.0  0.02831  0.04778  0.88042  1.0000
  N   N8        1.0  0.14070  0.23694  0.76269  1.0000
  H   H102      1.0  0.03505  0.07335  0.86422  1.0000
  H   H103      1.0  0.11144  0.21580  0.70853  1.0000
  H   H104      1.0  0.24777  0.18013  0.64644  1.0000
  C   C62       1.0  0.48900  0.01779  0.86684  1.0000
  H   H105      1.0  0.50270  0.07168  0.74519  1.0000
  H   H106      1.0  0.08958  0.23215  0.74218  1.0000
  H   H107      1.0  0.01235  0.02419  0.86021  1.0000
  H   H108      1.0  0.15786  0.25329  0.82214  1.0000
  H   H109      1.0  0.11583  0.25280  0.80848  1.0000
  H   H110      1.0  0.02936  0.00415  0.73419  1.0000
  C   C63       1.0  0.41092  0.06419  0.52101  1.0000
  H   H111      1.0  0.48672  0.33133  0.20345  1.0000
  Fe  Fe12      1.0  0.07688  0.42590  0.36383  1.0000
  N   N9        1.0  0.16927  0.42236  0.29006  1.0000
  H   H112      1.0  0.19595  0.46572  0.24766  1.0000
  H   H113      1.0  0.41910  0.44662  0.47042  1.0000
  C   C64       1.0  0.03468  0.29908  0.36202  1.0000
  S   S28       1.0  0.07389  0.44067  0.30158  1.0000
  S   S29       1.0  0.12395  0.48256  0.37957  1.0000
  H   H114      1.0  0.01300  0.35728  0.40959  1.0000
  H   H115      1.0  0.47650  0.39149  0.10783  1.0000
  C   C65       1.0  0.01484  0.45635  0.22045  1.0000
  C   C66       1.0  0.19977  0.44402  0.26221  1.0000
  H   H116      1.0  0.20115  0.42622  0.23887  1.0000
  C   C67       1.0  0.00978  0.33191  0.39765  1.0000
  H   H117      1.0  0.19636  0.46268  0.33551  1.0000
  Fe  Fe13      1.0  0.03212  0.45514  0.32327  1.0000
  H   H118      1.0  0.22722  0.45836  0.27717  1.0000
  C   C68       1.0  0.06568  0.49936  0.51103  1.0000
  H   H119      1.0  0.13248  0.38573  0.24592  1.0000
  S   S30       1.0  0.46730  0.46833  0.26802  1.0000
  H   H120      1.0  0.12848  0.42598  0.25468  1.0000
  S   S31       1.0  0.08052  0.37390  0.36818  1.0000
  H   H121      1.0  0.33496  0.45386  0.24734  1.0000
  H   H122      1.0  0.34363  0.47719  0.49022  1.0000
  H   H123      1.0  0.40776  0.47996  0.45178  1.0000
  C   C69       1.0  0.24204  0.26610  0.02397  1.0000
  H   H124      1.0  0.04023  0.47043  0.23721  1.0000
  H   H125      1.0  0.04567  0.35855  0.03215  1.0000
  H   H126      1.0  0.04292  0.47294  0.16482  1.0000
  H   H127      1.0  0.36240  0.44979  0.18447  1.0000
  C   C70       1.0  0.37018  0.47899  0.17876  1.0000
  H   H128      1.0  0.39523  0.49106  0.15954  1.0000
  H   H129      1.0  0.05715  0.29919  0.34594  1.0000
  C   C71       1.0  0.13344  0.40491  0.26903  1.0000
  C   C72       1.0  0.03886  0.33229  0.37670  1.0000
  C   C73       1.0  0.50848  0.48565  0.20051  1.0000
  C   C74       1.0  0.47312  0.46630  0.21717  1.0000
  H   H130      1.0  0.34722  0.47886  0.16193  1.0000
  H   H131      1.0  0.14804  0.43155  0.34360  1.0000
  H   H132      1.0  0.05589  0.47434  0.49410  1.0000
  H   H133      1.0  0.32026  0.48377  0.22574  1.0000
  N   N10       1.0  0.46255  0.50309  0.47607  1.0000
  C   C75       1.0  0.40819  0.49954  0.23666  1.0000
  C   C76       1.0  0.47824  0.28419  0.29756  1.0000
  H   H134      1.0  0.20132  0.40576  0.32504  1.0000
  C   C77       1.0  0.20643  0.26205  0.02297  1.0000
  H   H135      1.0  0.44492  0.34272  0.11162  1.0000
  H   H136      1.0  0.40891  0.47384  0.50350  1.0000
  S   S32       1.0  0.42042  0.29866  0.03115  1.0000
  S   S33       1.0  0.48905  0.46959  0.08456  1.0000
  H   H137      1.0  0.15190  0.37671  0.32959  1.0000
  S   S34       1.0  0.03172  0.43646  0.38505  1.0000
  H   H138      1.0  0.47206  0.28284  0.26673  1.0000
  H   H139      1.0  0.49703  0.33054  0.11444  1.0000
  H   H140      1.0  0.30120  0.30417  0.02304  1.0000
  Fe  Fe14      1.0  0.44488  0.42763  0.04500  1.0000
  S   S35       1.0  0.39705  0.37350  0.06413  1.0000
  H   H141      1.0  0.16207  0.46753  0.30823  1.0000
  C   C78       1.0  0.46753  0.33448  0.18315  1.0000
  C   C79       1.0  0.44215  0.44668  0.19282  1.0000
  C   C80       1.0  0.44659  0.44690  0.15200  1.0000
  H   H142      1.0  0.44222  0.37395  0.14589  1.0000
  H   H143      1.0  0.41474  0.43106  0.20552  1.0000
  H   H144      1.0  0.42264  0.43187  0.13336  1.0000
  H   H145      1.0  0.10976  0.38874  0.28932  1.0000
  H   H146      1.0  0.45036  0.30765  0.16793  1.0000
  C   C81       1.0  0.47974  0.50307  0.43823  1.0000
  C   C82       1.0  0.17475  0.39349  0.30850  1.0000
  C   C83       1.0  0.48202  0.46724  0.13544  1.0000
  C   C84       1.0  0.16900  0.44716  0.32064  1.0000
  C   C85       1.0  0.46411  0.26707  0.03560  1.0000
  H   H147      1.0  0.17518  0.37420  0.28637  1.0000
  Fe  Fe15      1.0  0.07848  0.49460  0.39571  1.0000
  N   N11       1.0  0.48822  0.36483  0.15499  1.0000
  H   H148      1.0  0.47856  0.47621  0.43285  1.0000
  C   C86       1.0  0.49414  0.28732  0.37716  1.0000
  C   C87       1.0  0.49769  0.26675  0.03322  1.0000
  H   H149      1.0  0.40059  0.47106  0.24568  1.0000
  C   C88       1.0  0.42282  0.47456  0.47542  1.0000
  C   C89       1.0  0.50217  0.31837  0.31492  1.0000
  C   C90       1.0  0.01631  0.45783  0.17939  1.0000
  C   C91       1.0  0.48125  0.49503  0.50807  1.0000
  C   C92       1.0  0.46179  0.36837  0.12899  1.0000
  H   H150      1.0  0.34880  0.49817  0.26851  1.0000
  H   H151      1.0  0.49252  0.40664  0.19477  1.0000
  Fe  Fe16      1.0  0.11708  0.49801  0.31883  1.0000
  S   S36       1.0  0.49774  0.42060  0.34633  1.0000
  H   H152      1.0  0.44860  0.33979  0.20164  1.0000
  N   N12       1.0  0.37750  0.50009  0.21554  1.0000
  C   C93       1.0  0.46336  0.29983  0.02944  1.0000
  H   H153      1.0  0.50071  0.28861  0.40791  1.0000
  C   C94       1.0  0.27388  0.30135  0.02224  1.0000
  C   C95       1.0  0.34384  0.48309  0.24031  1.0000
  H   H154      1.0  0.48164  0.46894  0.50272  1.0000
  H   H155      1.0  0.01003  0.49208  0.41126  1.0000
  C   C96       1.0  0.49659  0.33247  0.02172  1.0000
  S   S37       1.0  0.30031  0.44970  0.64653  1.0000
  S   S38       1.0  0.29530  0.43837  0.74261  1.0000
  Fe  Fe17      1.0  0.31830  0.42247  0.69159  1.0000
  S   S39       1.0  0.31388  0.36637  0.69370  1.0000
  Fe  Fe18      1.0  0.28221  0.47014  0.69854  1.0000
  C   C97       1.0  0.27210  0.32674  0.68055  1.0000
  C   C98       1.0  0.26594  0.29207  0.69259  1.0000
  C   C99       1.0  0.33244  0.39332  0.91438  1.0000
  C   C100      1.0  0.21337  0.29650  0.64587  1.0000
  C   C101      1.0  0.24550  0.32896  0.65761  1.0000
  H   H156      1.0  0.28639  0.29030  0.71058  1.0000
  H   H157      1.0  0.19314  0.29834  0.62757  1.0000
  H   H158      1.0  0.25008  0.35563  0.64820  1.0000
  H   H159      1.0  0.16509  0.48026  0.70885  1.0000
  C   C102      1.0  0.02522  0.33770  0.01305  1.0000
  H   H160      1.0  0.14954  0.29138  0.75120  1.0000
  S   S40       1.0  0.22672  0.46826  0.69907  1.0000
  H   H161      1.0  0.35195  0.39325  0.89208  1.0000
  C   C103      1.0  0.27957  0.35791  0.87268  1.0000
  H   H162      1.0  0.27022  0.33288  0.89122  1.0000
  C   C104      1.0  0.20740  0.26181  0.65763  1.0000
  Fe  Fe19      1.0  0.06919  0.25448  0.00304  1.0000
  H   H163      1.0  0.25456  0.35598  0.85856  1.0000
  H   H164      1.0  0.15406  0.50141  0.64389  1.0000
  H   H165      1.0  0.49651  0.35792  0.01726  1.0000
  H   H166      1.0  0.29761  0.35697  0.84911  1.0000
  H   H167      1.0  0.48027  0.28322  0.94974  1.0000
  C   C105      1.0  0.23344  0.25975  0.68167  1.0000
  H   H168      1.0  0.04844  0.47096  0.56643  1.0000
  C   C106      1.0  0.31160  0.42448  0.87049  1.0000
  C   C107      1.0  0.27473  0.39213  0.92700  1.0000
  N   N13       1.0  0.29959  0.39200  0.89612  1.0000
  H   H169      1.0  0.19106  0.28979  0.76214  1.0000
  H   H170      1.0  0.28943  0.41664  0.94643  1.0000
  H   H171      1.0  0.32727  0.45076  0.88706  1.0000
  H   H172      1.0  0.33000  0.42493  0.84656  1.0000
  H   H173      1.0  0.26431  0.36734  0.94609  1.0000
  H   H174      1.0  0.23154  0.35290  0.01750  1.0000
  H   H175      1.0  0.16780  0.49468  0.55910  1.0000
  H   H176      1.0  0.25012  0.39228  0.91450  1.0000
  H   H177      1.0  0.16905  0.27463  0.71554  1.0000
  H   H178      1.0  0.32417  0.36918  0.93400  1.0000
  H   H179      1.0  0.02277  0.49144  0.83810  1.0000
  Fe  Fe20      1.0  0.35186  0.48850  0.74560  1.0000
  H   H180      1.0  0.34811  0.41853  0.93260  1.0000
  H   H181      1.0  0.49577  0.30276  0.90212  1.0000
  S   S41       1.0  0.07226  0.30962  0.00960  1.0000
  H   H182      1.0  0.46742  0.49255  0.53669  1.0000
  S   S42       1.0  0.46689  0.40361  0.00103  1.0000
  Fe  Fe21      1.0  0.35626  0.50000  0.65659  1.0000
  H   H183      1.0  0.42550  0.47982  0.92090  1.0000
  Fe  Fe22      1.0  0.42954  0.40939  0.95795  1.0000
  S   S43       1.0  0.44801  0.42761  0.89568  1.0000
  H   H184      1.0  0.39964  0.45691  0.77891  1.0000
  H   H185      1.0  0.48654  0.48821  0.96504  1.0000
  H   H186      1.0  0.28755  0.42465  0.85644  1.0000
  C   C108      1.0  0.40565  0.46229  0.80973  1.0000
  S   S44       1.0  0.37613  0.47121  0.69726  1.0000
  C   C109      1.0  0.42781  0.44999  0.87071  1.0000
  C   C110      1.0  0.42010  0.47490  0.88997  1.0000
  C   C111      1.0  0.47705  0.27669  0.91792  1.0000
  C   C112      1.0  0.39870  0.48781  0.82881  1.0000
  H   H187      1.0  0.42622  0.42432  0.81556  1.0000
  H   H188      1.0  0.34872  0.48173  0.56258  1.0000
  C   C113      1.0  0.06144  0.49753  0.55198  1.0000
  S   S45       1.0  0.38122  0.35301  0.97023  1.0000
  C   C114      1.0  0.42070  0.44386  0.83054  1.0000
  H   H189      1.0  0.30943  0.26503  0.59070  1.0000
  S   S46       1.0  0.41222  0.43877  0.00026  1.0000
  C   C115      1.0  0.16360  0.27485  0.74735  1.0000
  C   C116      1.0  0.03195  0.31084  0.99664  1.0000
  H   H190      1.0  0.49560  0.44626  0.80774  1.0000
  H   H191      1.0  0.48149  0.48020  0.75752  1.0000
  C   C117      1.0  0.40621  0.49424  0.86891  1.0000
  H   H192      1.0  0.19804  0.49861  0.59861  1.0000
  H   H193      1.0  0.12436  0.50087  0.60568  1.0000
  H   H194      1.0  0.44791  0.26830  0.91006  1.0000
  Fe  Fe23      1.0  0.36579  0.38194  0.01536  1.0000
  S   S47       1.0  0.30943  0.37737  0.01769  1.0000
  Fe  Fe24      1.0  0.41723  0.34984  0.01742  1.0000
  H   H195      1.0  0.50070  0.26454  0.84900  1.0000
  H   H196      1.0  0.01099  0.26403  0.95810  1.0000
  C   C118      1.0  0.27019  0.33275  0.01998  1.0000
  C   C119      1.0  0.23460  0.32872  0.01902  1.0000
  C   C120      1.0  0.20280  0.29347  0.02026  1.0000
  H   H197      1.0  0.17546  0.29063  0.01970  1.0000
  H   H198      1.0  0.37678  0.69621  0.29826  1.0000
  H   H199      1.0  0.45289  0.54049  0.51052  1.0000
  S   S48       1.0  0.16166  0.53321  0.27529  1.0000
  Fe  Fe25      1.0  0.04180  0.67631  0.08894  1.0000
  S   S49       1.0  0.05173  0.73261  0.07290  1.0000
  H   H200      1.0  0.04593  0.60458  0.10307  1.0000
  H   H201      1.0  0.28877  0.66990  0.24514  1.0000
  H   H202      1.0  0.25945  0.63433  0.27911  1.0000
  S   S50       1.0  0.09150  0.68311  0.05545  1.0000
  S   S51       1.0  0.08583  0.53767  0.44073  1.0000
  C   C121      1.0  0.50374  0.63252  0.23385  1.0000
  H   H203      1.0  0.27124  0.54998  0.20633  1.0000
  C   C122      1.0  0.28765  0.64870  0.26560  1.0000
  C   C123      1.0  0.31259  0.69280  0.31862  1.0000
  H   H204      1.0  0.41574  0.51639  0.26378  1.0000
  C   C124      1.0  0.22343  0.54327  0.23777  1.0000
  S   S52       1.0  0.03366  0.65476  0.15120  1.0000
  H   H205      1.0  0.01939  0.55699  0.15525  1.0000
  C   C125      1.0  0.22532  0.53852  0.30809  1.0000
  C   C126      1.0  0.27780  0.54707  0.26839  1.0000
  H   H206      1.0  0.03333  0.57234  0.42696  1.0000
  H   H207      1.0  0.44891  0.75048  0.04248  1.0000
  C   C127      1.0  0.20635  0.53849  0.27420  1.0000
  H   H208      1.0  0.35726  0.70636  0.25664  1.0000
  C   C128      1.0  0.38777  0.53862  0.20650  1.0000
  C   C129      1.0  0.40320  0.56943  0.49815  1.0000
  S   S53       1.0  0.32193  0.55166  0.26248  1.0000
  N   N14       1.0  0.31709  0.66538  0.29557  1.0000
  C   C130      1.0  0.48567  0.59670  0.21881  1.0000
  C   C131      1.0  0.26119  0.54294  0.30518  1.0000
  C   C132      1.0  0.25863  0.54685  0.23482  1.0000
  H   H209      1.0  0.31435  0.71529  0.29976  1.0000
  H   H210      1.0  0.21246  0.53545  0.33642  1.0000
  C   C133      1.0  0.47594  0.74493  0.35632  1.0000
  Fe  Fe26      1.0  0.01531  0.70356  0.02138  1.0000
  H   H211      1.0  0.10669  0.59237  0.50002  1.0000
  H   H212      1.0  0.02962  0.52679  0.12701  1.0000
  H   H213      1.0  0.01518  0.63504  0.23174  1.0000
  S   S54       1.0  0.35658  0.59297  0.36981  1.0000
  Fe  Fe27      1.0  0.09818  0.73682  0.03505  1.0000
  H   H214      1.0  0.28608  0.61993  0.33490  1.0000
  H   H215      1.0  0.28532  0.67978  0.33401  1.0000
  H   H216      1.0  0.27584  0.54288  0.33128  1.0000
  H   H217      1.0  0.35831  0.66392  0.25865  1.0000
  Fe  Fe28      1.0  0.44998  0.62014  0.31704  1.0000
  S   S55       1.0  0.41155  0.63964  0.29650  1.0000
  C   C134      1.0  0.49012  0.59037  0.17930  1.0000
  Fe  Fe29      1.0  0.39844  0.57616  0.38540  1.0000
  H   H218      1.0  0.17073  0.72905  0.03781  1.0000
  H   H219      1.0  0.47721  0.56243  0.16823  1.0000
  Fe  Fe30      1.0  0.40618  0.64947  0.35992  1.0000
  S   S56       1.0  0.40256  0.69985  0.37684  1.0000
  S   S57       1.0  0.40462  0.56129  0.32362  1.0000
  S   S58       1.0  0.44779  0.63373  0.38063  1.0000
  H   H220      1.0  0.43363  0.51040  0.21828  1.0000
  C   C135      1.0  0.31430  0.63612  0.32187  1.0000
  C   C136      1.0  0.08187  0.53356  0.49212  1.0000
  H   H221      1.0  0.46994  0.57384  0.23833  1.0000
  H   H222      1.0  0.03005  0.59245  0.05358  1.0000
  C   C137      1.0  0.38095  0.53521  0.48032  1.0000
  H   H223      1.0  0.41894  0.59381  0.48036  1.0000
  H   H224      1.0  0.48888  0.52820  0.04200  1.0000
  C   C138      1.0  0.02183  0.56044  0.39770  1.0000
  H   H225      1.0  0.32055  0.61662  0.30608  1.0000
  C   C139      1.0  0.03488  0.58168  0.08136  1.0000
  H   H226      1.0  0.20904  0.54356  0.21153  1.0000
  S   S59       1.0  0.50455  0.63963  0.28483  1.0000
  Fe  Fe31      1.0  0.36582  0.58187  0.30818  1.0000
  H   H227      1.0  0.03331  0.74716  0.25469  1.0000
  H   H228      1.0  0.22851  0.72691  0.02596  1.0000
  H   H229      1.0  0.33428  0.64788  0.34648  1.0000
  C   C140      1.0  0.44314  0.74290  0.36960  1.0000
  S   S60       1.0  0.07471  0.51385  0.33533  1.0000
  H   H230      1.0  0.33472  0.70591  0.34130  1.0000
  H   H231      1.0  0.39507  0.55581  0.23344  1.0000
  H   H232      1.0  0.47666  0.71989  0.35032  1.0000
  H   H233      1.0  0.29036  0.62776  0.24797  1.0000
  H   H234      1.0  0.05709  0.57480  0.07560  1.0000
  C   C141      1.0  0.35392  0.68376  0.27636  1.0000
  C   C142      1.0  0.22855  0.75263  0.02240  1.0000
  H   H235      1.0  0.45342  0.54728  0.45860  1.0000
  S   S61       1.0  0.38143  0.52960  0.42913  1.0000
  H   H236      1.0  0.36447  0.54013  0.19235  1.0000
  H   H237      1.0  0.41201  0.55187  0.18640  1.0000
  H   H238      1.0  0.01951  0.58177  0.38051  1.0000
  C   C143      1.0  0.46639  0.53977  0.48265  1.0000
  H   H239      1.0  0.49609  0.56182  0.48423  1.0000
  C   C144      1.0  0.09425  0.56580  0.51446  1.0000
  H   H240      1.0  0.04285  0.55541  0.38305  1.0000
  C   C145      1.0  0.36091  0.50377  0.50382  1.0000
  H   H241      1.0  0.46551  0.50812  0.41345  1.0000
  H   H242      1.0  0.16628  0.58050  0.58321  1.0000
  S   S62       1.0  0.06241  0.71298  0.98186  1.0000
  S   S63       1.0  0.06296  0.61856  0.96869  1.0000
  H   H243      1.0  0.02400  0.53865  0.69919  1.0000
  H   H244      1.0  0.27987  0.60025  0.72963  1.0000
  Fe  Fe32      1.0  0.09575  0.61212  0.74098  1.0000
  S   S64       1.0  0.15474  0.65846  0.73652  1.0000
  S   S65       1.0  0.05291  0.60842  0.78473  1.0000
  Fe  Fe33      1.0  0.10006  0.57758  0.66301  1.0000
  S   S66       1.0  0.15904  0.62150  0.65210  1.0000
  S   S67       1.0  0.06786  0.52659  0.62546  1.0000
  Fe  Fe34      1.0  0.16693  0.61430  0.71576  1.0000
  S   S68       1.0  0.21861  0.61330  0.73362  1.0000
  Fe  Fe35      1.0  0.14171  0.66154  0.67352  1.0000
  S   S69       1.0  0.15247  0.71387  0.64284  1.0000
  S   S70       1.0  0.10892  0.56762  0.72566  1.0000
  S   S71       1.0  0.08164  0.61787  0.67897  1.0000
  H   H245      1.0  0.20941  0.73481  0.91937  1.0000
  C   C146      1.0  0.48624  0.53948  0.01348  1.0000
  H   H246      1.0  0.50255  0.59616  0.68799  1.0000
  H   H247      1.0  0.16107  0.53676  0.72120  1.0000
  H   H248      1.0  0.14454  0.72359  0.97262  1.0000
  C   C147      1.0  0.22021  0.57242  0.72592  1.0000
  C   C148      1.0  0.25475  0.57411  0.72499  1.0000
  C   C149      1.0  0.14958  0.51918  0.62307  1.0000
  N   N15       1.0  0.18236  0.54046  0.59775  1.0000
  C   C150      1.0  0.18786  0.53847  0.72005  1.0000
  C   C151      1.0  0.06233  0.61866  0.83489  1.0000
  C   C152      1.0  0.08610  0.60990  0.85519  1.0000
  C   C153      1.0  0.08702  0.61108  0.89631  1.0000
  C   C154      1.0  0.06534  0.62240  0.91726  1.0000
  C   C155      1.0  0.04385  0.63394  0.89682  1.0000
  H   H249      1.0  0.49917  0.66575  0.70401  1.0000
  H   H250      1.0  0.10195  0.59997  0.83935  1.0000
  H   H251      1.0  0.10385  0.60227  0.91198  1.0000
  H   H252      1.0  0.11513  0.74943  0.90764  1.0000
  C   C156      1.0  0.38483  0.71746  0.95110  1.0000
  H   H253      1.0  0.28386  0.54418  0.71609  1.0000
  C   C157      1.0  0.19019  0.50652  0.71304  1.0000
  C   C158      1.0  0.14864  0.71523  0.87439  1.0000
  C   C159      1.0  0.17398  0.56143  0.56871  1.0000
  H   H254      1.0  0.42747  0.55175  0.73109  1.0000
  C   C160      1.0  0.36378  0.50624  0.54482  1.0000
  C   C161      1.0  0.04181  0.63137  0.85581  1.0000
  S   S72       1.0  0.47872  0.71321  0.99843  1.0000
  H   H255      1.0  0.38538  0.71564  0.91869  1.0000
  C   C162      1.0  0.25708  0.54230  0.71734  1.0000
  C   C163      1.0  0.09055  0.56402  0.55536  1.0000
  H   H256      1.0  0.37381  0.68914  0.96311  1.0000
  H   H257      1.0  0.10008  0.58908  0.57217  1.0000
  H   H258      1.0  0.04738  0.52278  0.87744  1.0000
  H   H259      1.0  0.00999  0.55642  0.63498  1.0000
  H   H260      1.0  0.20807  0.58506  0.63927  1.0000
  C   C164      1.0  0.07385  0.52984  0.57424  1.0000
  H   H261      1.0  0.19822  0.57831  0.54939  1.0000
  Fe  Fe36      1.0  0.05311  0.65868  0.00430  1.0000
  C   C165      1.0  0.47754  0.59723  0.67841  1.0000
  H   H262      1.0  0.02323  0.63804  0.84033  1.0000
  H   H263      1.0  0.02696  0.64263  0.91267  1.0000
  C   C166      1.0  0.42894  0.61004  0.69644  1.0000
  H   H264      1.0  0.32379  0.71127  0.91630  1.0000
  S   S73       1.0  0.37999  0.51151  0.80367  1.0000
  H   H265      1.0  0.23927  0.58385  0.60365  1.0000
  C   C167      1.0  0.48913  0.64388  0.72681  1.0000
  H   H266      1.0  0.15024  0.54271  0.54967  1.0000
  H   H267      1.0  0.40081  0.51394  0.88379  1.0000
  H   H268      1.0  0.43712  0.63111  0.67295  1.0000
  H   H269      1.0  0.15710  0.69381  0.87405  1.0000
  C   C168      1.0  0.21439  0.56631  0.62188  1.0000
  H   H270      1.0  0.16237  0.73406  0.84923  1.0000
  C   C169      1.0  0.36133  0.73469  0.00716  1.0000
  C   C170      1.0  0.13982  0.70920  0.94416  1.0000
  H   H271      1.0  0.42479  0.59817  0.55269  1.0000
  H   H272      1.0  0.31063  0.68302  0.95954  1.0000
  C   C171      1.0  0.44883  0.57937  0.74203  1.0000
  H   H273      1.0  0.14312  0.53772  0.64061  1.0000
  H   H274      1.0  0.03210  0.53814  0.83616  1.0000
  H   H275      1.0  0.41531  0.61708  0.72029  1.0000
  H   H276      1.0  0.45739  0.56953  0.66652  1.0000
  C   C172      1.0  0.32417  0.71201  0.94882  1.0000
  S   S74       1.0  0.39518  0.54377  0.61357  1.0000
  C   C173      1.0  0.38718  0.54019  0.56260  1.0000
  H   H277      1.0  0.30654  0.72378  0.95832  1.0000
  C   C174      1.0  0.40661  0.57179  0.53914  1.0000
  C   C175      1.0  0.19145  0.51477  0.57738  1.0000
  H   H278      1.0  0.48598  0.61719  0.65377  1.0000
  N   N16       1.0  0.46114  0.60764  0.71094  1.0000
  H   H279      1.0  0.21604  0.52985  0.55794  1.0000
  S   S75       1.0  0.33698  0.52183  0.70596  1.0000
  H   H280      1.0  0.47763  0.65248  0.75144  1.0000
  H   H281      1.0  0.40761  0.58337  0.68371  1.0000
  H   H282      1.0  0.48360  0.54024  0.93490  1.0000
  H   H283      1.0  0.43624  0.58615  0.76717  1.0000
  H   H284      1.0  0.14953  0.68885  0.94673  1.0000
  H   H285      1.0  0.47238  0.57665  0.75352  1.0000
  H   H286      1.0  0.11811  0.70070  0.86914  1.0000
  H   H287      1.0  0.22122  0.73098  0.68281  1.0000
  N   N17       1.0  0.15837  0.73554  0.91188  1.0000
  N   N18       1.0  0.36243  0.73407  0.96398  1.0000
  H   H288      1.0  0.22239  0.55124  0.64295  1.0000
  H   H289      1.0  0.10936  0.69342  0.93979  1.0000
  H   H290      1.0  0.45813  0.52051  0.00169  1.0000
  H   H291      1.0  0.34459  0.74703  0.01781  1.0000
  C   C176      1.0  0.50689  0.50601  0.76661  1.0000
  C   C177      1.0  0.02432  0.51434  0.85612  1.0000
  H   H292      1.0  0.01485  0.54148  0.92344  1.0000
  C   C178      1.0  0.22483  0.50839  0.71108  1.0000
  H   H293      1.0  0.49836  0.51995  0.78872  1.0000
  C   C179      1.0  0.19754  0.75251  0.64184  1.0000
  H   H294      1.0  0.41415  0.73412  0.96092  1.0000
  H   H295      1.0  0.48778  0.56626  0.02010  1.0000
  H   H296      1.0  0.34892  0.70642  0.01967  1.0000
  H   H297      1.0  0.38958  0.75137  0.01968  1.0000
  Fe  Fe37      1.0  0.10460  0.96138  0.35535  1.0000
  H   H298      1.0  0.03088  0.79432  0.40031  1.0000
  Fe  Fe38      1.0  0.05451  0.97190  0.29799  1.0000
  C   C180      1.0  0.44257  0.77561  0.37721  1.0000
  C   C181      1.0  0.27555  0.00087  0.42625  1.0000
  H   H299      1.0  0.03294  0.78148  0.02143  1.0000
  S   S76       1.0  0.05856  0.92236  0.31557  1.0000
  S   S77       1.0  0.06677  0.95122  0.40674  1.0000
  H   H300      1.0  0.11648  0.98352  0.18009  1.0000
  H   H301      1.0  0.45137  0.81041  0.03245  1.0000
  C   C182      1.0  0.50765  0.81221  0.35899  1.0000
  H   H302      1.0  0.37885  0.95535  0.08616  1.0000
  Fe  Fe39      1.0  0.02059  0.91742  0.36472  1.0000
  S   S78       1.0  0.36042  0.88714  0.03538  1.0000
  H   H303      1.0  0.41729  0.77420  0.38756  1.0000
  S   S79       1.0  0.49575  0.96415  0.45454  1.0000
  S   S80       1.0  0.15802  0.95949  0.35996  1.0000
  C   C183      1.0  0.19531  0.78678  0.02381  1.0000
  H   H304      1.0  0.22902  0.96738  0.34153  1.0000
  H   H305      1.0  0.38654  0.90871  0.49091  1.0000
  S   S81       1.0  0.50229  0.92124  0.35180  1.0000
  H   H306      1.0  0.14338  0.96149  0.17090  1.0000
  H   H307      1.0  0.48196  0.97412  0.31971  1.0000
  H   H308      1.0  0.33690  0.97214  0.47467  1.0000
  H   H309      1.0  0.02933  0.85227  0.38888  1.0000
  C   C184      1.0  0.35745  0.99797  0.48757  1.0000
  H   H310      1.0  0.47484  0.98673  0.36784  1.0000
  C   C185      1.0  0.01767  0.96169  0.16460  1.0000
  C   C186      1.0  0.19915  0.99721  0.34182  1.0000
  C   C187      1.0  0.50565  0.97247  0.18388  1.0000
  S   S82       1.0  0.01337  0.96468  0.34454  1.0000
  H   H311      1.0  0.38532  0.94949  0.50492  1.0000
  C   C188      1.0  0.50158  0.96130  0.22321  1.0000
  C   C189      1.0  0.14516  0.98765  0.18096  1.0000
  C   C190      1.0  0.40751  0.97081  0.09820  1.0000
  H   H312      1.0  0.42303  0.95758  0.08664  1.0000
  H   H313      1.0  0.04476  0.97335  0.15106  1.0000
  C   C191      1.0  0.23043  0.99344  0.33540  1.0000
  H   H314      1.0  0.43575  0.95800  0.33725  1.0000
  C   C192      1.0  0.46937  0.92918  0.23472  1.0000
  H   H315      1.0  0.48144  0.96035  0.12601  1.0000
  H   H316      1.0  0.13673  0.94157  0.24071  1.0000
  Fe  Fe40      1.0  0.40850  0.89067  0.06931  1.0000
  S   S83       1.0  0.40763  0.89508  0.13557  1.0000
  S   S84       1.0  0.40074  0.83718  0.04550  1.0000
  H   H317      1.0  0.01023  0.75963  0.21842  1.0000
  H   H318      1.0  0.24814  0.98138  0.41307  1.0000
  H   H319      1.0  0.02311  0.78505  0.30512  1.0000
  C   C193      1.0  0.44119  0.90894  0.20729  1.0000
  H   H320      1.0  0.28427  0.98450  0.44450  1.0000
  C   C194      1.0  0.44533  0.91990  0.16791  1.0000
  S   S85       1.0  0.05565  0.98540  0.23367  1.0000
  H   H321      1.0  0.40550  0.96666  0.13046  1.0000
  C   C195      1.0  0.47472  0.81022  0.37183  1.0000
  H   H322      1.0  0.47414  0.83529  0.37800  1.0000
  H   H323      1.0  0.41596  0.88460  0.21664  1.0000
  H   H324      1.0  0.46575  0.92035  0.26489  1.0000
  H   H325      1.0  0.40042  0.00030  0.03107  1.0000
  H   H326      1.0  0.42761  0.95323  0.48732  1.0000
  H   H327      1.0  0.05399  0.98692  0.47454  1.0000
  H   H328      1.0  0.10838  0.96225  0.24787  1.0000
  C   C196      1.0  0.47793  0.95155  0.15616  1.0000
  C   C197      1.0  0.13747  0.96782  0.24815  1.0000
  C   C198      1.0  0.46446  0.98206  0.33717  1.0000
  H   H329      1.0  0.42381  0.98403  0.27760  1.0000
  C   C199      1.0  0.40254  0.93602  0.50550  1.0000
  Fe  Fe41      1.0  0.06249  0.99893  0.38320  1.0000
  H   H330      1.0  0.47073  0.00167  0.26118  1.0000
  H   H331      1.0  0.14770  0.97495  0.27867  1.0000
  H   H332      1.0  0.25034  0.99466  0.49964  1.0000
  S   S86       1.0  0.15389  0.78867  0.02727  1.0000
  H   H333      1.0  0.19918  0.97778  0.21124  1.0000
  S   S87       1.0  0.45055  0.92594  0.02377  1.0000
  C   C200      1.0  0.01477  0.96242  0.20545  1.0000
  N   N19       1.0  0.16106  0.99775  0.22067  1.0000
  H   H334      1.0  0.21678  0.99426  0.46630  1.0000
  H   H335      1.0  0.41201  0.00172  0.34368  1.0000
  C   C201      1.0  0.19573  0.75378  0.02903  1.0000
  C   C202      1.0  0.50811  0.77948  0.35121  1.0000
  C   C203      1.0  0.19904  0.00315  0.22079  1.0000
  H   H336      1.0  0.44434  0.00204  0.03166  1.0000
  S   S88       1.0  0.30304  0.94669  0.62751  1.0000
  S   S89       1.0  0.30458  0.92028  0.71903  1.0000
  Fe  Fe42      1.0  0.32018  0.91052  0.65923  1.0000
  S   S90       1.0  0.31280  0.85588  0.63917  1.0000
  Fe  Fe43      1.0  0.29241  0.96073  0.68795  1.0000
  C   C204      1.0  0.26809  0.81669  0.64117  1.0000
  C   C205      1.0  0.23956  0.81464  0.61784  1.0000
  H   H337      1.0  0.22659  0.85560  0.74410  1.0000
  H   H338      1.0  0.18238  0.78130  0.60021  1.0000
  C   C206      1.0  0.26149  0.78628  0.66426  1.0000
  H   H339      1.0  0.24480  0.83748  0.59894  1.0000
  H   H340      1.0  0.18386  0.85023  0.76337  1.0000
  H   H341      1.0  0.28373  0.78740  0.68170  1.0000
  H   H342      1.0  0.22528  0.89543  0.66805  1.0000
  C   C207      1.0  0.15627  0.85707  0.69509  1.0000
  C   C208      1.0  0.21378  0.86509  0.66916  1.0000
  N   N20       1.0  0.18599  0.84789  0.70067  1.0000
  H   H343      1.0  0.28628  0.84263  0.99870  1.0000
  H   H344      1.0  0.19193  0.79965  0.70302  1.0000
  S   S91       1.0  0.23994  0.96222  0.70121  1.0000
  H   H345      1.0  0.44356  0.96755  0.59379  1.0000
  H   H346      1.0  0.15604  0.79553  0.67107  1.0000
  H   H347      1.0  0.14909  0.79331  0.72297  1.0000
  H   H348      1.0  0.13467  0.84450  0.71826  1.0000
  H   H349      1.0  0.14232  0.84705  0.66633  1.0000
  C   C209      1.0  0.20408  0.86218  0.73888  1.0000
  Fe  Fe44      1.0  0.43954  0.87190  0.99789  1.0000
  H   H350      1.0  0.16764  0.88755  0.69602  1.0000
  H   H351      1.0  0.21690  0.89277  0.74050  1.0000
  H   H352      1.0  0.46434  0.96280  0.92006  1.0000
  C   C210      1.0  0.22621  0.75427  0.66478  1.0000
  H   H353      1.0  0.23757  0.86034  0.67352  1.0000
  H   H354      1.0  0.20148  0.85390  0.64001  1.0000
  C   C211      1.0  0.17003  0.80738  0.69947  1.0000
  H   H355      1.0  0.15241  0.77845  0.93980  1.0000
  H   H356      1.0  0.20718  0.77090  0.94516  1.0000
  Fe  Fe45      1.0  0.35571  0.83618  0.00855  1.0000
  C   C212      1.0  0.19903  0.75468  0.91758  1.0000
  H   H357      1.0  0.15927  0.78354  0.88783  1.0000
  H   H358      1.0  0.36258  0.78517  0.95747  1.0000
  C   C213      1.0  0.39128  0.99468  0.84450  1.0000
  C   C214      1.0  0.37873  0.91042  0.56933  1.0000
  C   C215      1.0  0.43514  0.96928  0.56340  1.0000
  H   H359      1.0  0.36174  0.92418  0.57119  1.0000
  C   C216      1.0  0.46590  0.76879  0.01932  1.0000
  H   H360      1.0  0.18531  0.98427  0.71243  1.0000
  N   N21       1.0  0.41277  0.93224  0.54587  1.0000
  C   C217      1.0  0.26143  0.78469  0.01169  1.0000
  C   C218      1.0  0.01742  0.82278  0.01015  1.0000
  H   H361      1.0  0.05089  0.98432  0.54692  1.0000
  H   H362      1.0  0.46044  0.92880  0.52752  1.0000
  H   H363      1.0  0.38109  0.77295  0.91639  1.0000
  Fe  Fe46      1.0  0.40162  0.91712  0.98724  1.0000
  S   S92       1.0  0.40097  0.96388  0.95433  1.0000
  S   S93       1.0  0.39381  0.86582  0.95817  1.0000
  H   H364      1.0  0.39581  0.91288  0.89223  1.0000
  Fe  Fe47      1.0  0.36304  0.96758  0.72283  1.0000
  H   H365      1.0  0.34606  0.97675  0.54665  1.0000
  S   S94       1.0  0.37956  0.95519  0.66474  1.0000
  C   C219      1.0  0.39372  0.96252  0.90306  1.0000
  C   C220      1.0  0.43471  0.91326  0.54525  1.0000
  C   C221      1.0  0.48773  0.82564  0.98267  1.0000
  C   C222      1.0  0.39405  0.93545  0.87918  1.0000
  C   C223      1.0  0.48596  0.75821  0.99476  1.0000
  H   H366      1.0  0.46085  0.98664  0.54621  1.0000
  C   C224      1.0  0.37926  0.77219  0.94884  1.0000
  H   H367      1.0  0.41937  0.98431  0.56440  1.0000
  Fe  Fe48      1.0  0.36133  0.99237  0.63817  1.0000
  H   H368      1.0  0.21405  0.77431  0.89337  1.0000
  C   C225      1.0  0.20436  0.78275  0.61837  1.0000
  C   C226      1.0  0.39436  0.93877  0.83811  1.0000
  H   H369      1.0  0.46945  0.94644  0.87327  1.0000
  S   S95       1.0  0.30182  0.78226  0.00173  1.0000
  H   H370      1.0  0.39693  0.91898  0.81994  1.0000
  H   H371      1.0  0.50038  0.95180  0.91261  1.0000
  S   S96       1.0  0.48671  0.86634  0.97238  1.0000
  H   H372      1.0  0.44317  0.91014  0.57521  1.0000
  S   S97       1.0  0.40550  0.97897  0.77061  1.0000
  H   H373      1.0  0.40787  0.79000  0.96033  1.0000
  H   H374      1.0  0.38538  0.90634  0.59980  1.0000
  C   C227      1.0  0.26126  0.81786  0.00748  1.0000
  C   C228      1.0  0.50794  0.78196  0.96493  1.0000
  C   C229      1.0  0.48509  0.96425  0.89849  1.0000
  C   C230      1.0  0.01134  0.78657  0.01110  1.0000
  C   C231      1.0  0.39329  0.96859  0.82053  1.0000
  C   C232      1.0  0.14576  0.76295  0.91163  1.0000
  C   C233      1.0  0.36259  0.00050  0.52834  1.0000
  H   H375      1.0  0.36077  0.88243  0.55676  1.0000
  C   C234      1.0  0.46694  0.80251  0.01342  1.0000
  C   C235      1.0  0.22830  0.81885  0.01340  1.0000
  H   H376      1.0  0.22825  0.84449  0.00936  1.0000
  H   H377      1.0  0.47312  0.00078  0.84125  1.0000
  H   H378      1.0  0.41863  0.88518  0.53227  1.0000
  C   C236      1.0  0.39142  0.99161  0.88545  1.0000
  C   C237      1.0  0.23964  0.00293  0.68797  1.0000
  H   H379      1.0  0.04380  0.84549  0.01965  1.0000
  C   C238      1.0  0.93017  0.19872  0.10809  1.0000
  C   C239      1.0  0.52982  0.05995  0.51306  1.0000
  H   H380      1.0  0.94508  0.18009  0.03814  1.0000
  H   H381      1.0  0.68996  0.04745  0.47986  1.0000
  H   H382      1.0  0.00221  0.06097  0.39885  1.0000
  C   C240      1.0  0.51674  0.03289  0.48367  1.0000
  H   H383      1.0  0.53728  0.13663  0.12837  1.0000
  S   S98       1.0  0.58024  0.21301  0.05759  1.0000
  H   H384      1.0  0.93917  0.21278  0.13689  1.0000
  H   H385      1.0  0.96259  0.02463  0.46325  1.0000
  H   H386      1.0  0.98730  0.03706  0.07669  1.0000
  H   H387      1.0  0.93478  0.17472  0.10856  1.0000
  Fe  Fe49      1.0  0.52844  0.16302  0.03598  1.0000
  H   H388      1.0  0.66444  0.12113  0.48331  1.0000
  H   H389      1.0  0.52726  0.08431  0.50935  1.0000
  C   C241      1.0  0.56209  0.21359  0.25320  1.0000
  H   H390      1.0  0.53589  0.12869  0.20038  1.0000
  H   H391      1.0  0.91407  0.01710  0.11484  1.0000
  H   H392      1.0  0.52319  0.04048  0.30424  1.0000
  S   S99       1.0  0.99534  0.15173  0.26506  1.0000
  C   C242      1.0  0.62548  0.04767  0.47568  1.0000
  H   H393      1.0  0.69733  0.08908  0.45712  1.0000
  H   H394      1.0  0.00311  0.01730  0.11334  1.0000
  H   H395      1.0  0.74062  0.05185  0.41802  1.0000
  H   H396      1.0  0.90914  0.19184  0.03276  1.0000
  N   N22       1.0  0.53718  0.22536  0.27085  1.0000
  C   C243      1.0  0.95963  0.01778  0.17153  1.0000
  C   C244      1.0  0.93932  0.20341  0.03830  1.0000
  H   H397      1.0  0.97198  0.09022  0.33582  1.0000
  H   H398      1.0  0.51509  0.05277  0.35206  1.0000
  N   N23       1.0  0.65644  0.06885  0.50309  1.0000
  Fe  Fe50      1.0  0.94669  0.13755  0.30560  1.0000
  S   S100      1.0  0.90958  0.16222  0.30428  1.0000
  H   H399      1.0  0.63106  0.06122  0.44650  1.0000
  Fe  Fe51      1.0  0.91260  0.09502  0.38164  1.0000
  S   S101      1.0  0.87322  0.11687  0.38707  1.0000
  S   S102      1.0  0.91208  0.04912  0.41790  1.0000
  Fe  Fe52      1.0  0.86390  0.10589  0.32272  1.0000
  S   S103      1.0  0.80765  0.07867  0.29317  1.0000
  Fe  Fe53      1.0  0.92162  0.17152  0.36845  1.0000
  S   S104      1.0  0.92968  0.22426  0.39578  1.0000
  S   S105      1.0  0.90010  0.08032  0.31803  1.0000
  S   S106      1.0  0.96209  0.15077  0.36907  1.0000
  N   N24       1.0  0.97019  0.03992  0.13527  1.0000
  H   H400      1.0  0.98216  0.01272  0.18158  1.0000
  C   C245      1.0  0.95430  0.13184  0.15436  1.0000
  C   C246      1.0  0.99111  0.15217  0.21372  1.0000
  C   C247      1.0  0.70139  0.23671  0.03107  1.0000
  C   C248      1.0  0.97947  0.02107  0.10446  1.0000
  C   C249      1.0  0.98663  0.14873  0.13131  1.0000
  H   H401      1.0  0.92741  0.11664  0.14047  1.0000
  H   H402      1.0  0.54742  0.18313  0.24881  1.0000
  H   H403      1.0  0.00155  0.10348  0.40032  1.0000
  C   C250      1.0  0.69142  0.07436  0.48567  1.0000
  H   H404      1.0  0.97189  0.04744  0.33372  1.0000
  S   S107      1.0  0.56608  0.00857  0.36734  1.0000
  H   H405      1.0  0.79673  0.07305  0.37727  1.0000
  C   C251      1.0  0.93357  0.07602  0.49250  1.0000
  C   C252      1.0  0.76782  0.06359  0.32273  1.0000
  C   C253      1.0  0.73294  0.05068  0.30521  1.0000
  H   H406      1.0  0.59916  0.04511  0.48664  1.0000
  C   C254      1.0  0.73832  0.05154  0.38653  1.0000
  C   C255      1.0  0.65952  0.10508  0.51078  1.0000
  N   N25       1.0  0.95081  0.22397  0.07558  1.0000
  H   H407      1.0  0.89974  0.18765  0.10531  1.0000
  H   H408      1.0  0.73084  0.05054  0.27369  1.0000
  C   C256      1.0  0.90696  0.04765  0.46927  1.0000
  C   C257      1.0  0.70083  0.03834  0.32834  1.0000
  C   C258      1.0  0.95647  0.13378  0.19540  1.0000
  H   H409      1.0  0.95497  0.10105  0.47895  1.0000
  S   S108      1.0  0.98280  0.14207  0.08014  1.0000
  C   C259      1.0  0.52369  0.20692  0.30907  1.0000
  H   H410      1.0  0.93009  0.05716  0.14522  1.0000
  H   H411      1.0  0.99255  0.08078  0.29476  1.0000
  H   H412      1.0  0.57251  0.22663  0.22410  1.0000
  H   H413      1.0  0.94610  0.06206  0.09565  1.0000
  C   C260      1.0  0.77027  0.06373  0.36346  1.0000
  H   H414      1.0  0.62079  0.01930  0.47092  1.0000
  H   H415      1.0  0.99836  0.21695  0.08258  1.0000
  H   H416      1.0  0.54691  0.21459  0.32993  1.0000
  H   H417      1.0  0.99811  0.24019  0.35607  1.0000
  H   H418      1.0  0.93142  0.12023  0.21289  1.0000
  H   H419      1.0  0.58657  0.22095  0.27211  1.0000
  H   H420      1.0  0.71552  0.09068  0.50525  1.0000
  C   C261      1.0  0.70357  0.03876  0.36907  1.0000
  H   H421      1.0  0.67411  0.02876  0.31464  1.0000
  C   C262      1.0  0.98872  0.07744  0.32701  1.0000
  C   C263      1.0  0.93874  0.04427  0.12214  1.0000
  C   C264      1.0  0.87996  0.01491  0.48727  1.0000
  H   H422      1.0  0.95352  0.03181  0.19568  1.0000
  H   H423      1.0  0.51437  0.22763  0.21515  1.0000
  H   H424      1.0  0.91270  0.24440  0.06858  1.0000
  H   H425      1.0  0.99539  0.01889  0.49203  1.0000
  S   S109      1.0  0.66434  0.02296  0.39939  1.0000
  C   C265      1.0  0.99113  0.23918  0.08129  1.0000
  C   C266      1.0  0.51261  0.13070  0.14477  1.0000
  C   C267      1.0  0.51168  0.12603  0.18557  1.0000
  H   H426      1.0  0.99701  0.09125  0.16660  1.0000
  H   H427      1.0  0.66877  0.25062  0.06893  1.0000
  C   C268      1.0  0.96535  0.00670  0.48542  1.0000
  H   H428      1.0  0.95164  0.00843  0.51270  1.0000
  C   C269      1.0  0.00287  0.07654  0.14301  1.0000
  C   C270      1.0  0.73734  0.24466  0.02097  1.0000
  C   C271      1.0  0.97321  0.04583  0.90588  1.0000
  C   C272      1.0  0.88003  0.01024  0.52805  1.0000
  H   H429      1.0  0.83076  0.07646  0.68311  1.0000
  Fe  Fe54      1.0  0.56765  0.24304  0.01102  1.0000
  Fe  Fe55      1.0  0.54898  0.18310  0.94893  1.0000
  H   H430      1.0  0.63864  0.19070  0.83160  1.0000
  Fe  Fe56      1.0  0.60966  0.09215  0.72021  1.0000
  Fe  Fe57      1.0  0.67292  0.14979  0.67157  1.0000
  S   S110      1.0  0.58704  0.08141  0.78221  1.0000
  Fe  Fe58      1.0  0.59938  0.09645  0.63265  1.0000
  S   S111      1.0  0.60110  0.23499  0.96463  1.0000
  S   S112      1.0  0.55943  0.08971  0.58426  1.0000
  H   H431      1.0  0.83533  0.12862  0.64434  1.0000
  S   S113      1.0  0.58926  0.04964  0.67203  1.0000
  S   S114      1.0  0.61461  0.13779  0.68187  1.0000
  C   C273      1.0  0.57674  0.11127  0.80925  1.0000
  C   C274      1.0  0.58093  0.11275  0.85002  1.0000
  C   C275      1.0  0.56906  0.13273  0.87318  1.0000
  C   C276      1.0  0.55247  0.15113  0.85575  1.0000
  C   C277      1.0  0.54941  0.15070  0.81480  1.0000
  C   C278      1.0  0.56185  0.13115  0.79157  1.0000
  H   H432      1.0  0.59331  0.09825  0.86385  1.0000
  H   H433      1.0  0.57206  0.13328  0.90461  1.0000
  H   H434      1.0  0.53706  0.10474  0.66285  1.0000
  H   H435      1.0  0.55880  0.13053  0.76018  1.0000
  H   H436      1.0  0.68283  0.12201  0.53108  1.0000
  H   H437      1.0  0.78436  0.03037  0.61347  1.0000
  N   N26       1.0  0.00694  0.04430  0.91629  1.0000
  S   S115      1.0  0.65843  0.11332  0.61880  1.0000
  C   C279      1.0  0.54538  0.05546  0.54748  1.0000
  H   H438      1.0  0.66938  0.22032  0.64670  1.0000
  H   H439      1.0  0.94334  0.01053  0.73611  1.0000
  H   H440      1.0  0.95557  0.09275  0.55064  1.0000
  Fe  Fe59      1.0  0.64947  0.06850  0.66084  1.0000
  H   H441      1.0  0.84875  0.08055  0.55953  1.0000
  S   S116      1.0  0.55764  0.14698  0.99098  1.0000
  S   S117      1.0  0.66603  0.02807  0.63804  1.0000
  S   S118      1.0  0.78653  0.00607  0.72844  1.0000
  H   H442      1.0  0.84501  0.04268  0.58781  1.0000
  H   H443      1.0  0.69788  0.17619  0.76016  1.0000
  H   H444      1.0  0.62991  0.18773  0.76033  1.0000
  H   H445      1.0  0.87958  0.13769  0.62568  1.0000
  C   C280      1.0  0.52970  0.02541  0.92059  1.0000
  C   C281      1.0  0.75169  0.01064  0.70426  1.0000
  S   S119      1.0  0.53443  0.17390  0.88432  1.0000
  H   H446      1.0  0.88512  0.08755  0.59277  1.0000
  H   H447      1.0  0.84314  0.13059  0.59249  1.0000
  H   H448      1.0  0.98725  0.04453  0.75617  1.0000
  H   H449      1.0  0.54872  0.05473  0.91242  1.0000
  H   H450      1.0  0.66921  0.20863  0.72835  1.0000
  H   H451      1.0  0.67255  0.06316  0.56129  1.0000
  C   C282      1.0  0.54770  0.02337  0.55229  1.0000
  H   H452      1.0  0.62368  0.04432  0.55478  1.0000
  H   H453      1.0  0.52872  0.05834  0.71393  1.0000
  C   C283      1.0  0.74323  0.03750  0.71699  1.0000
  C   C284      1.0  0.71668  0.04284  0.69717  1.0000
  N   N27       1.0  0.83577  0.08132  0.62042  1.0000
  C   C285      1.0  0.65859  0.21147  0.75719  1.0000
  C   C286      1.0  0.69839  0.02123  0.66457  1.0000
  H   H454      1.0  0.75737  0.05434  0.74216  1.0000
  H   H455      1.0  0.53243  0.23841  0.91335  1.0000
  S   S120      1.0  0.72495  0.20490  0.67950  1.0000
  H   H456      1.0  0.65691  0.23721  0.75616  1.0000
  N   N28       1.0  0.68283  0.21241  0.78923  1.0000
  S   S121      1.0  0.66899  0.10619  0.71270  1.0000
  C   C287      1.0  0.64935  0.04830  0.54021  1.0000
  C   C288      1.0  0.90766  0.03805  0.55097  1.0000
  H   H457      1.0  0.87476  0.08485  0.66401  1.0000
  H   H458      1.0  0.50948  0.02511  0.94223  1.0000
  C   C289      1.0  0.85444  0.07272  0.58870  1.0000
  H   H459      1.0  0.65757  0.15322  0.79089  1.0000
  C   C290      1.0  0.79520  0.06069  0.61400  1.0000
  H   H460      1.0  0.98033  0.07296  0.89267  1.0000
  N   N29       1.0  0.99107  0.01659  0.70507  1.0000
  H   H461      1.0  0.68438  0.21529  0.85206  1.0000
  H   H462      1.0  0.78015  0.06614  0.63771  1.0000
  H   H463      1.0  0.83424  0.04029  0.65932  1.0000
  C   C291      1.0  0.84906  0.12135  0.62072  1.0000
  H   H464      1.0  0.78754  0.06830  0.58581  1.0000
  C   C292      1.0  0.84436  0.07041  0.65834  1.0000
  H   H465      1.0  0.71050  0.06373  0.70707  1.0000
  H   H466      1.0  0.64605  0.02046  0.53561  1.0000
  Fe  Fe60      1.0  0.60855  0.19992  0.00897  1.0000
  C   C293      1.0  0.99636  0.00874  0.93550  1.0000
  H   H467      1.0  0.70304  0.17784  0.81225  1.0000
  S   S122      1.0  0.66341  0.20152  0.00585  1.0000
  C   C294      1.0  0.68540  0.17841  0.78816  1.0000
  S   S123      1.0  0.91142  0.03224  0.60161  1.0000
  H   H468      1.0  0.96373  0.03888  0.67034  1.0000
  H   H469      1.0  0.53684  0.16508  0.80109  1.0000
  H   H470      1.0  0.95583  0.02394  0.88449  1.0000
  H   H471      1.0  0.95552  0.04174  0.93199  1.0000
  H   H472      1.0  0.66463  0.24013  0.82887  1.0000
  H   H473      1.0  0.74123  0.22905  0.99807  1.0000
  C   C295      1.0  0.99221  0.04450  0.67771  1.0000
  H   H474      1.0  0.55884  0.01916  0.57911  1.0000
  C   C296      1.0  0.72447  0.24622  0.67104  1.0000
  C   C297      1.0  0.97238  0.01709  0.74167  1.0000
  H   H475      1.0  0.55792  0.03196  0.84842  1.0000
  H   H476      1.0  0.51452  0.12080  0.69601  1.0000
  C   C298      1.0  0.93403  0.07112  0.53312  1.0000
  S   S124      1.0  0.51461  0.19398  0.99180  1.0000
  H   H477      1.0  0.95449  0.22154  0.01313  1.0000
  H   H478      1.0  0.73926  0.24695  0.80833  1.0000
  H   H479      1.0  0.00585  0.04460  0.64962  1.0000
  C   C299      1.0  0.69341  0.24609  0.65521  1.0000
  C   C300      1.0  0.66698  0.21479  0.82711  1.0000
  H   H480      1.0  0.63364  0.10182  0.52443  1.0000
  H   H481      1.0  0.73330  0.24326  0.75638  1.0000
  C   C301      1.0  0.72033  0.24488  0.78428  1.0000
  H   H482      1.0  0.97962  0.00484  0.96236  1.0000
  H   H483      1.0  0.00789  0.07279  0.69015  1.0000
  C   C302      1.0  0.50969  0.10068  0.67232  1.0000
  H   H484      1.0  0.54647  0.01509  0.93563  1.0000
  H   H485      1.0  0.56741  0.28076  0.24821  1.0000
  C   C303      1.0  0.50953  0.31999  0.35495  1.0000
  N   N30       1.0  0.75681  0.49755  0.42988  1.0000
  Fe  Fe61      1.0  0.59485  0.49594  0.31182  1.0000
  C   C304      1.0  0.69645  0.25673  0.06092  1.0000
  H   H486      1.0  0.90853  0.33482  0.32913  1.0000
  Fe  Fe62      1.0  0.54022  0.41254  0.31431  1.0000
  H   H487      1.0  0.00748  0.25786  0.05688  1.0000
  C   C305      1.0  0.55766  0.26583  0.27652  1.0000
  S   S125      1.0  0.55218  0.45647  0.27004  1.0000
  S   S126      1.0  0.58763  0.45115  0.35318  1.0000
  S   S127      1.0  0.54280  0.46393  0.44831  1.0000
  H   H488      1.0  0.90122  0.26197  0.29872  1.0000
  Fe  Fe63      1.0  0.54588  0.46313  0.38199  1.0000
  Fe  Fe64      1.0  0.51211  0.46645  0.30357  1.0000
  H   H489      1.0  0.99786  0.33827  0.31071  1.0000
  H   H490      1.0  0.92333  0.35916  0.28364  1.0000
  C   C306      1.0  0.97229  0.26528  0.38890  1.0000
  H   H491      1.0  0.95000  0.27011  0.10253  1.0000
  H   H492      1.0  0.98888  0.37454  0.29725  1.0000
  H   H493      1.0  0.95867  0.27452  0.05114  1.0000
  H   H494      1.0  0.94488  0.48448  0.36321  1.0000
  S   S128      1.0  0.97802  0.43632  0.29131  1.0000
  H   H495      1.0  0.79087  0.47229  0.43330  1.0000
  H   H496      1.0  0.92203  0.28450  0.34388  1.0000
  C   C307      1.0  0.51050  0.39970  0.17666  1.0000
  Fe  Fe65      1.0  0.93779  0.40804  0.06693  1.0000
  S   S129      1.0  0.98688  0.44448  0.10563  1.0000
  S   S130      1.0  0.90515  0.34649  0.07405  1.0000
  C   C308      1.0  0.76341  0.29211  0.07087  1.0000
  C   C309      1.0  0.72745  0.28418  0.08105  1.0000
  H   H497      1.0  0.53995  0.27547  0.29082  1.0000
  H   H498      1.0  0.53047  0.39786  0.19697  1.0000
  S   S131      1.0  0.80197  0.32747  0.09533  1.0000
  C   C310      1.0  0.98059  0.43756  0.23965  1.0000
  C   C311      1.0  0.94787  0.41972  0.21741  1.0000
  C   C312      1.0  0.94939  0.42071  0.17624  1.0000
  C   C313      1.0  0.98366  0.44004  0.15710  1.0000
  H   H499      1.0  0.77585  0.38950  0.02910  1.0000
  H   H500      1.0  0.92122  0.40538  0.23196  1.0000
  H   H501      1.0  0.92402  0.40716  0.15935  1.0000
  C   C314      1.0  0.97668  0.29846  0.40389  1.0000
  H   H502      1.0  0.52665  0.42331  0.15648  1.0000
  S   S132      1.0  0.88776  0.41444  0.05896  1.0000
  N   N31       1.0  0.94152  0.31988  0.29329  1.0000
  H   H503      1.0  0.74250  0.46390  0.48156  1.0000
  H   H504      1.0  0.72359  0.29935  0.10445  1.0000
  H   H505      1.0  0.95850  0.34422  0.23625  1.0000
  C   C315      1.0  0.76830  0.27253  0.04056  1.0000
  C   C316      1.0  0.92758  0.28347  0.31217  1.0000
  H   H506      1.0  0.92211  0.29676  0.23624  1.0000
  H   H507      1.0  0.95435  0.29824  0.42044  1.0000
  C   C317      1.0  0.85416  0.49441  0.49989  1.0000
  C   C318      1.0  0.91376  0.33188  0.29778  1.0000
  Fe  Fe66      1.0  0.85547  0.35258  0.06115  1.0000
  H   H508      1.0  0.97248  0.35146  0.34316  1.0000
  H   H509      1.0  0.53348  0.35398  0.14975  1.0000
  H   H510      1.0  0.71431  0.48470  0.47290  1.0000
  H   H511      1.0  0.94802  0.27370  0.30994  1.0000
  H   H512      1.0  0.96909  0.30834  0.24686  1.0000
  H   H513      1.0  0.88674  0.31183  0.28426  1.0000
  C   C319      1.0  0.97673  0.34719  0.31191  1.0000
  C   C320      1.0  0.94810  0.31712  0.25128  1.0000
  C   C321      1.0  0.00132  0.26566  0.36777  1.0000
  H   H514      1.0  0.83823  0.46920  0.48345  1.0000
  C   C322      1.0  0.77588  0.47962  0.41133  1.0000
  H   H515      1.0  0.52792  0.34627  0.36858  1.0000
  S   S133      1.0  0.52467  0.35801  0.28530  1.0000
  C   C323      1.0  0.53077  0.29922  0.02462  1.0000
  C   C324      1.0  0.99002  0.49901  0.42500  1.0000
  C   C325      1.0  0.72914  0.47193  0.45833  1.0000
  H   H516      1.0  0.58237  0.27469  0.29555  1.0000
  H   H517      1.0  0.71721  0.48265  0.38305  1.0000
  H   H518      1.0  0.75600  0.45395  0.39567  1.0000
  H   H519      1.0  0.79587  0.27811  0.03291  1.0000
  H   H520      1.0  0.70777  0.44616  0.44386  1.0000
  H   H521      1.0  0.96319  0.47285  0.42870  1.0000
  H   H522      1.0  0.78866  0.35462  0.02587  1.0000
  H   H523      1.0  0.52891  0.37901  0.10946  1.0000
  H   H524      1.0  0.79700  0.49826  0.38971  1.0000
  C   C326      1.0  0.51303  0.35674  0.13118  1.0000
  C   C327      1.0  0.94259  0.25450  0.07456  1.0000
  C   C328      1.0  0.51287  0.48656  0.15982  1.0000
  H   H525      1.0  0.53244  0.50056  0.21895  1.0000
  H   H526      1.0  0.00103  0.25537  0.10879  1.0000
  H   H527      1.0  0.54033  0.50227  0.14715  1.0000
  C   C329      1.0  0.56739  0.50082  0.51787  1.0000
  H   H528      1.0  0.96081  0.49479  0.07558  1.0000
  H   H529      1.0  0.71948  0.27107  0.78348  1.0000
  H   H530      1.0  0.75500  0.40758  0.96850  1.0000
  H   H531      1.0  0.66975  0.27948  0.63735  1.0000
  H   H532      1.0  0.65913  0.45984  0.68681  1.0000
  H   H533      1.0  0.93828  0.45973  0.65853  1.0000
  H   H534      1.0  0.93295  0.48807  0.86048  1.0000
  H   H535      1.0  0.98746  0.50220  0.72711  1.0000
  H   H536      1.0  0.78051  0.32051  0.96475  1.0000
  C   C330      1.0  0.72672  0.33514  0.98359  1.0000
  C   C331      1.0  0.96463  0.30935  0.98209  1.0000
  S   S134      1.0  0.85751  0.34575  0.99648  1.0000
  H   H537      1.0  0.97308  0.44593  0.88203  1.0000
  H   H538      1.0  0.95137  0.26227  0.94579  1.0000
  H   H539      1.0  0.84089  0.46653  0.55591  1.0000
  Fe  Fe67      1.0  0.89316  0.40713  0.99461  1.0000
  S   S135      1.0  0.87909  0.44055  0.95292  1.0000
  Fe  Fe68      1.0  0.84295  0.47883  0.65436  1.0000
  C   C332      1.0  0.78765  0.37686  0.00928  1.0000
  S   S136      1.0  0.78278  0.46211  0.65906  1.0000
  H   H540      1.0  0.56883  0.47530  0.76232  1.0000
  Fe  Fe69      1.0  0.84031  0.43790  0.73052  1.0000
  S   S137      1.0  0.78009  0.41874  0.74126  1.0000
  S   S138      1.0  0.87507  0.42283  0.76907  1.0000
  Fe  Fe70      1.0  0.77399  0.40640  0.67687  1.0000
  S   S139      1.0  0.72446  0.35478  0.65371  1.0000
  C   C333      1.0  0.97199  0.28342  0.96451  1.0000
  S   S140      1.0  0.83354  0.42189  0.66682  1.0000
  C   C334      1.0  0.72475  0.31320  0.66078  1.0000
  C   C335      1.0  0.75561  0.31320  0.67696  1.0000
  C   C336      1.0  0.75555  0.27983  0.68180  1.0000
  H   H541      1.0  0.71600  0.46031  0.70966  1.0000
  C   C337      1.0  0.69365  0.27957  0.64996  1.0000
  H   H542      1.0  0.77967  0.33896  0.68544  1.0000
  H   H543      1.0  0.84912  0.46556  0.89259  1.0000
  H   H544      1.0  0.81685  0.39819  0.00277  1.0000
  H   H545      1.0  0.77967  0.28010  0.69404  1.0000
  C   C338      1.0  0.99155  0.33694  0.00588  1.0000
  C   C339      1.0  0.87246  0.43034  0.90249  1.0000
  C   C340      1.0  0.85801  0.44782  0.87916  1.0000
  C   C341      1.0  0.85655  0.44387  0.83824  1.0000
  C   C342      1.0  0.87017  0.42292  0.82036  1.0000
  C   C343      1.0  0.88329  0.40430  0.84383  1.0000
  C   C344      1.0  0.88397  0.40757  0.88480  1.0000
  H   H546      1.0  0.71394  0.34762  0.00229  1.0000
  N   N32       1.0  0.76552  0.36236  0.97320  1.0000
  C   C345      1.0  0.78129  0.34422  0.94900  1.0000
  H   H547      1.0  0.55883  0.49948  0.72579  1.0000
  Fe  Fe71      1.0  0.79428  0.47583  0.72259  1.0000
  C   C346      1.0  0.52009  0.47311  0.81617  1.0000
  H   H548      1.0  0.52310  0.45462  0.74129  1.0000
  H   H549      1.0  0.72521  0.31154  0.00021  1.0000
  H   H550      1.0  0.00018  0.47504  0.92183  1.0000
  H   H551      1.0  0.84649  0.45843  0.82044  1.0000
  H   H552      1.0  0.54470  0.28557  0.90508  1.0000
  H   H553      1.0  0.92260  0.47109  0.70255  1.0000
  S   S141      1.0  0.92039  0.30446  0.97671  1.0000
  H   H554      1.0  0.76567  0.33343  0.92125  1.0000
  H   H555      1.0  0.95230  0.46200  0.91714  1.0000
  C   C347      1.0  0.93429  0.48138  0.67288  1.0000
  C   C348      1.0  0.76658  0.39320  0.95104  1.0000
  H   H556      1.0  0.55768  0.47378  0.53048  1.0000
  C   C349      1.0  0.68024  0.48357  0.70243  1.0000
  H   H557      1.0  0.91292  0.48396  0.65584  1.0000
  C   C350      1.0  0.71240  0.48379  0.71534  1.0000
  H   H558      1.0  0.81079  0.36382  0.94120  1.0000
  C   C351      1.0  0.85564  0.49282  0.54097  1.0000
  H   H559      1.0  0.89370  0.38789  0.83018  1.0000
  H   H560      1.0  0.54103  0.46711  0.82917  1.0000
  H   H561      1.0  0.79564  0.41413  0.94295  1.0000
  S   S142      1.0  0.94686  0.40706  0.00191  1.0000
  H   H562      1.0  0.89487  0.39371  0.90251  1.0000
  H   H563      1.0  0.51066  0.48507  0.83963  1.0000
  H   H564      1.0  0.55574  0.35742  0.01287  1.0000
  N   N33       1.0  0.53547  0.49834  0.78235  1.0000
  H   H565      1.0  0.70907  0.32353  0.95717  1.0000
  H   H566      1.0  0.52859  0.26508  0.95211  1.0000
  C   C352      1.0  0.97816  0.47008  0.90025  1.0000
  H   H567      1.0  0.51593  0.49581  0.00659  1.0000
  C   C353      1.0  0.00556  0.28415  0.97177  1.0000
  H   H568      1.0  0.00334  0.49201  0.68233  1.0000
  C   C354      1.0  0.95973  0.49493  0.84645  1.0000
  S   S143      1.0  0.85521  0.49607  0.71726  1.0000
  H   H569      1.0  0.75037  0.38341  0.92347  1.0000
  Fe  Fe72      1.0  0.91057  0.34575  0.00876  1.0000
  C   C355      1.0  0.54692  0.48109  0.75168  1.0000
  H   H570      1.0  0.95476  0.47115  0.82766  1.0000
  C   C356      1.0  0.52458  0.25965  0.92023  1.0000
  S   S144      1.0  0.57280  0.29907  0.01866  1.0000
  C   C357      1.0  0.53020  0.33217  0.01938  1.0000
  N   N34       1.0  0.98868  0.50316  0.87606  1.0000
  H   H571      1.0  0.98605  0.35705  0.01957  1.0000
  H   H572      1.0  0.83454  0.68228  0.09262  1.0000
  H   H573      1.0  0.96855  0.53017  0.34289  1.0000
  H   H574      1.0  0.94575  0.53570  0.11445  1.0000
  C   C358      1.0  0.83393  0.68795  0.06092  1.0000
  N   N35       1.0  0.85279  0.72803  0.05300  1.0000
  C   C359      1.0  0.72530  0.72044  0.51052  1.0000
  C   C360      1.0  0.57838  0.53949  0.46122  1.0000
  H   H575      1.0  0.59460  0.54972  0.23895  1.0000
  H   H576      1.0  0.60435  0.58119  0.30205  1.0000
  C   C361      1.0  0.59751  0.57495  0.22458  1.0000
  H   H577      1.0  0.57743  0.54264  0.42995  1.0000
  H   H578      1.0  0.00099  0.51014  0.45464  1.0000
  Fe  Fe73      1.0  0.54403  0.65628  0.06039  1.0000
  C   C362      1.0  0.99248  0.63693  0.21872  1.0000
  C   C363      1.0  0.97204  0.55967  0.10369  1.0000
  H   H579      1.0  0.61761  0.64685  0.22233  1.0000
  S   S145      1.0  0.55268  0.71339  0.06568  1.0000
  C   C364      1.0  0.54437  0.56928  0.25960  1.0000
  H   H580      1.0  0.63588  0.62479  0.28074  1.0000
  C   C365      1.0  0.60593  0.60541  0.28671  1.0000
  H   H581      1.0  0.57178  0.61980  0.20242  1.0000
  H   H582      1.0  0.62749  0.59279  0.21747  1.0000
  H   H583      1.0  0.59879  0.59712  0.47349  1.0000
  H   H584      1.0  0.52714  0.55991  0.23266  1.0000
  N   N36       1.0  0.58400  0.59423  0.25023  1.0000
  H   H585      1.0  0.99189  0.50392  0.34658  1.0000
  H   H586      1.0  0.65079  0.54705  0.37034  1.0000
  C   C366      1.0  0.58814  0.62731  0.23002  1.0000
  H   H587      1.0  0.74977  0.71976  0.49822  1.0000
  S   S146      1.0  0.64891  0.53970  0.28615  1.0000
  H   H588      1.0  0.59588  0.61921  0.30723  1.0000
  H   H589      1.0  0.53311  0.58315  0.27847  1.0000
  H   H590      1.0  0.70484  0.71352  0.48648  1.0000
  C   C367      1.0  0.59047  0.57033  0.48597  1.0000
  H   H591      1.0  0.72287  0.52052  0.41270  1.0000
  H   H592      1.0  0.57808  0.64245  0.24862  1.0000
  H   H593      1.0  0.58184  0.56638  0.19657  1.0000
  H   H594      1.0  0.54001  0.54411  0.27518  1.0000
  C   C368      1.0  0.89202  0.74533  0.06550  1.0000
  Fe  Fe74      1.0  0.88758  0.61878  0.31829  1.0000
  S   S147      1.0  0.88045  0.66345  0.34648  1.0000
  S   S148      1.0  0.89155  0.62190  0.25205  1.0000
  Fe  Fe75      1.0  0.88269  0.58153  0.39759  1.0000
  S   S149      1.0  0.87795  0.62492  0.43101  1.0000
  S   S150      1.0  0.87267  0.52921  0.42835  1.0000
  Fe  Fe76      1.0  0.83735  0.61865  0.38429  1.0000
  S   S151      1.0  0.78220  0.60941  0.40647  1.0000
  Fe  Fe77      1.0  0.92160  0.66524  0.39000  1.0000
  S   S152      1.0  0.97312  0.71847  0.40623  1.0000
  S   S153      1.0  0.84025  0.57358  0.35218  1.0000
  S   S154      1.0  0.93061  0.62225  0.36031  1.0000
  C   C369      1.0  0.96491  0.64882  0.16246  1.0000
  H   H595      1.0  0.93089  0.50871  0.42350  1.0000
  H   H596      1.0  0.79923  0.52516  0.47347  1.0000
  C   C370      1.0  0.93154  0.63125  0.22479  1.0000
  C   C371      1.0  0.67902  0.55910  0.35972  1.0000
  H   H597      1.0  0.98005  0.52932  0.03781  1.0000
  C   C372      1.0  0.89440  0.56063  0.50165  1.0000
  H   H598      1.0  0.99434  0.71194  0.22852  1.0000
  C   C373      1.0  0.93353  0.64098  0.18519  1.0000
  C   C374      1.0  0.72251  0.57461  0.30621  1.0000
  H   H599      1.0  0.84758  0.67465  0.04497  1.0000
  N   N37       1.0  0.98034  0.73969  0.27258  1.0000
  H   H600      1.0  0.91062  0.64233  0.17197  1.0000
  H   H601      1.0  0.55676  0.55973  0.03106  1.0000
  H   H602      1.0  0.91177  0.73198  0.39517  1.0000
  C   C375      1.0  0.74553  0.59088  0.37257  1.0000
  C   C376      1.0  0.70887  0.57564  0.38601  1.0000
  C   C377      1.0  0.73787  0.50732  0.39959  1.0000
  H   H603      1.0  0.96606  0.65616  0.13196  1.0000
  H   H604      1.0  0.98157  0.58158  0.12642  1.0000
  C   C378      1.0  0.75232  0.59009  0.33265  1.0000
  H   H605      1.0  0.72788  0.57445  0.27528  1.0000
  H   H606      1.0  0.78053  0.60177  0.32207  1.0000
  C   C379      1.0  0.87356  0.52831  0.48007  1.0000
  C   C380      1.0  0.95850  0.53411  0.42014  1.0000
  H   H607      1.0  0.95644  0.71238  0.32661  1.0000
  H   H608      1.0  0.89437  0.74247  0.09752  1.0000
  H   H609      1.0  0.96541  0.57045  0.07703  1.0000
  H   H610      1.0  0.75802  0.52729  0.37807  1.0000
  C   C381      1.0  0.68583  0.55886  0.31971  1.0000
  H   H611      1.0  0.70347  0.57614  0.41688  1.0000
  C   C382      1.0  0.83394  0.74457  0.07481  1.0000
  H   H612      1.0  0.90977  0.58686  0.48675  1.0000
  H   H613      1.0  0.83457  0.74062  0.10689  1.0000
  H   H614      1.0  0.95407  0.55413  0.40283  1.0000
  H   H615      1.0  0.00184  0.71945  0.31757  1.0000
  C   C383      1.0  0.99442  0.64661  0.17911  1.0000
  H   H616      1.0  0.93132  0.70151  0.24099  1.0000
  H   H617      1.0  0.80436  0.73238  0.06579  1.0000
  S   S155      1.0  0.51836  0.61042  0.10534  1.0000
  H   H618      1.0  0.95994  0.62171  0.27192  1.0000
  C   C384      1.0  0.52954  0.65597  0.16900  1.0000
  H   H619      1.0  0.80582  0.55111  0.42977  1.0000
  S   S156      1.0  0.59975  0.67526  0.03302  1.0000
  C   C385      1.0  0.96125  0.62944  0.24156  1.0000
  Fe  Fe78      1.0  0.60606  0.73155  0.03287  1.0000
  H   H620      1.0  0.90665  0.73243  0.05072  1.0000
  C   C386      1.0  0.78437  0.53138  0.45032  1.0000
  H   H621      1.0  0.80432  0.67399  0.05161  1.0000
  S   S157      1.0  0.00252  0.64660  0.03959  1.0000
  H   H622      1.0  0.77115  0.54620  0.46388  1.0000
  H   H623      1.0  0.96782  0.54608  0.44983  1.0000
  H   H624      1.0  0.96250  0.68424  0.29139  1.0000
  C   C387      1.0  0.97514  0.71272  0.30327  1.0000
  H   H625      1.0  0.54068  0.68990  0.22049  1.0000
  H   H626      1.0  0.54685  0.67894  0.15006  1.0000
  N   N38       1.0  0.98562  0.52602  0.40113  1.0000
  C   C388      1.0  0.51193  0.61996  0.15417  1.0000
  C   C389      1.0  0.52590  0.66214  0.20886  1.0000
  H   H627      1.0  0.92390  0.72810  0.27722  1.0000
  C   C390      1.0  0.94399  0.72929  0.25485  1.0000
  C   C391      1.0  0.97215  0.51050  0.36176  1.0000
  H   H628      1.0  0.94666  0.74932  0.23195  1.0000
  H   H629      1.0  0.72015  0.65410  0.51787  1.0000
  S   S158      1.0  0.55572  0.51006  0.34239  1.0000
  H   H630      1.0  0.98326  0.51087  0.14366  1.0000
  H   H631      1.0  0.67484  0.64752  0.50721  1.0000
  C   C392      1.0  0.56562  0.50437  0.47720  1.0000
  H   H632      1.0  0.50945  0.52490  0.43729  1.0000
  C   C393      1.0  0.98653  0.51991  0.06559  1.0000
  H   H633      1.0  0.51051  0.51751  0.51117  1.0000
  N   N39       1.0  0.00051  0.54918  0.09566  1.0000
  H   H634      1.0  0.00732  0.51126  0.05891  1.0000
  C   C394      1.0  0.00570  0.73969  0.24223  1.0000
  C   C395      1.0  0.00858  0.53544  0.13203  1.0000
  H   H635      1.0  0.73479  0.74936  0.51979  1.0000
  C   C396      1.0  0.56810  0.53329  0.79495  1.0000
  H   H636      1.0  0.68433  0.63631  0.55450  1.0000
  H   H637      1.0  0.58069  0.52848  0.57388  1.0000
  Fe  Fe79      1.0  0.57150  0.66849  0.97504  1.0000
  S   S159      1.0  0.58134  0.72650  0.97326  1.0000
  S   S160      1.0  0.59140  0.64193  0.93052  1.0000
  H   H638      1.0  0.86347  0.72060  0.99313  1.0000
  Fe  Fe80      1.0  0.59712  0.60784  0.70854  1.0000
  S   S161      1.0  0.55357  0.60609  0.75029  1.0000
  Fe  Fe81      1.0  0.61487  0.60356  0.62142  1.0000
  H   H639      1.0  0.85853  0.58897  0.67234  1.0000
  S   S162      1.0  0.60246  0.60506  0.55703  1.0000
  H   H640      1.0  0.96295  0.53386  0.61727  1.0000
  S   S163      1.0  0.58163  0.56082  0.66666  1.0000
  S   S164      1.0  0.62455  0.65052  0.66128  1.0000
  C   C397      1.0  0.56535  0.61934  0.79975  1.0000
  C   C398      1.0  0.59929  0.62598  0.81504  1.0000
  C   C399      1.0  0.60697  0.63356  0.85500  1.0000
  C   C400      1.0  0.58143  0.63589  0.87997  1.0000
  C   C401      1.0  0.54775  0.63020  0.86465  1.0000
  C   C402      1.0  0.53959  0.62153  0.82472  1.0000
  H   H641      1.0  0.61950  0.62469  0.79635  1.0000
  H   H642      1.0  0.63300  0.63775  0.86663  1.0000
  H   H643      1.0  0.98842  0.50951  0.61883  1.0000
  C   C403      1.0  0.73676  0.70476  0.57490  1.0000
  C   C404      1.0  0.67649  0.69633  0.55888  1.0000
  C   C405      1.0  0.55233  0.57019  0.00281  1.0000
  Fe  Fe82      1.0  0.63627  0.56638  0.68404  1.0000
  H   H644      1.0  0.51743  0.52456  0.74068  1.0000
  S   S165      1.0  0.64972  0.61047  0.72870  1.0000
  S   S166      1.0  0.66861  0.60613  0.63610  1.0000
  C   C406      1.0  0.85116  0.73419  0.01069  1.0000
  C   C407      1.0  0.51102  0.55898  0.94839  1.0000
  S   S167      1.0  0.63428  0.51225  0.69387  1.0000
  C   C408      1.0  0.58032  0.53178  0.54255  1.0000
  H   H645      1.0  0.66396  0.67773  0.58446  1.0000
  H   H646      1.0  0.75435  0.55071  0.61455  1.0000
  H   H647      1.0  0.55485  0.59748  0.00874  1.0000
  H   H648      1.0  0.56066  0.54691  0.81842  1.0000
  H   H649      1.0  0.52766  0.63153  0.88370  1.0000
  H   H650      1.0  0.53290  0.56295  0.92695  1.0000
  H   H651      1.0  0.72503  0.68614  0.60066  1.0000
  H   H652      1.0  0.85365  0.57804  0.60120  1.0000
  C   C409      1.0  0.98325  0.52978  0.63471  1.0000
  C   C410      1.0  0.76897  0.55050  0.64164  1.0000
  H   H653      1.0  0.75795  0.55996  0.66595  1.0000
  S   S168      1.0  0.77991  0.51503  0.75262  1.0000
  H   H654      1.0  0.95191  0.53571  0.72475  1.0000
  C   C411      1.0  0.82288  0.56150  0.60425  1.0000
  H   H655      1.0  0.82202  0.72309  0.00063  1.0000
  C   C412      1.0  0.73430  0.54419  0.74379  1.0000
  C   C413      1.0  0.70260  0.54440  0.72991  1.0000
  H   H656      1.0  0.51383  0.64315  0.73811  1.0000
  S   S169      1.0  0.51506  0.64481  0.00246  1.0000
  H   H657      1.0  0.84977  0.63130  0.62866  1.0000
  H   H658      1.0  0.75507  0.56757  0.76011  1.0000
  N   N40       1.0  0.51571  0.54421  0.98586  1.0000
  H   H659      1.0  0.81563  0.53217  0.60774  1.0000
  H   H660      1.0  0.65419  0.68750  0.53655  1.0000
  N   N41       1.0  0.96942  0.51702  0.67478  1.0000
  C   C414      1.0  0.89679  0.55889  0.54253  1.0000
  H   H661      1.0  0.76084  0.52130  0.64799  1.0000
  H   H662      1.0  0.96618  0.52549  0.91760  1.0000
  H   H663      1.0  0.80583  0.61578  0.60498  1.0000
  H   H664      1.0  0.81050  0.56371  0.57632  1.0000
  H   H665      1.0  0.94216  0.54913  0.67839  1.0000
  H   H666      1.0  0.73184  0.73581  0.98398  1.0000
  S   S170      1.0  0.73253  0.70200  0.68473  1.0000
  H   H667      1.0  0.74679  0.73338  0.58556  1.0000
  S   S171      1.0  0.88312  0.52434  0.61363  1.0000
  H   H668      1.0  0.68422  0.72244  0.64351  1.0000
  H   H669      1.0  0.82153  0.54267  0.67927  1.0000
  C   C415      1.0  0.59097  0.56651  0.52674  1.0000
  Fe  Fe83      1.0  0.67640  0.65032  0.67875  1.0000
  N   N42       1.0  0.80970  0.57405  0.63788  1.0000
  H   H670      1.0  0.80985  0.62311  0.65691  1.0000
  H   H671      1.0  0.51316  0.61630  0.81330  1.0000
  H   H672      1.0  0.91404  0.58394  0.55879  1.0000
  C   C416      1.0  0.67532  0.51387  0.70957  1.0000
  C   C417      1.0  0.81922  0.61280  0.63179  1.0000
  N   N43       1.0  0.70882  0.69450  0.54360  1.0000
  H   H673      1.0  0.69887  0.56778  0.73573  1.0000
  C   C418      1.0  0.99723  0.51222  0.69691  1.0000
  C   C419      1.0  0.82778  0.57145  0.67394  1.0000
  H   H674      1.0  0.57988  0.55319  0.77025  1.0000
  H   H675      1.0  0.96745  0.51905  0.82698  1.0000
  C   C420      1.0  0.87752  0.52504  0.56239  1.0000
  H   H676      1.0  0.81799  0.57999  0.70017  1.0000
  H   H677      1.0  0.57542  0.57519  0.98260  1.0000
  H   H678      1.0  0.76140  0.70327  0.56472  1.0000
  C   C421      1.0  0.96282  0.54466  0.69460  1.0000
  C   C422      1.0  0.73932  0.51397  0.73635  1.0000
  C   C423      1.0  0.71030  0.74710  0.64910  1.0000
  H   H679      1.0  0.59067  0.52884  0.80618  1.0000
  C   C424      1.0  0.69666  0.65653  0.53015  1.0000
  Fe  Fe84      1.0  0.52717  0.70347  0.00602  1.0000
  S   S172      1.0  0.96786  0.71125  0.00152  1.0000
  H   H680      1.0  0.51313  0.58636  0.95237  1.0000
  C   C425      1.0  0.99242  0.53345  0.90140  1.0000
  H   H681      1.0  0.68438  0.72476  0.56842  1.0000
  H   H682      1.0  0.98891  0.57183  0.69695  1.0000
  C   C426      1.0  0.51339  0.50824  0.97883  1.0000
  H   H683      1.0  0.53591  0.51114  0.95896  1.0000
  C   C427      1.0  0.73809  0.74498  0.66993  1.0000
  H   H684      1.0  0.99902  0.55836  0.88391  1.0000
  H   H685      1.0  0.67317  0.73375  0.00267  1.0000
  H   H686      1.0  0.92414  0.74163  0.97378  1.0000
  S   S173      1.0  0.54893  0.85493  0.35291  1.0000
  H   H687      1.0  0.84725  0.77472  0.06922  1.0000
  S   S174      1.0  0.53555  0.98998  0.25771  1.0000
  C   C428      1.0  0.95349  0.94560  0.50180  1.0000
  S   S175      1.0  0.65886  0.78286  0.05068  1.0000
  H   H688      1.0  0.63572  0.90900  0.40442  1.0000
  H   H689      1.0  0.89379  0.95294  0.49062  1.0000
  C   C429      1.0  0.51896  0.00082  0.48824  1.0000
  Fe  Fe85      1.0  0.54837  0.90836  0.35955  1.0000
  Fe  Fe86      1.0  0.54418  0.96936  0.31604  1.0000
  H   H690      1.0  0.98827  0.94612  0.10957  1.0000
  S   S176      1.0  0.58873  0.95405  0.32041  1.0000
  S   S177      1.0  0.57008  0.94187  0.41422  1.0000
  Fe  Fe87      1.0  0.52809  0.95938  0.40361  1.0000
  H   H691      1.0  0.93424  0.99043  0.16713  1.0000
  H   H692      1.0  0.60735  0.79958  0.09166  1.0000
  H   H693      1.0  0.62432  0.86698  0.34910  1.0000
  H   H694      1.0  0.53041  0.99744  0.17483  1.0000
  H   H695      1.0  0.97730  0.77777  0.31265  1.0000
  C   C430      1.0  0.64215  0.89166  0.33078  1.0000
  C   C431      1.0  0.65420  0.93275  0.38531  1.0000
  C   C432      1.0  0.97141  0.75920  0.39826  1.0000
  C   C433      1.0  0.58767  0.81039  0.09094  1.0000
  H   H696      1.0  0.55913  0.78630  0.09422  1.0000
  H   H697      1.0  0.65061  0.85328  0.05154  1.0000
  C   C434      1.0  0.00370  0.82606  0.38991  1.0000
  H   H698      1.0  0.63684  0.94346  0.37273  1.0000
  C   C435      1.0  0.00453  0.79326  0.39645  1.0000
  H   H699      1.0  0.62333  0.90034  0.31726  1.0000
  H   H700      1.0  0.65399  0.88276  0.30679  1.0000
  H   H701      1.0  0.98335  0.95622  0.50840  1.0000
  S   S178      1.0  0.96740  0.86555  0.37969  1.0000
  H   H702      1.0  0.71644  0.97726  0.34551  1.0000
  H   H703      1.0  0.59339  0.82832  0.11702  1.0000
  N   N44       1.0  0.67150  0.92175  0.35425  1.0000
  Fe  Fe88      1.0  0.91049  0.90396  0.06606  1.0000
  S   S179      1.0  0.91091  0.91998  0.12929  1.0000
  C   C436      1.0  0.56441  0.84387  0.05422  1.0000
  H   H704      1.0  0.79375  0.83604  0.04943  1.0000
  C   C437      1.0  0.97962  0.94718  0.22267  1.0000
  H   H705      1.0  0.95550  0.99318  0.09809  1.0000
  N   N45       1.0  0.94889  0.96819  0.47151  1.0000
  C   C438      1.0  0.94772  0.93270  0.19903  1.0000
  H   H706      1.0  0.92069  0.92219  0.21245  1.0000
  C   C439      1.0  0.96765  0.96721  0.43516  1.0000
  C   C440      1.0  0.76771  0.81404  0.03861  1.0000
  C   C441      1.0  0.95066  0.93253  0.15814  1.0000
  H   H707      1.0  0.97706  0.94763  0.25411  1.0000
  C   C442      1.0  0.98569  0.94621  0.14104  1.0000
  H   H708      1.0  0.89572  0.92438  0.45247  1.0000
  C   C443      1.0  0.62963  0.86253  0.05136  1.0000
  H   H709      1.0  0.99781  0.97823  0.43995  1.0000
  C   C444      1.0  0.96965  0.82491  0.38589  1.0000
  C   C445      1.0  0.93659  0.79082  0.38748  1.0000
  S   S180      1.0  0.90562  0.84920  0.05319  1.0000
  H   H710      1.0  0.91019  0.78981  0.38449  1.0000
  H   H711      1.0  0.95599  0.93850  0.42388  1.0000
  H   H712      1.0  0.67544  0.95512  0.40401  1.0000
  H   H713      1.0  0.70816  0.94672  0.30512  1.0000
  H   H714      1.0  0.90766  0.77535  0.05844  1.0000
  C   C446      1.0  0.93745  0.75802  0.39335  1.0000
  H   H715      1.0  0.63612  0.88194  0.07624  1.0000
  H   H716      1.0  0.96487  0.98409  0.41172  1.0000
  Fe  Fe89      1.0  0.60681  0.98865  0.37454  1.0000
  C   C447      1.0  0.69528  0.90885  0.37225  1.0000
  S   S181      1.0  0.86337  0.89437  0.02638  1.0000
  H   H717      1.0  0.73525  0.83408  0.06793  1.0000
  H   H718      1.0  0.85945  0.99271  0.46946  1.0000
  H   H719      1.0  0.56913  0.86290  0.07906  1.0000
  H   H720      1.0  0.00138  0.79820  0.26788  1.0000
  C   C448      1.0  0.69430  0.95376  0.32871  1.0000
  H   H721      1.0  0.70865  0.90016  0.34966  1.0000
  H   H722      1.0  0.71782  0.93106  0.39000  1.0000
  N   N46       1.0  0.59150  0.83073  0.05430  1.0000
  H   H723      1.0  0.90454  0.97015  0.44145  1.0000
  H   H724      1.0  0.67887  0.88483  0.39190  1.0000
  H   H725      1.0  0.94147  0.91636  0.49226  1.0000
  C   C449      1.0  0.99629  0.77684  0.29020  1.0000
  H   H726      1.0  0.67702  0.96389  0.31440  1.0000
  H   H727      1.0  0.53544  0.82042  0.05668  1.0000
  C   C450      1.0  0.73443  0.81274  0.04936  1.0000
  C   C451      1.0  0.90895  0.95320  0.46365  1.0000
  H   H728      1.0  0.53346  0.78081  0.34125  1.0000
  C   C452      1.0  0.70017  0.78376  0.03663  1.0000
  H   H729      1.0  0.56602  0.85884  0.02670  1.0000
  H   H730      1.0  0.63359  0.87825  0.02382  1.0000
  C   C453      1.0  0.58428  0.80598  0.02059  1.0000
  H   H731      1.0  0.55668  0.78053  0.02303  1.0000
  S   S182      1.0  0.95384  0.93538  0.02046  1.0000
  H   H732      1.0  0.52517  0.83356  0.93522  1.0000
  H   H733      1.0  0.86803  0.96916  0.80157  1.0000
  H   H734      1.0  0.75161  0.78678  0.87447  1.0000
  H   H735      1.0  0.69240  0.97720  0.62699  1.0000
  H   H736      1.0  0.83445  0.88747  0.92635  1.0000
  H   H737      1.0  0.78620  0.87203  0.93422  1.0000
  C   C454      1.0  0.97034  0.97967  0.68688  1.0000
  H   H738      1.0  0.82628  0.81151  0.91535  1.0000
  H   H739      1.0  0.77580  0.86823  0.86256  1.0000
  H   H740      1.0  0.73823  0.81310  0.90519  1.0000
  H   H741      1.0  0.75976  0.78916  0.92618  1.0000
  Fe  Fe90      1.0  0.80922  0.97336  0.69856  1.0000
  Fe  Fe91      1.0  0.90624  0.91992  0.97905  1.0000
  S   S183      1.0  0.90028  0.95844  0.93703  1.0000
  S   S184      1.0  0.90190  0.86665  0.96005  1.0000
  C   C455      1.0  0.80655  0.86250  0.92937  1.0000
  S   S185      1.0  0.80597  0.96291  0.63403  1.0000
  C   C456      1.0  0.77171  0.77750  0.67745  1.0000
  Fe  Fe92      1.0  0.86065  0.94215  0.71298  1.0000
  S   S186      1.0  0.79874  0.91712  0.71612  1.0000
  S   S187      1.0  0.89513  0.92924  0.75443  1.0000
  Fe  Fe93      1.0  0.80063  0.90836  0.65152  1.0000
  S   S188      1.0  0.75763  0.85581  0.62230  1.0000
  C   C457      1.0  0.98928  0.82958  0.99763  1.0000
  S   S189      1.0  0.86208  0.92957  0.64918  1.0000
  C   C458      1.0  0.75012  0.81373  0.64228  1.0000
  C   C459      1.0  0.77757  0.81185  0.66410  1.0000
  H   H742      1.0  0.81858  0.80848  0.86346  1.0000
  H   H743      1.0  0.80696  0.84785  0.95634  1.0000
  C   C460      1.0  0.71651  0.78124  0.63481  1.0000
  H   H744      1.0  0.80362  0.83674  0.66994  1.0000
  H   H745      1.0  0.52293  0.77363  0.94539  1.0000
  C   C461      1.0  0.97734  0.75716  0.99872  1.0000
  S   S190      1.0  0.80848  0.78809  0.99987  1.0000
  H   H746      1.0  0.78955  0.84166  0.83276  1.0000
  C   C462      1.0  0.89732  0.94875  0.88652  1.0000
  C   C463      1.0  0.91148  0.92739  0.87093  1.0000
  C   C464      1.0  0.91036  0.92145  0.83041  1.0000
  C   C465      1.0  0.89464  0.93636  0.80519  1.0000
  C   C466      1.0  0.88012  0.95744  0.82078  1.0000
  C   C467      1.0  0.88176  0.96387  0.86132  1.0000
  H   H747      1.0  0.92410  0.91611  0.88991  1.0000
  H   H748      1.0  0.92184  0.90528  0.81849  1.0000
  C   C468      1.0  0.95539  0.80020  0.98494  1.0000
  H   H749      1.0  0.85324  0.85106  0.88481  1.0000
  H   H750      1.0  0.82410  0.88395  0.85455  1.0000
  C   C469      1.0  0.73272  0.75736  0.00227  1.0000
  H   H751      1.0  0.96832  0.95771  0.70685  1.0000
  C   C470      1.0  0.53431  0.99601  0.52283  1.0000
  H   H752      1.0  0.69508  0.78261  0.61826  1.0000
  Fe  Fe94      1.0  0.86181  0.84184  0.01006  1.0000
  H   H753      1.0  0.93398  0.80545  0.97433  1.0000
  N   N47       1.0  0.79700  0.83844  0.89463  1.0000
  C   C471      1.0  0.79653  0.85892  0.85962  1.0000
  H   H754      1.0  0.52432  0.98709  0.83135  1.0000
  C   C472      1.0  0.82500  0.82685  0.88932  1.0000
  H   H755      1.0  0.93971  0.94579  0.52968  1.0000
  C   C473      1.0  0.76001  0.80544  0.90029  1.0000
  C   C474      1.0  0.94978  0.76418  0.98479  1.0000
  Fe  Fe95      1.0  0.86733  0.98487  0.63734  1.0000
  H   H756      1.0  0.87089  0.98059  0.87315  1.0000
  H   H757      1.0  0.73907  0.96765  0.66224  1.0000
  H   H758      1.0  0.60536  0.79711  0.01852  1.0000
  H   H759      1.0  0.79336  0.77613  0.69356  1.0000
  H   H760      1.0  0.94140  0.97253  0.67968  1.0000
  H   H761      1.0  0.55444  0.99178  0.87131  1.0000
  H   H762      1.0  0.97911  0.98500  0.91589  1.0000
  S   S191      1.0  0.87118  0.99913  0.70104  1.0000
  S   S192      1.0  0.99712  0.87496  0.99750  1.0000
  H   H763      1.0  0.98392  0.97833  0.65929  1.0000
  H   H764      1.0  0.53516  0.97082  0.52721  1.0000
  Fe  Fe96      1.0  0.94598  0.87961  0.00502  1.0000
  C   C475      1.0  0.69940  0.75609  0.01293  1.0000
  C   C476      1.0  0.76700  0.78648  0.01486  1.0000
  H   H765      1.0  0.86647  0.76417  0.00343  1.0000
  H   H766      1.0  0.85949  0.98468  0.54153  1.0000
  C   C477      1.0  0.70667  0.99420  0.65202  1.0000
  H   H767      1.0  0.97074  0.99605  0.76278  1.0000
  H   H768      1.0  0.58501  0.81971  0.99250  1.0000
  C   C478      1.0  0.73317  0.98882  0.67187  1.0000
  C   C479      1.0  0.50898  0.81573  0.95906  1.0000
  C   C480      1.0  0.53800  0.00337  0.85812  1.0000
  N   N48       1.0  0.51046  0.00271  0.88599  1.0000
