data_image0
_chemical_formula_structural       HCHFeHSHCSFeSHSHFeS2FeS2FeSFeS3C3HC2HC3SH2FeC6H4CHCH3C4HNH2CHCH4CH4CH2SCH5C4H2NHCHCHSHNCH4C2H5C2HCH3SHC2HCH2C2H2C2FeS2FeS2FeSFeS3NS2H2FeSHC3SC3HCNHSCH2C7H6C2H2CH2CHCH3CH2FeH5C2FeH2CNHC2HC2SH5C2H3CH3SCH3C4H4NCHCH2CH3NH4C2FeSFeS2FeSH2S2Fe2S2FeSHS2HCH2NSHFeSH2CH2C2H2C2H2C2HCH2C2FeCHCHC2H3C3H2C2H3C6H4SNH2C2H2NCH2CSH4CHC2H2CHCHCH4FeH2CFeNH5CHC2HC2H6SHSNHSCHSC2H2FeS2HS2FeS2H3CH2C3H5C7H4CFeCH2CHCHSCFeNH2FeHCSFeHSH2N2CSHCHSCHFeSHCH2CH2C2H3SCH5CH3C2HCHCH3CH4NH4CH3C2NH3CFeHCHFeHSHCSFeSHSHFeS2FeS2FeSFeS3HC3H3CHC4HC6H6C2H4C2H4CHNH3C2HCNCH4CH3C2H4CH8FeNH2CHSC2H2C2H2CNCHCHCH3SCHFeS2FeS2FeSFeS3FeS2NSFeSFeSHCHC2H3CHCHCHNC6H5SC4H3CHC2HC4HCH9CH2CH7C3H2CH4CH2C2NHCH4SH7CFeSFeS2FeSFeS3CFeS2FeHS3HSHSH4SC5SH2FeC3HC2HSH2C3H2CH2CH3C2H3C2H2C7H5NC4H13NH7FeSHC2SHC2HCHCH2CHCHNHFeH2CH3CHC2HCNHFeC2HC2HFeCH6CH4CSHNH2C2H2CH2NH3SCH3SCFe2S2FeS2FeS2C2H4C2H2CHCH2C6H7SC2H5SH3S2HCNC3H8C2HCH2NCFeCHFeH2FeSH2CNH9SCH3CHCH2C4NHCHSCH2NH2NCHFeSHCS2Fe2SCSHCSNCHSCSHCHC3HCHCH3C3H2CHCHC2HCH3FeS2H2FeH2SC3HC2H5CH5C3H2CHSCH3FeCHC3HSH2CHFeH2CH2CNCNCH2CH4CH2FeCH3NH2CH3S3HFeHFeSC3H3CH3FeSCSNCH2CH2S2HNFeSCH3C3H5C5HCS2H3SH2CSH2CH2CHCH2C4H2FeHCHCH4CS2H2CSCH2NC2H2FeH2CH5CHCHFeSHFeS2CFeSHSHSCHCH4CFeHCSHCH2C4H2NCFeS2FeCFeHSFe2HS2HCH2SHC2HC2H3C4H2CH2C2SH2SHFeH2NC3H5NFeCHCH2CH3C3H2CS2FeH4CSHC3H3SCH3CHCH2SCH5NH3C2HSNHFeS2FeS2FeSHCS2HCHC3H2CH2C4H2CFeS2C3H3C3H2CHC2H4CH7CNC4H12CHC2H6FeHSHCH2NH4CH2CH2FeH2CHSCH2CHS2CHNCFeSCHS2Fe2SH3SCH2SC2SH3SHC4HC6H2C6H4CFeHS2CFeSHSH4CHCHCH4NH2C4H2SHCHCS2H2CFeHCH5CHFeSC3H4C2HCSHCH4FeSFeS2CHFeSFeSHSC3H3CNC2H4CSCHFeCHSNHSH4SCH2SH2C2H2CFeC4SCH4CH2C4H4CH2CH5CH5FeSCFeS2CFeSHSH4CH6SNH3FeH2C3H3CFeS2FeCH2SNH2SH2SC2SFeCFeCH2C2FeHC3H4CH3CFeSNH3CH2SHCH2FeC4FeHSHCH3CHSC2H2SHSFeS2FeS2FeSFeHS2C2SC3H2C6H4FeSC3HCH2C3H3NHNHCH2C2SHSH2C2HNSH2C4HFeH2NCH4C3H3CH3NC4H11CH12CH3CH4CH2CH3CFeS2HSHFeSFeS3H2FeS2CSFeSNSCHSCHS2HSCHCH2C3FeCH3NCH3C2HCSHFeC2H4C3HSH3C4HCH5SFeH4CNSC3FeC2H10FeCSCHCH3CHC2NHCH2SC2HC2H4CHCH7C2HCHCHCH2FeCHFeS2FeSFeSFeSFeSCSH4SC4HCH3SH2CSHCH5CH2NSCHCHC2HNC2H2CHCHCSH3CH5SC2HCHC5H4CH3CH3CH4CH3S2C2H5C2FeSHFeS2FeSFeS3FeS2FeS2FeSFeS3HNC5H6C4H2CH2C2H3C2NHC6H5C2H2CHCHNH4CH3CH3CH2SH5CHNCH2CH2CHCH6CHC2HCHC4HN2CH4C2HCH4CH5C2H2CHCH2CH2CHC2H2SFeSFeS2FeSFeS2FeS2FeSHFeSFeHS2CH2NH7C6H4CH4C3H2SCHCH6C2NHC4NC3H2NHC2H4CH8CH2FeS2FeSHFeHFeS3CSFeSCHSFeSFeSFeHNFeHSNHSCSC6H4SNHC6HCH2C2SHSHCH6C7H4FeH5CH3SH3SCHCHSCH3FeC3H3CHNHCH3CSH3SCHC3H2CH2FeH3NSCH4CSHCH2C2NCH6CH2CH5CHC2HCH2CHCHC2HCH3CH2FeHC3H3CFeS2FeSFeSFeSFeSH2CH4C6H4CHC3HCH2SH2CHCNH2SHSH3C3H2SH7NC2H2CHCH2CH3C4H4CSHSH3NH2C2HSHFeS2FeSFeS3FeS2FeS2FeSFeS3NH3C2H3C3H2C2H5C2H3C2H3C6H4C4H2CNH2CH2CH2CHCHC3H4C2H3C2HCSHCNC2SHCHC2HC2H5CHCH7NH5C2H3CHFeSFeS2FeSFeS2FeS2FeSHFeSFeCS2HNH9C6H4C2H3C3HCSH2C2HCH2CH2SC2H2CHCHCHNH3CH6C2H2CH3CH5CNCNH2SH3C
_chemical_formula_sum              "H1536 C960 Fe192 S384 N96"
_cell_length_a       57.1273
_cell_length_b       57.3537
_cell_length_c       42.7703
_cell_angle_alpha    89.9633
_cell_angle_beta     90.0608
_cell_angle_gamma    119.939

_space_group_name_H-M_alt    "P 1"
_space_group_IT_number       1

loop_
  _space_group_symop_operation_xyz
  'x, y, z'

loop_
  _atom_site_type_symbol
  _atom_site_label
  _atom_site_symmetry_multiplicity
  _atom_site_fract_x
  _atom_site_fract_y
  _atom_site_fract_z
  _atom_site_occupancy
  H   H1        1.0  0.20863  0.09110  0.41227  1.0000
  C   C1        1.0  0.26246  0.09532  0.45117  1.0000
  H   H2        1.0  0.19413  0.05655  0.45478  1.0000
  Fe  Fe1       1.0  0.08363  0.19910  0.12510  1.0000
  H   H3        1.0  0.19487  0.00919  0.01234  1.0000
  S   S1        1.0  0.05018  0.17391  0.08998  1.0000
  H   H4        1.0  0.10632  0.17986  0.37586  1.0000
  C   C2        1.0  0.22972  0.09536  0.41554  1.0000
  S   S2        1.0  0.17970  0.21433  0.12663  1.0000
  Fe  Fe2       1.0  0.10716  0.20807  0.19171  1.0000
  S   S3        1.0  0.10053  0.19022  0.24037  1.0000
  H   H5        1.0  0.12951  0.14927  0.19674  1.0000
  S   S4        1.0  0.10703  0.18331  0.15125  1.0000
  H   H6        1.0  0.26630  0.08170  0.43623  1.0000
  Fe  Fe3       1.0  0.19892  0.18046  0.39598  1.0000
  S   S5        1.0  0.22505  0.18761  0.35434  1.0000
  S   S6        1.0  0.19345  0.21501  0.41158  1.0000
  Fe  Fe4       1.0  0.18131  0.12039  0.39883  1.0000
  S   S7        1.0  0.20605  0.12333  0.35641  1.0000
  S   S8        1.0  0.15779  0.08463  0.43183  1.0000
  Fe  Fe5       1.0  0.23832  0.16154  0.37858  1.0000
  S   S9        1.0  0.28244  0.17338  0.37579  1.0000
  Fe  Fe6       1.0  0.19060  0.14942  0.33578  1.0000
  S   S10       1.0  0.18246  0.15255  0.28448  1.0000
  S   S11       1.0  0.21489  0.15736  0.42224  1.0000
  S   S12       1.0  0.16319  0.14351  0.37626  1.0000
  C   C3        1.0  0.14757  0.01188  0.40341  1.0000
  C   C4        1.0  0.15485  0.03931  0.40365  1.0000
  C   C5        1.0  0.14757  0.04986  0.42892  1.0000
  H   H7        1.0  0.15315  0.00391  0.38366  1.0000
  C   C6        1.0  0.21547  0.06110  0.45547  1.0000
  C   C7        1.0  0.12554  0.00517  0.45345  1.0000
  H   H8        1.0  0.16596  0.05221  0.38427  1.0000
  C   C8        1.0  0.29902  0.17082  0.40929  1.0000
  C   C9        1.0  0.28980  0.17148  0.43935  1.0000
  C   C10       1.0  0.13297  0.03262  0.45380  1.0000
  S   S13       1.0  0.08040  0.22082  0.16705  1.0000
  H   H9        1.0  0.27260  0.17431  0.44237  1.0000
  H   H10       1.0  0.14663  0.09921  0.16509  1.0000
  Fe  Fe7       1.0  0.14458  0.22104  0.13661  1.0000
  C   C11       1.0  0.12389  0.18065  0.25327  1.0000
  C   C12       1.0  0.11631  0.16103  0.27668  1.0000
  C   C13       1.0  0.13463  0.15320  0.28752  1.0000
  C   C14       1.0  0.16068  0.16499  0.27502  1.0000
  C   C15       1.0  0.16846  0.18506  0.25214  1.0000
  C   C16       1.0  0.15011  0.19281  0.24118  1.0000
  H   H11       1.0  0.09600  0.15143  0.28601  1.0000
  H   H12       1.0  0.12829  0.13735  0.30477  1.0000
  H   H13       1.0  0.18870  0.19451  0.24270  1.0000
  H   H14       1.0  0.15624  0.20815  0.22335  1.0000
  C   C17       1.0  0.14716  0.14281  0.14100  1.0000
  H   H15       1.0  0.28370  0.22290  0.33973  1.0000
  C   C18       1.0  0.01535  0.16391  0.09231  1.0000
  H   H16       1.0  0.17171  0.11671  0.19472  1.0000
  H   H17       1.0  0.01764  0.18233  0.13688  1.0000
  H   H18       1.0  0.28739  0.23067  0.38054  1.0000
  C   C19       1.0  0.02869  0.22803  0.05557  1.0000
  C   C20       1.0  0.24100  0.03997  0.07898  1.0000
  C   C21       1.0  0.26822  0.04681  0.07630  1.0000
  C   C22       1.0  0.27514  0.02663  0.07634  1.0000
  H   H19       1.0  0.25041  0.23235  0.41901  1.0000
  N   N1        1.0  0.13674  0.21401  0.35052  1.0000
  H   H20       1.0  0.23582  0.05572  0.07969  1.0000
  H   H21       1.0  0.28389  0.06773  0.07503  1.0000
  C   C23       1.0  0.32197  0.16816  0.40567  1.0000
  H   H22       1.0  0.12732  0.04056  0.47353  1.0000
  C   C24       1.0  0.16428  0.11903  0.17145  1.0000
  H   H23       1.0  0.30706  0.02059  0.41376  1.0000
  H   H24       1.0  0.24330  0.12858  0.46480  1.0000
  H   H25       1.0  0.27715  0.11621  0.44387  1.0000
  H   H26       1.0  0.16307  0.14869  0.12280  1.0000
  C   C25       1.0  0.12551  0.18640  0.36296  1.0000
  H   H27       1.0  0.14128  0.15861  0.14092  1.0000
  H   H28       1.0  0.07473  0.22608  0.05470  1.0000
  H   H29       1.0  0.22679  0.03933  0.01712  1.0000
  H   H30       1.0  0.12918  0.12363  0.13360  1.0000
  C   C26       1.0  0.18106  0.16625  0.18057  1.0000
  H   H31       1.0  0.25049  0.01277  0.01551  1.0000
  H   H32       1.0  0.11705  0.11414  0.19010  1.0000
  S   S14       1.0  0.30916  0.03460  0.07425  1.0000
  C   C27       1.0  0.16217  0.22168  0.33367  1.0000
  H   H33       1.0  0.19725  0.17263  0.16267  1.0000
  H   H34       1.0  0.23054  0.21634  0.13435  1.0000
  H   H35       1.0  0.18057  0.12367  0.15410  1.0000
  H   H36       1.0  0.14577  0.00516  0.98364  1.0000
  H   H37       1.0  0.18963  0.16485  0.20344  1.0000
  C   C28       1.0  0.13553  0.13356  0.19563  1.0000
  C   C29       1.0  0.99817  0.14944  0.06729  1.0000
  C   C30       1.0  0.00475  0.17128  0.11741  1.0000
  C   C31       1.0  0.22046  0.01292  0.08043  1.0000
  H   H38       1.0  0.14235  0.13175  0.21948  1.0000
  H   H39       1.0  0.17608  0.18267  0.18231  1.0000
  N   N2        1.0  0.15699  0.14040  0.17215  1.0000
  H   H40       1.0  0.21731  0.04742  0.43850  1.0000
  C   C32       1.0  0.30305  0.16871  0.46564  1.0000
  H   H41       1.0  0.17735  0.22086  0.34931  1.0000
  C   C33       1.0  0.23458  0.23676  0.13162  1.0000
  H   H42       1.0  0.17138  0.24247  0.32416  1.0000
  S   S15       1.0  0.18656  0.00528  0.08304  1.0000
  H   H43       1.0  0.00619  0.14373  0.04769  1.0000
  N   N3        1.0  0.23432  0.08967  0.44798  1.0000
  C   C34       1.0  0.32550  0.02173  0.42204  1.0000
  H   H44       1.0  0.13990  0.18498  0.37941  1.0000
  H   H45       1.0  0.24341  0.11687  0.40926  1.0000
  H   H46       1.0  0.20848  0.10317  0.46766  1.0000
  H   H47       1.0  0.23323  0.08289  0.39834  1.0000
  C   C35       1.0  0.11711  0.21509  0.32885  1.0000
  C   C36       1.0  0.25465  0.99956  0.07835  1.0000
  H   H48       1.0  0.02624  0.23137  0.03044  1.0000
  H   H49       1.0  0.12125  0.17161  0.34392  1.0000
  H   H50       1.0  0.11230  0.20101  0.30890  1.0000
  H   H51       1.0  0.03174  0.23315  0.47910  1.0000
  H   H52       1.0  0.15872  0.20791  0.31369  1.0000
  C   C37       1.0  0.21241  0.02533  0.99938  1.0000
  C   C38       1.0  0.22955  0.10690  0.46973  1.0000
  H   H53       1.0  0.09769  0.20948  0.34075  1.0000
  C   C39       1.0  0.29201  0.23986  0.35677  1.0000
  H   H54       1.0  0.02607  0.20752  0.05750  1.0000
  H   H55       1.0  0.15627  0.23191  0.39401  1.0000
  H   H56       1.0  0.05439  0.22415  0.10615  1.0000
  S   S16       1.0  0.12147  0.23484  0.10627  1.0000
  H   H57       1.0  0.01189  0.22789  0.06886  1.0000
  C   C40       1.0  0.21304  0.24172  0.12766  1.0000
  C   C41       1.0  0.14222  0.23287  0.37670  1.0000
  H   H58       1.0  0.12338  0.22805  0.38949  1.0000
  C   C42       1.0  0.23495  0.99922  0.99840  1.0000
  H   H59       1.0  0.20496  0.03678  0.98564  1.0000
  H   H60       1.0  0.26737  0.09298  0.47577  1.0000
  C   C43       1.0  0.32555  0.16523  0.46198  1.0000
  C   C44       1.0  0.05706  0.24439  0.10145  1.0000
  H   H61       1.0  0.12508  0.23556  0.31873  1.0000
  H   H62       1.0  0.21916  0.05590  0.47935  1.0000
  C   C45       1.0  0.13278  0.99460  0.42820  1.0000
  C   C46       1.0  0.30183  0.15459  0.74756  1.0000
  Fe  Fe8       1.0  0.21132  0.05851  0.78976  1.0000
  S   S17       1.0  0.23591  0.07661  0.83292  1.0000
  S   S18       1.0  0.20821  0.02058  0.76971  1.0000
  Fe  Fe9       1.0  0.19451  0.10201  0.78459  1.0000
  S   S19       1.0  0.21764  0.12248  0.82820  1.0000
  S   S20       1.0  0.17885  0.12190  0.75012  1.0000
  Fe  Fe10      1.0  0.25050  0.11620  0.80856  1.0000
  S   S21       1.0  0.29399  0.15000  0.81160  1.0000
  Fe  Fe11      1.0  0.20060  0.08062  0.84841  1.0000
  S   S22       1.0  0.18796  0.07152  0.89941  1.0000
  S   S23       1.0  0.22859  0.09771  0.76401  1.0000
  S   S24       1.0  0.17477  0.06037  0.80618  1.0000
  N   N4        1.0  0.22531  0.01412  0.97908  1.0000
  S   S25       1.0  0.05334  0.18110  0.71125  1.0000
  S   S26       1.0  0.06213  0.17773  0.62139  1.0000
  H   H63       1.0  0.01866  0.18387  0.64788  1.0000
  H   H64       1.0  0.24592  0.02945  0.72063  1.0000
  Fe  Fe12      1.0  0.09438  0.19901  0.73357  1.0000
  S   S27       1.0  0.10649  0.17724  0.76923  1.0000
  H   H65       1.0  0.27863  0.21811  0.70795  1.0000
  C   C47       1.0  0.32625  0.00277  0.94694  1.0000
  C   C48       1.0  0.30666  0.09176  0.84182  1.0000
  C   C49       1.0  0.04121  0.22290  0.55524  1.0000
  S   S28       1.0  0.11629  0.21582  0.68856  1.0000
  C   C50       1.0  0.02025  0.15501  0.57904  1.0000
  C   C51       1.0  0.02925  0.16818  0.60795  1.0000
  C   C52       1.0  0.26417  0.99941  0.79163  1.0000
  H   H66       1.0  0.03338  0.15043  0.56537  1.0000
  C   C53       1.0  0.99928  0.20487  0.52657  1.0000
  N   N5        1.0  0.02727  0.22760  0.52890  1.0000
  H   H67       1.0  0.15929  0.21453  0.80080  1.0000
  S   S29       1.0  0.07531  0.23950  0.67518  1.0000
  C   C54       1.0  0.25138  0.02170  0.74072  1.0000
  H   H68       1.0  0.28428  0.13476  0.74577  1.0000
  H   H69       1.0  0.24479  0.15187  0.74755  1.0000
  C   C55       1.0  0.17676  0.23530  0.80377  1.0000
  C   C56       1.0  0.15887  0.13735  0.75624  1.0000
  C   C57       1.0  0.15422  0.15024  0.73088  1.0000
  C   C58       1.0  0.13862  0.16289  0.73452  1.0000
  C   C59       1.0  0.12711  0.16246  0.76352  1.0000
  C   C60       1.0  0.13199  0.14986  0.78892  1.0000
  C   C61       1.0  0.14787  0.13748  0.78538  1.0000
  H   H70       1.0  0.16275  0.15037  0.70826  1.0000
  H   H71       1.0  0.13532  0.17277  0.71485  1.0000
  H   H72       1.0  0.12321  0.14939  0.81149  1.0000
  H   H73       1.0  0.15125  0.12768  0.80511  1.0000
  H   H74       1.0  0.03010  0.21981  0.57765  1.0000
  H   H75       1.0  0.04294  0.20466  0.55125  1.0000
  C   C62       1.0  0.16391  0.03412  0.94619  1.0000
  C   C63       1.0  0.16951  0.03820  0.91401  1.0000
  H   H76       1.0  0.29572  0.16902  0.48886  1.0000
  H   H77       1.0  0.04023  0.13494  0.67105  1.0000
  C   C64       1.0  0.23107  0.18860  0.76482  1.0000
  H   H78       1.0  0.24342  0.20812  0.70612  1.0000
  H   H79       1.0  0.16466  0.01864  0.86962  1.0000
  C   C65       1.0  0.23772  0.01803  0.76904  1.0000
  H   H80       1.0  0.04859  0.07469  0.67296  1.0000
  C   C66       1.0  0.32431  0.09156  0.89313  1.0000
  H   H81       1.0  0.05023  0.10207  0.71937  1.0000
  H   H82       1.0  0.24188  0.04801  0.94790  1.0000
  H   H83       1.0  0.03915  0.11617  0.63736  1.0000
  C   C67       1.0  0.24848  0.03631  0.96264  1.0000
  H   H84       1.0  0.28885  0.07132  0.84525  1.0000
  H   H85       1.0  0.23370  0.00394  0.81651  1.0000
  Fe  Fe13      1.0  0.05529  0.22062  0.72072  1.0000
  H   H86       1.0  0.22544  0.17209  0.78214  1.0000
  H   H87       1.0  0.08860  0.14128  0.63390  1.0000
  H   H88       1.0  0.26584  0.17060  0.71530  1.0000
  H   H89       1.0  0.28347  0.22090  0.77930  1.0000
  H   H90       1.0  0.27454  0.18639  0.78488  1.0000
  C   C68       1.0  0.31128  0.16620  0.77695  1.0000
  C   C69       1.0  0.14976  0.00794  0.95881  1.0000
  Fe  Fe14      1.0  0.07518  0.20086  0.66705  1.0000
  H   H91       1.0  0.06903  0.13809  0.71701  1.0000
  H   H92       1.0  0.27595  0.08920  0.89066  1.0000
  C   C70       1.0  0.08955  0.14158  0.65994  1.0000
  N   N6        1.0  0.25472  0.19318  0.74606  1.0000
  H   H93       1.0  0.06206  0.24009  0.55854  1.0000
  C   C71       1.0  0.27109  0.01402  0.73774  1.0000
  C   C72       1.0  0.24873  0.16789  0.73025  1.0000
  H   H94       1.0  0.28760  0.12061  0.87074  1.0000
  C   C73       1.0  0.20546  0.99569  0.95593  1.0000
  C   C74       1.0  0.31536  0.16851  0.72030  1.0000
  S   S30       1.0  0.01469  0.21670  0.73155  1.0000
  H   H95       1.0  0.21303  0.18248  0.74976  1.0000
  H   H96       1.0  0.30055  0.10265  0.82504  1.0000
  H   H97       1.0  0.30743  0.07085  0.89777  1.0000
  H   H98       1.0  0.23277  0.10319  0.49447  1.0000
  H   H99       1.0  0.10895  0.14298  0.66704  1.0000
  C   C75       1.0  0.24450  0.00728  0.79470  1.0000
  C   C76       1.0  0.04090  0.11676  0.66334  1.0000
  H   H100      1.0  0.09014  0.16041  0.66747  1.0000
  H   H101      1.0  0.19467  0.23574  0.79296  1.0000
  H   H102      1.0  0.06457  0.09129  0.63704  1.0000
  C   C77       1.0  0.06599  0.09313  0.66300  1.0000
  H   H103      1.0  0.08480  0.09325  0.67025  1.0000
  H   H104      1.0  0.26538  0.23359  0.73343  1.0000
  H   H105      1.0  0.18063  0.23884  0.82932  1.0000
  S   S31       1.0  0.09419  0.23683  0.74788  1.0000
  C   C78       1.0  0.27833  0.20192  0.76683  1.0000
  H   H106      1.0  0.08640  0.11936  0.71676  1.0000
  H   H107      1.0  0.23505  0.20695  0.77792  1.0000
  H   H108      1.0  0.26381  0.05058  0.97956  1.0000
  C   C79       1.0  0.01204  0.17383  0.62551  1.0000
  C   C80       1.0  0.16055  0.01579  0.89445  1.0000
  C   C81       1.0  0.29407  0.10919  0.88619  1.0000
  C   C82       1.0  0.04180  0.22976  0.49949  1.0000
  H   H109      1.0  0.12890  0.23335  0.80086  1.0000
  H   H110      1.0  0.02267  0.09888  0.67288  1.0000
  H   H111      1.0  0.23039  0.16007  0.71524  1.0000
  H   H112      1.0  0.29651  0.20559  0.75336  1.0000
  N   N7        1.0  0.06609  0.11770  0.67363  1.0000
  C   C83       1.0  0.06798  0.11934  0.70815  1.0000
  H   H113      1.0  0.17063  0.05135  0.96145  1.0000
  C   C84       1.0  0.26077  0.21420  0.72235  1.0000
  H   H114      1.0  0.14927  0.22947  0.75106  1.0000
  H   H115      1.0  0.30799  0.15931  0.69766  1.0000
  C   C85       1.0  0.27699  0.00210  0.76283  1.0000
  H   H116      1.0  0.19856  0.00654  0.94021  1.0000
  H   H117      1.0  0.28095  0.01628  0.71545  1.0000
  H   H118      1.0  0.99883  0.18560  0.52173  1.0000
  N   N8        1.0  0.31611  0.10649  0.87175  1.0000
  H   H119      1.0  0.04237  0.21097  0.49464  1.0000
  H   H120      1.0  0.25876  0.02856  0.94722  1.0000
  H   H121      1.0  0.30048  0.12014  0.90887  1.0000
  H   H122      1.0  0.32273  0.08921  0.83036  1.0000
  C   C86       1.0  0.99441  0.14795  0.56752  1.0000
  C   C87       1.0  0.32444  0.99485  0.91557  1.0000
  Fe  Fe15      1.0  0.15538  0.45795  0.05257  1.0000
  S   S32       1.0  0.16242  0.43778  0.01190  1.0000
  Fe  Fe16      1.0  0.09387  0.42899  0.04197  1.0000
  S   S33       1.0  0.09664  0.40665  0.00015  1.0000
  S   S34       1.0  0.05694  0.42947  0.06171  1.0000
  Fe  Fe17      1.0  0.12590  0.40026  0.02926  1.0000
  S   S35       1.0  0.12892  0.36224  0.02838  1.0000
  H   H123      1.0  0.09721  0.26147  0.05948  1.0000
  H   H124      1.0  0.23325  0.43637  0.05590  1.0000
  S   S36       1.0  0.12063  0.41983  0.07194  1.0000
  S   S37       1.0  0.30036  0.31170  0.12605  1.0000
  Fe  Fe18      1.0  0.13296  0.44619  0.98660  1.0000
  Fe  Fe19      1.0  0.25549  0.38748  0.38413  1.0000
  S   S38       1.0  0.27583  0.38760  0.42887  1.0000
  S   S39       1.0  0.21197  0.37811  0.38091  1.0000
  Fe  Fe20      1.0  0.29219  0.36515  0.40230  1.0000
  S   S40       1.0  0.29725  0.33110  0.42125  1.0000
  H   H125      1.0  0.13491  0.43245  0.40113  1.0000
  S   S41       1.0  0.26870  0.36150  0.35891  1.0000
  S   S42       1.0  0.12279  0.29695  0.15104  1.0000
  H   H126      1.0  0.20071  0.49351  0.41773  1.0000
  C   C88       1.0  0.16565  0.37976  0.46768  1.0000
  H   H127      1.0  0.17535  0.43144  0.10147  1.0000
  H   H128      1.0  0.22688  0.29955  0.21524  1.0000
  N   N9        1.0  0.17640  0.45040  0.41574  1.0000
  S   S43       1.0  0.10974  0.45903  0.43134  1.0000
  H   H129      1.0  0.27902  0.28012  0.23137  1.0000
  Fe  Fe21      1.0  0.11934  0.25582  0.14959  1.0000
  S   S44       1.0  0.09043  0.38578  0.45184  1.0000
  H   H130      1.0  0.23219  0.27260  0.22783  1.0000
  H   H131      1.0  0.25795  0.32890  0.25794  1.0000
  C   C89       1.0  0.05894  0.27570  0.06249  1.0000
  H   H132      1.0  0.23861  0.28382  0.18808  1.0000
  H   H133      1.0  0.07705  0.25944  0.11126  1.0000
  C   C90       1.0  0.19283  0.38659  0.47024  1.0000
  C   C91       1.0  0.07680  0.24628  0.05102  1.0000
  H   H134      1.0  0.05898  0.28017  0.03715  1.0000
  H   H135      1.0  0.26250  0.30135  0.26998  1.0000
  C   C92       1.0  0.19421  0.37758  0.41493  1.0000
  C   C93       1.0  0.20712  0.38566  0.44394  1.0000
  H   H136      1.0  0.29118  0.33336  0.26084  1.0000
  H   H137      1.0  0.27733  0.32883  0.17524  1.0000
  C   C94       1.0  0.15260  0.37133  0.43880  1.0000
  C   C95       1.0  0.16684  0.37021  0.41252  1.0000
  H   H138      1.0  0.22820  0.39158  0.44608  1.0000
  C   C96       1.0  0.00482  0.40617  0.08372  1.0000
  H   H139      1.0  0.18701  0.37815  0.06794  1.0000
  H   H140      1.0  0.13152  0.36555  0.43674  1.0000
  C   C97       1.0  0.26854  0.29890  0.41711  1.0000
  C   C98       1.0  0.24301  0.29596  0.41222  1.0000
  Fe  Fe22      1.0  0.31184  0.42542  0.41052  1.0000
  C   C99       1.0  0.17495  0.41211  0.09727  1.0000
  H   H141      1.0  0.15718  0.43094  0.37257  1.0000
  C   C100      1.0  0.22059  0.43190  0.11651  1.0000
  H   H142      1.0  0.24077  0.31358  0.41059  1.0000
  C   C101      1.0  0.15285  0.42989  0.39804  1.0000
  C   C102      1.0  0.26694  0.28445  0.12682  1.0000
  H   H143      1.0  0.28073  0.25091  0.35392  1.0000
  H   H144      1.0  0.20043  0.26816  0.40772  1.0000
  H   H145      1.0  0.26622  0.34450  0.20333  1.0000
  C   C103      1.0  0.21850  0.26817  0.12376  1.0000
  C   C104      1.0  0.24540  0.28943  0.12292  1.0000
  C   C105      1.0  0.26145  0.25809  0.13162  1.0000
  H   H146      1.0  0.20203  0.27214  0.12045  1.0000
  H   H147      1.0  0.24954  0.30979  0.11906  1.0000
  C   C106      1.0  0.02282  0.40300  0.06412  1.0000
  C   C107      1.0  0.01292  0.37972  0.04588  1.0000
  H   H148      1.0  0.16604  0.48104  0.40752  1.0000
  H   H149      1.0  0.02645  0.37707  0.03054  1.0000
  H   H150      1.0  0.01224  0.42414  0.09784  1.0000
  C   C108      1.0  0.12729  0.34444  0.06275  1.0000
  C   C109      1.0  0.11862  0.34957  0.09114  1.0000
  C   C110      1.0  0.11770  0.33510  0.11810  1.0000
  C   C111      1.0  0.12499  0.31510  0.11681  1.0000
  C   C112      1.0  0.13377  0.31001  0.08846  1.0000
  C   C113      1.0  0.13487  0.32462  0.06151  1.0000
  H   H151      1.0  0.11241  0.36454  0.09233  1.0000
  H   H152      1.0  0.11092  0.33914  0.14001  1.0000
  H   H153      1.0  0.13995  0.29501  0.08739  1.0000
  H   H154      1.0  0.14172  0.32062  0.03963  1.0000
  S   S45       1.0  0.12839  0.46916  0.02635  1.0000
  N   N10       1.0  0.05537  0.24862  0.06762  1.0000
  H   H155      1.0  0.19281  0.37782  0.10906  1.0000
  H   H156      1.0  0.32124  0.29192  0.37281  1.0000
  C   C114      1.0  0.20078  0.39012  0.08742  1.0000
  C   C115      1.0  0.22269  0.24711  0.41274  1.0000
  H   H157      1.0  0.22098  0.39253  0.08246  1.0000
  H   H158      1.0  0.20459  0.44643  0.38586  1.0000
  N   N11       1.0  0.26861  0.31055  0.22083  1.0000
  C   C116      1.0  0.22013  0.27015  0.41053  1.0000
  H   H159      1.0  0.15160  0.25406  0.36838  1.0000
  H   H160      1.0  0.24139  0.43556  0.11237  1.0000
  C   C117      1.0  0.27006  0.31884  0.25383  1.0000
  S   S46       1.0  0.29030  0.42655  0.36682  1.0000
  H   H161      1.0  0.21249  0.45129  0.06231  1.0000
  H   H162      1.0  0.16329  0.42758  0.45841  1.0000
  H   H163      1.0  0.21337  0.42107  0.13917  1.0000
  H   H164      1.0  0.29982  0.34950  0.20549  1.0000
  C   C118      1.0  0.24032  0.29079  0.21270  1.0000
  H   H165      1.0  0.16594  0.39933  0.11836  1.0000
  C   C119      1.0  0.18336  0.47748  0.40452  1.0000
  C   C120      1.0  0.01487  0.26521  0.44183  1.0000
  H   H166      1.0  0.28758  0.35929  0.47770  1.0000
  H   H167      1.0  0.15276  0.45200  0.45385  1.0000
  C   C121      1.0  0.27839  0.33439  0.20035  1.0000
  H   H168      1.0  0.14689  0.40922  0.40600  1.0000
  C   C122      1.0  0.02186  0.29172  0.44993  1.0000
  H   H169      1.0  0.22206  0.45193  0.11920  1.0000
  C   C123      1.0  0.00411  0.29647  0.46764  1.0000
  H   H170      1.0  0.18717  0.46259  0.46369  1.0000
  H   H171      1.0  0.27791  0.25404  0.13448  1.0000
  H   H172      1.0  0.19932  0.42032  0.04095  1.0000
  H   H173      1.0  0.18871  0.48001  0.37925  1.0000
  Fe  Fe23      1.0  0.30524  0.40030  0.34516  1.0000
  H   H174      1.0  0.05882  0.42675  0.99446  1.0000
  H   H175      1.0  0.19539  0.42642  0.42058  1.0000
  C   C124      1.0  0.06486  0.47594  0.00130  1.0000
  Fe  Fe24      1.0  0.09434  0.42523  0.46783  1.0000
  N   N12       1.0  0.20220  0.41648  0.09061  1.0000
  H   H176      1.0  0.07911  0.47297  0.01626  1.0000
  H   H177      1.0  0.30725  0.31256  0.22203  1.0000
  H   H178      1.0  0.15670  0.36383  0.39017  1.0000
  H   H179      1.0  0.02832  0.26181  0.42718  1.0000
  H   H180      1.0  0.04049  0.30853  0.44139  1.0000
  C   C125      1.0  0.21230  0.43178  0.06114  1.0000
  H   H181      1.0  0.07841  0.29159  0.07238  1.0000
  C   C126      1.0  0.19966  0.44618  0.41108  1.0000
  C   C127      1.0  0.16966  0.44808  0.44938  1.0000
  H   H182      1.0  0.07614  0.24923  0.02539  1.0000
  C   C128      1.0  0.27115  0.27588  0.41951  1.0000
  C   C129      1.0  0.28571  0.29819  0.21635  1.0000
  H   H183      1.0  0.29076  0.27805  0.42390  1.0000
  H   H184      1.0  0.21805  0.46178  0.42325  1.0000
  H   H185      1.0  0.16107  0.40204  0.07730  1.0000
  H   H186      1.0  0.28505  0.29176  0.19165  1.0000
  H   H187      1.0  0.04640  0.46970  0.01566  1.0000
  H   H188      1.0  0.04266  0.27784  0.07399  1.0000
  S   S47       1.0  0.01034  0.32950  0.47478  1.0000
  H   H189      1.0  0.02651  0.42440  0.99348  1.0000
  S   S48       1.0  0.32076  0.40373  0.29554  1.0000
  N   N13       1.0  0.32137  0.25770  0.35229  1.0000
  H   H190      1.0  0.31920  0.25279  0.30228  1.0000
  S   S49       1.0  0.18736  0.48410  0.08765  1.0000
  C   C130      1.0  0.24834  0.25003  0.41680  1.0000
  H   H191      1.0  0.31641  0.28093  0.31601  1.0000
  S   S50       1.0  0.14569  0.24510  0.17843  1.0000
  C   C131      1.0  0.32660  0.26897  0.32028  1.0000
  C   C132      1.0  0.12496  0.49424  0.43833  1.0000
  H   H192      1.0  0.04129  0.24601  0.11492  1.0000
  H   H193      1.0  0.14980  0.25764  0.82971  1.0000
  Fe  Fe25      1.0  0.25731  0.40767  0.79797  1.0000
  S   S51       1.0  0.27832  0.42676  0.75288  1.0000
  S   S52       1.0  0.21339  0.37541  0.80398  1.0000
  H   H194      1.0  0.20040  0.46919  0.82650  1.0000
  S   S53       1.0  0.29198  0.40403  0.81768  1.0000
  S   S54       1.0  0.26965  0.44728  0.82135  1.0000
  Fe  Fe26      1.0  0.07798  0.40440  0.53506  1.0000
  S   S55       1.0  0.06834  0.41422  0.58299  1.0000
  S   S56       1.0  0.15269  0.29232  0.69393  1.0000
  H   H195      1.0  0.06441  0.31869  0.67735  1.0000
  H   H196      1.0  0.21333  0.28479  0.78380  1.0000
  H   H197      1.0  0.02089  0.45930  0.96524  1.0000
  C   C133      1.0  0.02684  0.28936  0.76120  1.0000
  H   H198      1.0  0.23325  0.47260  0.83036  1.0000
  H   H199      1.0  0.04289  0.30746  0.77173  1.0000
  C   C134      1.0  0.03658  0.39152  0.59913  1.0000
  C   C135      1.0  0.02705  0.39931  0.62506  1.0000
  C   C136      1.0  0.00137  0.38184  0.63767  1.0000
  H   H200      1.0  0.03929  0.41920  0.63493  1.0000
  H   H201      1.0  0.07693  0.35853  0.71052  1.0000
  H   H202      1.0  0.31416  0.46607  0.67325  1.0000
  H   H203      1.0  0.03488  0.45341  0.93050  1.0000
  H   H204      1.0  0.05485  0.37244  0.71296  1.0000
  C   C137      1.0  0.18311  0.45032  0.88458  1.0000
  C   C138      1.0  0.19658  0.35265  0.77309  1.0000
  C   C139      1.0  0.16929  0.33284  0.77657  1.0000
  C   C140      1.0  0.15553  0.31419  0.75248  1.0000
  C   C141      1.0  0.16898  0.31539  0.72469  1.0000
  C   C142      1.0  0.19620  0.33525  0.72121  1.0000
  C   C143      1.0  0.21001  0.35372  0.74536  1.0000
  H   H205      1.0  0.15875  0.33199  0.79792  1.0000
  H   H206      1.0  0.13445  0.29924  0.75519  1.0000
  H   H207      1.0  0.20670  0.33632  0.69973  1.0000
  H   H208      1.0  0.23101  0.36883  0.74244  1.0000
  C   C144      1.0  0.22721  0.45470  0.88963  1.0000
  Fe  Fe27      1.0  0.30578  0.44537  0.83785  1.0000
  C   C145      1.0  0.99515  0.34825  0.59935  1.0000
  H   H209      1.0  0.11217  0.49095  0.48621  1.0000
  H   H210      1.0  0.16124  0.26440  0.74418  1.0000
  C   C146      1.0  0.15263  0.49296  0.92460  1.0000
  H   H211      1.0  0.03382  0.30426  0.65463  1.0000
  C   C147      1.0  0.05543  0.35348  0.70970  1.0000
  H   H212      1.0  0.04507  0.34049  0.73023  1.0000
  S   S57       1.0  0.14896  0.38276  0.50086  1.0000
  C   C148      1.0  0.03160  0.26836  0.75272  1.0000
  Fe  Fe28      1.0  0.11416  0.25274  0.70144  1.0000
  N   N14       1.0  0.20551  0.45023  0.86738  1.0000
  H   H213      1.0  0.02809  0.35937  0.56699  1.0000
  H   H214      1.0  0.04718  0.34866  0.63080  1.0000
  Fe  Fe29      1.0  0.11252  0.38826  0.49627  1.0000
  H   H215      1.0  0.01225  0.35202  0.68354  1.0000
  C   C149      1.0  0.05668  0.35801  0.65356  1.0000
  S   S58       1.0  0.13973  0.45894  0.93558  1.0000
  Fe  Fe30      1.0  0.31416  0.42576  0.77380  1.0000
  H   H216      1.0  0.00335  0.32392  0.65805  1.0000
  S   S59       1.0  0.31954  0.45835  0.88773  1.0000
  H   H217      1.0  0.04945  0.48680  0.94631  1.0000
  H   H218      1.0  0.04034  0.41851  0.95843  1.0000
  N   N15       1.0  0.05856  0.46012  0.97210  1.0000
  N   N16       1.0  0.04231  0.33997  0.68010  1.0000
  C   C150      1.0  0.01384  0.33361  0.68026  1.0000
  S   S60       1.0  0.99611  0.31384  0.76602  1.0000
  H   H219      1.0  0.15432  0.48486  0.87567  1.0000
  C   C151      1.0  0.21622  0.47196  0.84374  1.0000
  H   H220      1.0  0.03221  0.30053  0.69630  1.0000
  S   S61       1.0  0.05442  0.40438  0.49308  1.0000
  C   C152      1.0  0.19547  0.42396  0.85164  1.0000
  H   H221      1.0  0.24216  0.47056  0.76120  1.0000
  Fe  Fe31      1.0  0.29372  0.46603  0.77823  1.0000
  S   S62       1.0  0.11814  0.42839  0.51094  1.0000
  H   H222      1.0  0.07819  0.36309  0.65254  1.0000
  C   C153      1.0  0.04011  0.46514  0.95267  1.0000
  H   H223      1.0  0.18989  0.46982  0.89679  1.0000
  H   H224      1.0  0.14209  0.26865  0.79388  1.0000
  C   C154      1.0  0.02074  0.36573  0.58664  1.0000
  H   H225      1.0  0.05117  0.27024  0.75681  1.0000
  H   H226      1.0  0.19842  0.28795  0.81946  1.0000
  C   C155      1.0  0.08381  0.46822  0.95465  1.0000
  C   C156      1.0  0.04326  0.31478  0.67691  1.0000
  H   H227      1.0  0.30084  0.40648  0.49129  1.0000
  H   H228      1.0  0.18729  0.40707  0.86873  1.0000
  H   H229      1.0  0.00231  0.31960  0.69962  1.0000
  S   S63       1.0  0.07474  0.36466  0.52479  1.0000
  C   C157      1.0  0.02678  0.25281  0.53425  1.0000
  H   H230      1.0  0.31053  0.47517  0.71229  1.0000
  H   H231      1.0  0.08001  0.45668  0.93249  1.0000
  H   H232      1.0  0.01653  0.25701  0.51469  1.0000
  H   H233      1.0  0.16629  0.44701  0.86867  1.0000
  H   H234      1.0  0.17447  0.43426  0.90274  1.0000
  C   C158      1.0  0.31438  0.40596  0.50969  1.0000
  H   H235      1.0  0.21983  0.43860  0.90771  1.0000
  H   H236      1.0  0.17911  0.41991  0.83464  1.0000
  H   H237      1.0  0.19118  0.29838  0.78298  1.0000
  C   C159      1.0  0.30120  0.35997  0.49674  1.0000
  C   C160      1.0  0.14694  0.25371  0.80413  1.0000
  H   H238      1.0  0.04757  0.27043  0.53609  1.0000
  C   C161      1.0  0.00139  0.28694  0.75624  1.0000
  H   H239      1.0  0.30799  0.34552  0.49000  1.0000
  C   C162      1.0  0.19456  0.28278  0.79419  1.0000
  H   H240      1.0  0.20301  0.39303  0.49256  1.0000
  H   H241      1.0  0.18444  0.25202  0.74341  1.0000
  H   H242      1.0  0.05653  0.37731  0.65536  1.0000
  C   C163      1.0  0.16636  0.25008  0.75556  1.0000
  H   H243      1.0  0.20474  0.48082  0.76272  1.0000
  H   H244      1.0  0.99604  0.37138  0.48267  1.0000
  H   H245      1.0  0.21179  0.42307  0.83841  1.0000
  H   H246      1.0  0.00680  0.38859  0.53712  1.0000
  N   N17       1.0  0.17118  0.25549  0.78943  1.0000
  H   H247      1.0  0.22381  0.49206  0.85472  1.0000
  H   H248      1.0  0.23519  0.47430  0.90199  1.0000
  H   H249      1.0  0.24455  0.45484  0.87758  1.0000
  H   H250      1.0  0.30279  0.39988  0.53195  1.0000
  C   C164      1.0  0.24662  0.49119  0.76325  1.0000
  H   H251      1.0  0.28884  0.35228  0.51835  1.0000
  H   H252      1.0  0.09810  0.46456  0.96858  1.0000
  H   H253      1.0  0.01579  0.25175  0.55615  1.0000
  C   C165      1.0  0.01065  0.24454  0.74014  1.0000
  C   C166      1.0  0.04543  0.43117  0.97981  1.0000
  N   N18       1.0  0.32435  0.38746  0.50113  1.0000
  H   H254      1.0  0.09450  0.49001  0.94857  1.0000
  H   H255      1.0  0.06299  0.24674  0.50031  1.0000
  H   H256      1.0  0.32312  0.45244  0.70593  1.0000
  C   C167      1.0  0.32361  0.47089  0.69685  1.0000
  Fe  Fe32      1.0  0.05276  0.36519  0.48155  1.0000
  H   H257      1.0  0.32320  0.66610  0.09750  1.0000
  C   C168      1.0  0.13413  0.53257  0.47117  1.0000
  H   H258      1.0  0.28812  0.72269  0.47044  1.0000
  Fe  Fe33      1.0  0.09514  0.71479  0.16004  1.0000
  H   H259      1.0  0.09774  0.55193  0.32554  1.0000
  S   S64       1.0  0.06073  0.69117  0.12510  1.0000
  H   H260      1.0  0.27622  0.60165  0.13741  1.0000
  C   C169      1.0  0.32167  0.56753  0.41462  1.0000
  S   S65       1.0  0.18458  0.72108  0.13960  1.0000
  Fe  Fe34      1.0  0.12736  0.72850  0.22183  1.0000
  S   S66       1.0  0.13152  0.72307  0.27371  1.0000
  H   H261      1.0  0.14108  0.56696  0.35341  1.0000
  S   S67       1.0  0.11936  0.69855  0.18364  1.0000
  H   H262      1.0  0.01757  0.66401  0.08104  1.0000
  Fe  Fe35      1.0  0.21238  0.68425  0.42099  1.0000
  S   S68       1.0  0.23502  0.68862  0.37679  1.0000
  S   S69       1.0  0.21294  0.71955  0.44544  1.0000
  Fe  Fe36      1.0  0.18818  0.62243  0.42311  1.0000
  S   S70       1.0  0.20924  0.62270  0.37867  1.0000
  S   S71       1.0  0.16009  0.58558  0.45256  1.0000
  Fe  Fe37      1.0  0.24531  0.65920  0.39882  1.0000
  S   S72       1.0  0.28812  0.66735  0.39246  1.0000
  Fe  Fe38      1.0  0.19691  0.65212  0.36120  1.0000
  S   S73       1.0  0.17958  0.64839  0.31286  1.0000
  S   S74       1.0  0.22525  0.65732  0.44460  1.0000
  S   S75       1.0  0.17330  0.64943  0.40411  1.0000
  H   H263      1.0  0.29957  0.59955  0.41989  1.0000
  C   C170      1.0  0.15089  0.54039  0.41816  1.0000
  C   C171      1.0  0.14814  0.55067  0.44674  1.0000
  C   C172      1.0  0.27953  0.59994  0.11208  1.0000
  H   H264      1.0  0.30338  0.54767  0.41901  1.0000
  H   H265      1.0  0.27415  0.53661  0.03025  1.0000
  H   H266      1.0  0.16190  0.55398  0.39928  1.0000
  C   C173      1.0  0.30685  0.66542  0.42413  1.0000
  H   H267      1.0  0.15454  0.72851  0.08416  1.0000
  C   C174      1.0  0.23835  0.51016  0.11010  1.0000
  C   C175      1.0  0.29615  0.65934  0.45434  1.0000
  C   C176      1.0  0.30837  0.62003  0.06731  1.0000
  C   C177      1.0  0.30449  0.64831  0.10631  1.0000
  H   H268      1.0  0.27572  0.65501  0.45857  1.0000
  C   C178      1.0  0.14593  0.70314  0.28429  1.0000
  C   C179      1.0  0.15215  0.70169  0.31577  1.0000
  C   C180      1.0  0.16311  0.68548  0.32477  1.0000
  C   C181      1.0  0.16750  0.67030  0.30234  1.0000
  C   C182      1.0  0.16149  0.67194  0.27089  1.0000
  C   C183      1.0  0.15099  0.68849  0.26185  1.0000
  H   H269      1.0  0.14823  0.71292  0.33323  1.0000
  H   H270      1.0  0.16769  0.68435  0.34908  1.0000
  H   H271      1.0  0.16485  0.66029  0.25343  1.0000
  H   H272      1.0  0.14637  0.68949  0.23756  1.0000
  H   H273      1.0  0.23181  0.71768  0.12647  1.0000
  H   H274      1.0  0.11703  0.60212  0.40626  1.0000
  C   C184      1.0  0.02606  0.66664  0.13047  1.0000
  C   C185      1.0  0.01495  0.65678  0.15997  1.0000
  H   H275      1.0  0.24146  0.73979  0.19040  1.0000
  H   H276      1.0  0.02760  0.66428  0.18056  1.0000
  H   H277      1.0  0.09848  0.53395  0.37872  1.0000
  H   H278      1.0  0.15636  0.72150  0.04362  1.0000
  C   C186      1.0  0.26416  0.52909  0.05248  1.0000
  C   C187      1.0  0.27956  0.53559  0.08006  1.0000
  H   H279      1.0  0.08281  0.68217  0.06249  1.0000
  H   H280      1.0  0.14918  0.58836  0.38702  1.0000
  H   H281      1.0  0.07436  0.49787  0.99649  1.0000
  H   H282      1.0  0.16630  0.70606  0.07351  1.0000
  C   C188      1.0  0.09667  0.55097  0.38853  1.0000
  H   H283      1.0  0.09925  0.65083  0.04728  1.0000
  N   N19       1.0  0.30509  0.62313  0.10106  1.0000
  H   H284      1.0  0.22861  0.50328  0.13259  1.0000
  H   H285      1.0  0.14907  0.60123  0.34885  1.0000
  H   H286      1.0  0.11932  0.69359  0.11797  1.0000
  C   C189      1.0  0.12292  0.50456  0.46717  1.0000
  C   C190      1.0  0.26646  0.52573  0.10865  1.0000
  H   H287      1.0  0.32616  0.62639  0.14404  1.0000
  C   C191      1.0  0.10416  0.69879  0.06072  1.0000
  N   N20       1.0  0.10974  0.57495  0.36809  1.0000
  C   C192      1.0  0.30266  0.59119  0.44203  1.0000
  H   H288      1.0  0.22879  0.74061  0.22851  1.0000
  H   H289      1.0  0.28372  0.57211  0.44726  1.0000
  H   H290      1.0  0.28147  0.70286  0.43572  1.0000
  H   H291      1.0  0.13425  0.66082  0.05243  1.0000
  C   C193      1.0  0.22275  0.50343  0.08290  1.0000
  H   H292      1.0  0.11787  0.61584  0.36816  1.0000
  H   H293      1.0  0.10756  0.70708  0.03659  1.0000
  H   H294      1.0  0.12445  0.67609  0.02227  1.0000
  C   C194      1.0  0.13893  0.51234  0.41384  1.0000
  C   C195      1.0  0.09643  0.56862  0.33714  1.0000
  H   H295      1.0  0.10614  0.71486  0.07694  1.0000
  H   H296      1.0  0.26182  0.59814  0.09905  1.0000
  H   H297      1.0  0.31928  0.57506  0.39152  1.0000
  H   H298      1.0  0.30168  0.72458  0.38528  1.0000
  C   C196      1.0  0.00923  0.65656  0.10399  1.0000
  H   H299      1.0  0.28718  0.64802  0.09400  1.0000
  H   H300      1.0  0.08610  0.59191  0.38541  1.0000
  H   H301      1.0  0.13212  0.67176  0.10840  1.0000
  H   H302      1.0  0.10614  0.58641  0.32125  1.0000
  H   H303      1.0  0.30564  0.60581  0.46092  1.0000
  H   H304      1.0  0.07468  0.56248  0.33910  1.0000
  H   H305      1.0  0.30827  0.60091  0.06250  1.0000
  H   H306      1.0  0.26778  0.72486  0.43984  1.0000
  Fe  Fe39      1.0  0.15550  0.73270  0.16046  1.0000
  N   N21       1.0  0.32609  0.58692  0.43984  1.0000
  H   H307      1.0  0.31190  0.55646  0.47561  1.0000
  H   H308      1.0  0.10621  0.55537  0.41217  1.0000
  C   C197      1.0  0.28586  0.72286  0.44461  1.0000
  H   H309      1.0  0.07483  0.54393  0.39182  1.0000
  S   S76       1.0  0.31506  0.55630  0.08142  1.0000
  C   C198      1.0  0.12017  0.66836  0.04669  1.0000
  C   C199      1.0  0.10755  0.59718  0.38260  1.0000
  H   H310      1.0  0.09671  0.66092  0.10306  1.0000
  H   H311      1.0  0.22370  0.50766  0.03272  1.0000
  C   C200      1.0  0.11761  0.67831  0.10090  1.0000
  C   C201      1.0  0.15131  0.71236  0.06734  1.0000
  H   H312      1.0  0.14049  0.50461  0.39136  1.0000
  H   H313      1.0  0.27814  0.53059  0.13003  1.0000
  C   C202      1.0  0.23565  0.51265  0.05387  1.0000
  N   N22       1.0  0.12332  0.68947  0.06888  1.0000
  C   C203      1.0  0.13852  0.58321  0.36415  1.0000
  H   H314      1.0  0.30282  0.65176  0.13162  1.0000
  C   C204      1.0  0.31195  0.65881  0.47924  1.0000
  H   H315      1.0  0.15813  0.73555  0.39081  1.0000
  C   C205      1.0  0.23687  0.73836  0.12290  1.0000
  H   H316      1.0  0.27958  0.58071  0.10873  1.0000
  H   H317      1.0  0.29181  0.61973  0.05330  1.0000
  H   H318      1.0  0.03082  0.73791  0.47599  1.0000
  S   S77       1.0  0.09974  0.74198  0.20067  1.0000
  C   C206      1.0  0.30611  0.74423  0.39559  1.0000
  H   H319      1.0  0.31153  0.56930  0.88069  1.0000
  Fe  Fe40      1.0  0.21180  0.56975  0.78631  1.0000
  S   S78       1.0  0.23494  0.58599  0.83076  1.0000
  S   S79       1.0  0.20411  0.53048  0.76521  1.0000
  Fe  Fe41      1.0  0.19779  0.61477  0.78023  1.0000
  S   S80       1.0  0.21960  0.63432  0.82499  1.0000
  S   S81       1.0  0.18235  0.63193  0.74226  1.0000
  Fe  Fe42      1.0  0.25221  0.62649  0.80769  1.0000
  S   S82       1.0  0.29634  0.65772  0.81469  1.0000
  Fe  Fe43      1.0  0.20051  0.59205  0.84442  1.0000
  S   S83       1.0  0.18435  0.58046  0.89369  1.0000
  S   S84       1.0  0.23196  0.60959  0.76181  1.0000
  S   S85       1.0  0.17589  0.57314  0.80125  1.0000
  Fe  Fe44      1.0  0.07919  0.71498  0.65213  1.0000
  S   S86       1.0  0.05391  0.68942  0.69191  1.0000
  S   S87       1.0  0.07049  0.70172  0.60152  1.0000
  N   N23       1.0  0.18040  0.56039  0.68801  1.0000
  S   S88       1.0  0.30031  0.50553  0.75890  1.0000
  Fe  Fe45      1.0  0.09301  0.70376  0.71803  1.0000
  S   S89       1.0  0.10088  0.67774  0.75222  1.0000
  Fe  Fe46      1.0  0.05522  0.72730  0.70845  1.0000
  S   S90       1.0  0.01352  0.72147  0.71749  1.0000
  H   H320      1.0  0.19901  0.53594  0.69345  1.0000
  C   C207      1.0  0.20457  0.55726  0.68908  1.0000
  H   H321      1.0  0.99904  0.64814  0.65232  1.0000
  C   C208      1.0  0.03071  0.68020  0.55691  1.0000
  C   C209      1.0  0.03726  0.68947  0.58781  1.0000
  H   H322      1.0  0.27937  0.71952  0.74560  1.0000
  H   H323      1.0  0.04629  0.68146  0.54146  1.0000
  H   H324      1.0  0.13171  0.72873  0.78682  1.0000
  C   C210      1.0  0.27347  0.51212  0.76346  1.0000
  H   H325      1.0  0.29187  0.59502  0.83226  1.0000
  C   C211      1.0  0.30331  0.58228  0.88865  1.0000
  H   H326      1.0  0.30608  0.58425  0.91451  1.0000
  C   C212      1.0  0.00390  0.66854  0.54612  1.0000
  H   H327      1.0  0.28857  0.64681  0.74787  1.0000
  N   N24       1.0  0.31717  0.60887  0.87315  1.0000
  C   C213      1.0  0.16004  0.64503  0.74586  1.0000
  C   C214      1.0  0.15670  0.65853  0.72021  1.0000
  C   C215      1.0  0.13875  0.66870  0.72169  1.0000
  C   C216      1.0  0.12360  0.66513  0.74876  1.0000
  C   C217      1.0  0.12701  0.65174  0.77444  1.0000
  C   C218      1.0  0.14523  0.64190  0.77312  1.0000
  H   H328      1.0  0.16800  0.66103  0.69898  1.0000
  H   H329      1.0  0.13640  0.67896  0.70174  1.0000
  H   H330      1.0  0.11545  0.64891  0.79554  1.0000
  H   H331      1.0  0.14747  0.63149  0.79300  1.0000
  H   H332      1.0  0.28122  0.57145  0.88372  1.0000
  S   S91       1.0  0.11836  0.72607  0.67657  1.0000
  C   C219      1.0  0.16684  0.53958  0.93689  1.0000
  C   C220      1.0  0.17248  0.54676  0.90523  1.0000
  C   C221      1.0  0.16822  0.52692  0.88330  1.0000
  C   C222      1.0  0.32416  0.67854  0.72573  1.0000
  H   H333      1.0  0.99889  0.66070  0.52256  1.0000
  H   H334      1.0  0.14924  0.72634  0.73463  1.0000
  H   H335      1.0  0.17233  0.53218  0.85883  1.0000
  C   C223      1.0  0.23102  0.52373  0.76617  1.0000
  H   H336      1.0  0.21621  0.56383  0.66687  1.0000
  C   C224      1.0  0.30554  0.62534  0.88427  1.0000
  C   C225      1.0  0.31360  0.60529  0.83890  1.0000
  H   H337      1.0  0.17105  0.59225  0.68287  1.0000
  C   C226      1.0  0.25786  0.54462  0.76759  1.0000
  C   C227      1.0  0.29785  0.72928  0.76043  1.0000
  C   C228      1.0  0.30775  0.66488  0.75151  1.0000
  C   C229      1.0  0.18873  0.58902  0.68293  1.0000
  H   H338      1.0  0.28366  0.61582  0.87843  1.0000
  C   C230      1.0  0.16253  0.54397  0.66223  1.0000
  H   H339      1.0  0.31739  0.67092  0.70235  1.0000
  H   H340      1.0  0.13182  0.54025  0.49335  1.0000
  H   H341      1.0  0.15321  0.50767  0.97108  1.0000
  H   H342      1.0  0.26233  0.56528  0.76901  1.0000
  H   H343      1.0  0.14407  0.54585  0.66086  1.0000
  H   H344      1.0  0.30353  0.65401  0.50257  1.0000
  H   H345      1.0  0.00069  0.63211  0.59817  1.0000
  H   H346      1.0  0.17882  0.56314  0.73771  1.0000
  H   H347      1.0  0.16092  0.70910  0.78213  1.0000
  C   C231      1.0  0.22546  0.49703  0.76407  1.0000
  H   H348      1.0  0.15584  0.52225  0.66545  1.0000
  H   H349      1.0  0.04086  0.65122  0.63212  1.0000
  C   C232      1.0  0.16572  0.55127  0.71795  1.0000
  H   H350      1.0  0.04292  0.62149  0.62571  1.0000
  H   H351      1.0  0.20241  0.60201  0.70187  1.0000
  H   H352      1.0  0.04226  0.63254  0.66492  1.0000
  H   H353      1.0  0.02198  0.69541  0.63128  1.0000
  H   H354      1.0  0.15922  0.52980  0.72282  1.0000
  H   H355      1.0  0.17296  0.55028  0.63922  1.0000
  H   H356      1.0  0.17017  0.55484  0.95398  1.0000
  C   C233      1.0  0.01703  0.68784  0.60759  1.0000
  C   C234      1.0  0.27903  0.53883  0.76572  1.0000
  C   C235      1.0  0.15716  0.51283  0.94660  1.0000
  H   H357      1.0  0.01244  0.71347  0.50559  1.0000
  H   H358      1.0  0.00357  0.57667  0.63910  1.0000
  C   C236      1.0  0.15809  0.50011  0.89293  1.0000
  H   H359      1.0  0.19961  0.59662  0.66037  1.0000
  H   H360      1.0  0.29977  0.55510  0.76575  1.0000
  H   H361      1.0  0.30763  0.62825  0.91006  1.0000
  H   H362      1.0  0.04840  0.72778  0.50252  1.0000
  C   C237      1.0  0.03377  0.63051  0.64097  1.0000
  H   H363      1.0  0.14753  0.55365  0.71840  1.0000
  H   H364      1.0  0.21844  0.56930  0.70841  1.0000
  C   C238      1.0  0.31643  0.67438  0.78183  1.0000
  C   C239      1.0  0.03171  0.73240  0.50072  1.0000
  N   N25       1.0  0.00394  0.61431  0.64098  1.0000
  H   H365      1.0  0.19560  0.72924  0.77096  1.0000
  C   C240      1.0  0.17906  0.72945  0.78443  1.0000
  H   H366      1.0  0.00012  0.62969  0.68546  1.0000
  H   H367      1.0  0.18485  0.73235  0.80957  1.0000
  H   H368      1.0  0.31569  0.64563  0.87320  1.0000
  H   H369      1.0  0.30683  0.71597  0.76002  1.0000
  S   S92       1.0  0.09212  0.73964  0.73845  1.0000
  H   H370      1.0  0.02058  0.72815  0.56225  1.0000
  H   H371      1.0  0.00263  0.58820  0.67787  1.0000
  H   H372      1.0  0.05635  0.74332  0.55648  1.0000
  H   H373      1.0  0.29145  0.72959  0.78493  1.0000
  H   H374      1.0  0.32365  0.62502  0.82651  1.0000
  H   H375      1.0  0.32219  0.59300  0.82965  1.0000
  H   H376      1.0  0.00111  0.60144  0.59312  1.0000
  C   C241      1.0  0.99539  0.58718  0.65344  1.0000
  Fe  Fe47      1.0  0.15258  0.96509  0.06674  1.0000
  S   S93       1.0  0.15807  0.94246  0.02737  1.0000
  Fe  Fe48      1.0  0.09070  0.92838  0.06768  1.0000
  S   S94       1.0  0.09196  0.90402  0.02754  1.0000
  S   S95       1.0  0.05202  0.92150  0.09157  1.0000
  Fe  Fe49      1.0  0.12716  0.90556  0.05305  1.0000
  S   S96       1.0  0.12628  0.86575  0.05464  1.0000
  Fe  Fe50      1.0  0.12275  0.94335  0.00583  1.0000
  S   S97       1.0  0.11857  0.96776  0.04384  1.0000
  S   S98       1.0  0.12451  0.92813  0.09460  1.0000
  S   S99       1.0  0.30225  0.80845  0.09564  1.0000
  C   C242      1.0  0.15006  0.86084  0.45646  1.0000
  Fe  Fe51      1.0  0.23963  0.87573  0.37145  1.0000
  S   S100      1.0  0.26556  0.89101  0.41428  1.0000
  S   S101      1.0  0.19428  0.85760  0.36856  1.0000
  Fe  Fe52      1.0  0.28701  0.87058  0.39358  1.0000
  H   H377      1.0  0.14917  0.91573  0.43042  1.0000
  S   S102      1.0  0.26619  0.91211  0.34277  1.0000
  S   S103      1.0  0.25868  0.85250  0.35323  1.0000
  S   S104      1.0  0.14864  0.81720  0.17712  1.0000
  H   H378      1.0  0.17103  0.95571  0.46465  1.0000
  S   S105      1.0  0.00748  0.83587  0.45032  1.0000
  H   H379      1.0  0.21618  0.94465  0.39231  1.0000
  S   S106      1.0  0.16505  0.76147  0.20009  1.0000
  H   H380      1.0  0.19565  0.78063  0.34564  1.0000
  H   H381      1.0  0.18316  0.81744  0.22799  1.0000
  H   H382      1.0  0.19443  0.86237  0.20837  1.0000
  H   H383      1.0  0.18515  0.86961  0.24561  1.0000
  S   S107      1.0  0.08920  0.88473  0.44049  1.0000
  C   C243      1.0  0.23961  0.77326  0.45810  1.0000
  C   C244      1.0  0.26311  0.75751  0.11347  1.0000
  C   C245      1.0  0.19162  0.82667  0.25117  1.0000
  C   C246      1.0  0.21306  0.95937  0.40613  1.0000
  C   C247      1.0  0.31573  0.77093  0.44256  1.0000
  S   S108      1.0  0.12470  0.96034  0.42685  1.0000
  H   H384      1.0  0.30067  0.80885  0.19407  1.0000
  H   H385      1.0  0.21164  0.97178  0.08120  1.0000
  Fe  Fe53      1.0  0.04934  0.86781  0.46517  1.0000
  C   C248      1.0  0.17742  0.85853  0.40268  1.0000
  C   C249      1.0  0.18861  0.86053  0.43234  1.0000
  C   C250      1.0  0.23548  0.85633  0.22879  1.0000
  H   H386      1.0  0.27818  0.75161  0.10975  1.0000
  C   C251      1.0  0.13862  0.85825  0.42684  1.0000
  C   C252      1.0  0.15211  0.85677  0.40008  1.0000
  H   H387      1.0  0.20787  0.86141  0.43472  1.0000
  S   S109      1.0  0.30314  0.96988  0.39902  1.0000
  H   H388      1.0  0.11926  0.85715  0.42451  1.0000
  H   H389      1.0  0.14308  0.85472  0.37725  1.0000
  C   C253      1.0  0.27161  0.80856  0.42375  1.0000
  C   C254      1.0  0.26681  0.78900  0.40097  1.0000
  C   C255      1.0  0.99549  0.75150  0.43470  1.0000
  H   H390      1.0  0.24017  0.88799  0.27732  1.0000
  H   H391      1.0  0.27396  0.75262  0.25080  1.0000
  C   C256      1.0  0.25785  0.80052  0.45223  1.0000
  H   H392      1.0  0.27764  0.79506  0.37902  1.0000
  H   H393      1.0  0.32425  0.76032  0.38351  1.0000
  C   C257      1.0  0.26968  0.78416  0.10819  1.0000
  H   H394      1.0  0.02399  0.91531  0.01873  1.0000
  H   H395      1.0  0.19411  0.75045  0.38797  1.0000
  H   H396      1.0  0.25989  0.98386  0.07846  1.0000
  C   C258      1.0  0.22384  0.77254  0.12304  1.0000
  C   C259      1.0  0.24990  0.79156  0.11273  1.0000
  H   H397      1.0  0.23237  0.85557  0.29136  1.0000
  H   H398      1.0  0.20876  0.77845  0.12661  1.0000
  H   H399      1.0  0.25486  0.81213  0.10846  1.0000
  C   C260      1.0  0.02076  0.89088  0.09515  1.0000
  C   C261      1.0  0.01557  0.86759  0.07897  1.0000
  H   H400      1.0  0.20787  0.79899  0.42966  1.0000
  H   H401      1.0  0.03031  0.86821  0.06266  1.0000
  C   C262      1.0  0.26342  0.79283  0.24027  1.0000
  C   C263      1.0  0.13232  0.85280  0.08923  1.0000
  C   C264      1.0  0.14329  0.86866  0.11596  1.0000
  C   C265      1.0  0.14808  0.85754  0.14293  1.0000
  C   C266      1.0  0.14182  0.83052  0.14333  1.0000
  C   C267      1.0  0.13036  0.81462  0.11679  1.0000
  C   C268      1.0  0.12577  0.82576  0.08983  1.0000
  H   H402      1.0  0.14863  0.88961  0.11560  1.0000
  H   H403      1.0  0.15700  0.86999  0.16336  1.0000
  H   H404      1.0  0.12527  0.79378  0.11687  1.0000
  H   H405      1.0  0.11723  0.81338  0.06924  1.0000
  H   H406      1.0  0.20648  0.97959  0.46050  1.0000
  N   N26       1.0  0.06445  0.85426  0.13939  1.0000
  C   C269      1.0  0.06832  0.86037  0.10562  1.0000
  C   C270      1.0  0.08543  0.87742  0.15711  1.0000
  C   C271      1.0  0.06674  0.83013  0.14582  1.0000
  C   C272      1.0  0.03743  0.84925  0.14885  1.0000
  H   H407      1.0  0.05273  0.84355  0.09135  1.0000
  H   H408      1.0  0.08836  0.86398  0.09765  1.0000
  H   H409      1.0  0.06731  0.87878  0.10004  1.0000
  H   H410      1.0  0.08317  0.87361  0.18274  1.0000
  H   H411      1.0  0.10608  0.88178  0.15044  1.0000
  H   H412      1.0  0.08435  0.89600  0.15252  1.0000
  H   H413      1.0  0.06420  0.82500  0.17114  1.0000
  H   H414      1.0  0.08687  0.83325  0.13868  1.0000
  H   H415      1.0  0.05123  0.81232  0.13272  1.0000
  H   H416      1.0  0.03353  0.84406  0.17409  1.0000
  H   H417      1.0  0.02106  0.83244  0.13526  1.0000
  H   H418      1.0  0.03533  0.86732  0.14483  1.0000
  H   H419      1.0  0.23273  0.97333  0.41749  1.0000
  N   N27       1.0  0.21325  0.85502  0.24781  1.0000
  H   H420      1.0  0.15893  0.80031  0.40155  1.0000
  H   H421      1.0  0.19914  0.81427  0.26269  1.0000
  H   H422      1.0  0.22932  0.76732  0.48040  1.0000
  H   H423      1.0  0.15957  0.76547  0.34761  1.0000
  H   H424      1.0  0.15897  0.93830  0.39788  1.0000
  H   H425      1.0  0.03828  0.77193  0.42541  1.0000
  H   H426      1.0  0.18239  0.91891  0.46871  1.0000
  Fe  Fe54      1.0  0.28781  0.89014  0.32807  1.0000
  S   S110      1.0  0.29504  0.88640  0.27637  1.0000
  H   H427      1.0  0.24494  0.74652  0.38944  1.0000
  C   C273      1.0  0.23530  0.75358  0.43588  1.0000
  C   C274      1.0  0.32274  0.85855  0.28538  1.0000
  S   S111      1.0  0.29747  0.84230  0.41900  1.0000
  H   H428      1.0  0.20822  0.97120  0.38934  1.0000
  C   C275      1.0  0.19856  0.93004  0.45105  1.0000
  C   C276      1.0  0.02524  0.80016  0.43760  1.0000
  H   H429      1.0  0.04518  0.81760  0.43528  1.0000
  C   C277      1.0  0.31893  0.87021  0.23205  1.0000
  H   H430      1.0  0.31960  0.77220  0.46818  1.0000
  C   C278      1.0  0.02129  0.77429  0.43195  1.0000
  H   H431      1.0  0.31888  0.85889  0.31010  1.0000
  H   H432      1.0  0.31213  0.87974  0.21536  1.0000
  C   C279      1.0  0.17892  0.78170  0.35760  1.0000
  H   H433      1.0  0.18060  0.80135  0.35135  1.0000
  C   C280      1.0  0.24861  0.76152  0.40701  1.0000
  H   H434      1.0  0.20168  0.91498  0.43812  1.0000
  N   N28       1.0  0.19131  0.94558  0.42949  1.0000
  H   H435      1.0  0.26836  0.80104  0.17829  1.0000
  Fe  Fe55      1.0  0.09874  0.92524  0.45985  1.0000
  H   H436      1.0  0.28880  0.74721  0.38981  1.0000
  H   H437      1.0  0.29824  0.77411  0.43889  1.0000
  C   C281      1.0  0.23975  0.75322  0.20791  1.0000
  H   H438      1.0  0.20754  0.86598  0.29426  1.0000
  H   H439      1.0  0.21761  0.94327  0.46393  1.0000
  H   H440      1.0  0.03939  0.95053  0.02770  1.0000
  C   C282      1.0  0.17480  0.86134  0.45915  1.0000
  H   H441      1.0  0.25340  0.78117  0.26177  1.0000
  C   C283      1.0  0.04221  0.93534  0.01461  1.0000
  C   C284      1.0  0.18782  0.96566  0.44743  1.0000
  H   H442      1.0  0.17449  0.82494  0.26536  1.0000
  C   C285      1.0  0.20607  0.80071  0.40394  1.0000
  N   N29       1.0  0.18007  0.77888  0.39186  1.0000
  H   H443      1.0  0.24456  0.84522  0.24013  1.0000
  Fe  Fe56      1.0  0.13726  0.77320  0.17637  1.0000
  C   C286      1.0  0.28001  0.79214  0.18866  1.0000
  C   C287      1.0  0.20225  0.87049  0.23215  1.0000
  H   H444      1.0  0.13766  0.76450  0.39817  1.0000
  C   C288      1.0  0.22369  0.86662  0.27906  1.0000
  C   C289      1.0  0.22732  0.99268  0.07984  1.0000
  H   H445      1.0  0.26175  0.81538  0.47011  1.0000
  Fe  Fe57      1.0  0.29380  0.92708  0.38487  1.0000
  C   C290      1.0  0.00323  0.80347  0.44497  1.0000
  H   H446      1.0  0.16779  0.91224  0.39874  1.0000
  H   H447      1.0  0.22676  0.76050  0.19724  1.0000
  H   H448      1.0  0.25217  0.87749  0.22582  1.0000
  H   H449      1.0  0.28337  0.81000  0.24737  1.0000
  H   H450      1.0  0.22833  0.84765  0.20506  1.0000
  H   H451      1.0  0.00455  0.90769  0.12798  1.0000
  C   C291      1.0  0.16574  0.92716  0.41336  1.0000
  H   H452      1.0  0.21795  0.89204  0.22943  1.0000
  H   H453      1.0  0.28231  0.77981  0.17030  1.0000
  H   H454      1.0  0.25112  0.80141  0.23103  1.0000
  H   H455      1.0  0.06917  0.98470  0.98841  1.0000
  C   C292      1.0  0.17767  0.75255  0.39918  1.0000
  S   S112      1.0  0.31779  0.90774  0.36759  1.0000
  H   H456      1.0  0.18256  0.97791  0.43178  1.0000
  N   N30       1.0  0.26661  0.77583  0.21666  1.0000
  H   H457      1.0  0.11425  0.99221  0.47273  1.0000
  H   H458      1.0  0.22347  0.80036  0.39281  1.0000
  C   C293      1.0  0.31365  0.87082  0.26407  1.0000
  C   C294      1.0  0.00085  0.88977  0.11545  1.0000
  H   H459      1.0  0.20839  0.82086  0.39936  1.0000
  H   H460      1.0  0.00044  0.88147  0.46498  1.0000
  C   C295      1.0  0.15765  0.78065  0.40673  1.0000
  H   H461      1.0  0.08949  0.96897  0.98730  1.0000
  H   H462      1.0  0.05955  0.93476  0.02559  1.0000
  N   N31       1.0  0.31034  0.74475  0.42975  1.0000
  H   H463      1.0  0.21815  0.98285  0.01195  1.0000
  H   H464      1.0  0.30384  0.78181  0.23655  1.0000
  H   H465      1.0  0.24427  0.98992  0.98387  1.0000
  S   S113      1.0  0.13131  0.74741  0.13442  1.0000
  C   C296      1.0  0.28342  0.76519  0.22970  1.0000
  H   H466      1.0  0.28657  0.75260  0.21228  1.0000
  H   H467      1.0  0.15801  0.77880  0.43262  1.0000
  H   H468      1.0  0.17902  0.74991  0.42481  1.0000
  S   S114      1.0  0.05687  0.90870  0.47990  1.0000
  C   C297      1.0  0.21722  0.74583  0.12784  1.0000
  Fe  Fe58      1.0  0.30147  0.94509  0.85658  1.0000
  Fe  Fe59      1.0  0.26133  0.90075  0.81250  1.0000
  S   S115      1.0  0.28966  0.91679  0.77142  1.0000
  S   S116      1.0  0.21853  0.86540  0.81387  1.0000
  Fe  Fe60      1.0  0.29734  0.95725  0.78877  1.0000
  S   S117      1.0  0.29297  0.90318  0.84568  1.0000
  S   S118      1.0  0.26699  0.94079  0.82741  1.0000
  Fe  Fe61      1.0  0.07314  0.90014  0.52363  1.0000
  S   S119      1.0  0.06058  0.90798  0.57124  1.0000
  S   S120      1.0  0.15404  0.80161  0.69309  1.0000
  C   C298      1.0  0.01500  0.78482  0.76174  1.0000
  C   C299      1.0  0.01094  0.86099  0.57465  1.0000
  H   H469      1.0  0.07026  0.86909  0.65481  1.0000
  H   H470      1.0  0.02592  0.88012  0.67618  1.0000
  H   H471      1.0  0.06795  0.85243  0.70855  1.0000
  H   H472      1.0  0.02587  0.79821  0.78092  1.0000
  C   C300      1.0  0.02809  0.88655  0.58707  1.0000
  C   C301      1.0  0.01952  0.89508  0.61328  1.0000
  H   H473      1.0  0.32437  0.87743  0.75359  1.0000
  H   H474      1.0  0.03268  0.91482  0.62306  1.0000
  C   C302      1.0  0.07141  0.96852  0.97693  1.0000
  H   H475      1.0  0.19434  0.79355  0.76837  1.0000
  C   C303      1.0  0.30445  0.77348  0.74916  1.0000
  H   H476      1.0  0.00927  0.76403  0.49707  1.0000
  H   H477      1.0  0.02356  0.86865  0.71564  1.0000
  C   C304      1.0  0.20106  0.84774  0.78009  1.0000
  C   C305      1.0  0.17361  0.82818  0.78253  1.0000
  C   C306      1.0  0.15887  0.81400  0.75595  1.0000
  C   C307      1.0  0.17158  0.81924  0.72684  1.0000
  C   C308      1.0  0.19894  0.83899  0.72436  1.0000
  C   C309      1.0  0.21371  0.85311  0.75092  1.0000
  H   H478      1.0  0.16365  0.82416  0.80502  1.0000
  H   H479      1.0  0.13763  0.79926  0.75791  1.0000
  H   H480      1.0  0.20883  0.84318  0.70181  1.0000
  H   H481      1.0  0.23486  0.86805  0.74879  1.0000
  H   H482      1.0  0.21413  0.98604  0.94093  1.0000
  H   H483      1.0  0.18210  0.94551  0.75067  1.0000
  H   H484      1.0  0.06395  0.79646  0.52883  1.0000
  S   S121      1.0  0.30874  0.96015  0.90661  1.0000
  C   C310      1.0  0.02268  0.76637  0.75114  1.0000
  C   C311      1.0  0.03893  0.74690  0.55455  1.0000
  H   H485      1.0  0.03980  0.85975  0.63367  1.0000
  H   H486      1.0  0.00348  0.80718  0.66898  1.0000
  H   H487      1.0  0.00901  0.89390  0.52167  1.0000
  H   H488      1.0  0.03910  0.76532  0.76241  1.0000
  H   H489      1.0  0.03274  0.90082  0.96698  1.0000
  S   S122      1.0  0.13444  0.86413  0.49047  1.0000
  H   H490      1.0  0.28650  0.76504  0.73349  1.0000
  H   H491      1.0  0.07855  0.77733  0.51381  1.0000
  H   H492      1.0  0.01989  0.95760  0.97884  1.0000
  S   S123      1.0  0.12278  0.95230  0.95405  1.0000
  S   S124      1.0  0.11586  0.92003  0.50496  1.0000
  H   H493      1.0  0.01410  0.77404  0.53725  1.0000
  C   C312      1.0  0.04881  0.85295  0.65209  1.0000
  N   N32       1.0  0.20188  0.92290  0.76185  1.0000
  C   C313      1.0  0.22712  0.92315  0.75358  1.0000
  C   C314      1.0  0.17845  0.89638  0.75403  1.0000
  C   C315      1.0  0.20025  0.94417  0.74412  1.0000
  H   H494      1.0  0.24518  0.94301  0.75873  1.0000
  H   H495      1.0  0.22782  0.91900  0.72829  1.0000
  H   H496      1.0  0.22933  0.90780  0.76709  1.0000
  H   H497      1.0  0.15905  0.89579  0.75900  1.0000
  H   H498      1.0  0.17850  0.89132  0.72890  1.0000
  H   H499      1.0  0.19961  0.94070  0.71846  1.0000
  H   H500      1.0  0.21811  0.96426  0.74874  1.0000
  H   H501      1.0  0.18365  0.86306  0.48203  1.0000
  C   C316      1.0  0.19751  0.77732  0.77795  1.0000
  C   C317      1.0  0.05091  0.92118  0.96495  1.0000
  H   H502      1.0  0.14533  0.76421  0.78220  1.0000
  C   C318      1.0  0.00804  0.74822  0.72727  1.0000
  H   H503      1.0  0.99560  0.83277  0.65850  1.0000
  H   H504      1.0  0.21917  0.94774  0.80246  1.0000
  N   N33       1.0  0.31730  0.75661  0.74913  1.0000
  C   C319      1.0  0.14070  0.98555  0.93920  1.0000
  Fe  Fe62      1.0  0.11559  0.76121  0.69548  1.0000
  C   C320      1.0  0.20179  0.92787  0.79576  1.0000
  H   H505      1.0  0.07611  0.97383  0.95177  1.0000
  Fe  Fe63      1.0  0.10464  0.87911  0.48631  1.0000
  H   H506      1.0  0.04867  0.83468  0.64310  1.0000
  H   H507      1.0  0.18716  0.97928  0.96754  1.0000
  Fe  Fe64      1.0  0.32207  0.92197  0.80570  1.0000
  S   S125      1.0  0.07873  0.75206  0.66720  1.0000
  H   H508      1.0  0.18304  0.92782  0.80294  1.0000
  H   H509      1.0  0.06820  0.91998  0.97513  1.0000
  C   C321      1.0  0.02343  0.94225  0.96726  1.0000
  N   N34       1.0  0.03379  0.84742  0.68184  1.0000
  H   H510      1.0  0.03629  0.83523  0.72864  1.0000
  H   H511      1.0  0.17861  0.88008  0.76797  1.0000
  H   H512      1.0  0.20326  0.91225  0.80982  1.0000
  H   H513      1.0  0.20231  0.78168  0.80325  1.0000
  H   H514      1.0  0.05549  0.92586  0.93966  1.0000
  H   H515      1.0  0.29781  0.77526  0.77306  1.0000
  H   H516      1.0  0.02640  0.94707  0.94184  1.0000
  H   H517      1.0  0.04243  0.76302  0.57151  1.0000
  H   H518      1.0  0.13904  0.97241  0.89162  1.0000
  S   S126      1.0  0.06397  0.85883  0.50965  1.0000
  C   C322      1.0  0.06023  0.77949  0.51310  1.0000
  H   H519      1.0  0.05612  0.88850  0.69758  1.0000
  H   H520      1.0  0.26902  0.99083  0.81135  1.0000
  H   H521      1.0  0.00465  0.92240  0.96993  1.0000
  C   C323      1.0  0.04605  0.83788  0.70540  1.0000
  H   H522      1.0  0.01748  0.85399  0.55484  1.0000
  C   C324      1.0  0.14600  0.98960  0.90698  1.0000
  H   H523      1.0  0.16216  0.76178  0.72995  1.0000
  H   H524      1.0  0.04390  0.81812  0.69871  1.0000
  C   C325      1.0  0.00531  0.82655  0.67666  1.0000
  C   C326      1.0  0.03495  0.87229  0.69331  1.0000
  C   C327      1.0  0.16701  0.74652  0.73925  1.0000
  C   C328      1.0  0.32581  0.75489  0.71698  1.0000
  N   N35       1.0  0.03574  0.75423  0.52232  1.0000
  H   H525      1.0  0.31724  0.98763  0.96503  1.0000
  C   C329      1.0  0.15022  0.74871  0.79026  1.0000
  H   H526      1.0  0.21562  0.77905  0.76609  1.0000
  S   S127      1.0  0.29906  0.98929  0.75650  1.0000
  C   C330      1.0  0.01200  0.75803  0.52090  1.0000
  H   H527      1.0  0.18415  0.74809  0.72528  1.0000
  H   H528      1.0  0.15428  0.75161  0.81581  1.0000
  N   N36       1.0  0.17347  0.75052  0.77298  1.0000
  H   H529      1.0  0.31875  0.79428  0.74086  1.0000
  H   H530      1.0  0.05841  0.78560  0.48887  1.0000
  N   N37       1.0  0.04699  0.94183  0.98094  1.0000
  C   C331      1.0  0.99391  0.87843  0.62668  1.0000
  H   H531      1.0  0.30828  0.74513  0.70077  1.0000
  Fe  Fe65      1.0  0.36229  0.13371  0.03597  1.0000
  S   S128      1.0  0.36515  0.11328  0.07932  1.0000
  H   H532      1.0  0.63582  0.01180  0.03813  1.0000
  C   C332      1.0  0.36982  0.06045  0.12353  1.0000
  S   S129      1.0  0.37544  0.07367  0.03281  1.0000
  S   S130      1.0  0.33337  0.09471  0.01194  1.0000
  Fe  Fe66      1.0  0.37058  0.09614  0.99282  1.0000
  Fe  Fe67      1.0  0.40081  0.11395  0.05582  1.0000
  S   S131      1.0  0.43413  0.12175  0.09089  1.0000
  C   C333      1.0  0.33521  0.24196  0.35686  1.0000
  S   S132      1.0  0.39946  0.13686  0.01366  1.0000
  H   H533      1.0  0.62980  0.04325  0.45335  1.0000
  C   C334      1.0  0.65442  0.07367  0.27985  1.0000
  S   S133      1.0  0.45981  0.20124  0.41832  1.0000
  N   N38       1.0  0.65537  0.05407  0.02776  1.0000
  C   C335      1.0  0.35325  0.00130  0.42871  1.0000
  H   H534      1.0  0.34452  0.21243  0.04586  1.0000
  S   S134      1.0  0.35547  0.16948  0.03430  1.0000
  C   C336      1.0  0.44245  0.12237  0.41037  1.0000
  S   S135      1.0  0.39122  0.14313  0.44663  1.0000
  H   H535      1.0  0.35716  0.02554  0.07597  1.0000
  C   C337      1.0  0.64310  0.17572  0.22974  1.0000
  H   H536      1.0  0.38431  0.01301  0.14920  1.0000
  C   C338      1.0  0.62355  0.00574  0.43417  1.0000
  C   C339      1.0  0.60568  0.04958  0.28122  1.0000
  C   C340      1.0  0.63116  0.06676  0.32903  1.0000
  H   H537      1.0  0.33153  0.23300  0.38074  1.0000
  C   C341      1.0  0.36931  0.04738  0.44780  1.0000
  H   H538      1.0  0.35809  0.01930  0.16236  1.0000
  C   C342      1.0  0.63038  0.09740  0.29081  1.0000
  H   H539      1.0  0.44267  0.10426  0.41943  1.0000
  H   H540      1.0  0.37369  0.19170  0.14612  1.0000
  H   H541      1.0  0.63489  0.01956  0.99753  1.0000
  C   C343      1.0  0.46957  0.13886  0.08446  1.0000
  C   C344      1.0  0.48706  0.14694  0.11042  1.0000
  C   C345      1.0  0.48064  0.14366  0.05440  1.0000
  H   H542      1.0  0.47870  0.14328  0.13377  1.0000
  H   H543      1.0  0.46744  0.13740  0.03422  1.0000
  C   C346      1.0  0.35752  0.18736  0.06882  1.0000
  H   H544      1.0  0.61771  0.05015  0.01258  1.0000
  C   C347      1.0  0.36088  0.21691  0.12316  1.0000
  H   H545      1.0  0.63030  0.10217  0.26555  1.0000
  C   C348      1.0  0.36738  0.19634  0.12424  1.0000
  C   C349      1.0  0.36577  0.18166  0.09720  1.0000
  H   H546      1.0  0.58473  0.23355  0.04546  1.0000
  C   C350      1.0  0.64919  0.17609  0.26160  1.0000
  H   H547      1.0  0.64032  0.18346  0.27847  1.0000
  H   H548      1.0  0.37088  0.16591  0.09837  1.0000
  H   H549      1.0  0.46368  0.13919  0.40853  1.0000
  Fe  Fe68      1.0  0.59549  0.19923  0.10618  1.0000
  S   S136      1.0  0.59331  0.21570  0.15300  1.0000
  S   S137      1.0  0.56169  0.17960  0.06993  1.0000
  H   H550      1.0  0.46304  0.12499  0.35330  1.0000
  H   H551      1.0  0.43241  0.12817  0.42846  1.0000
  Fe  Fe69      1.0  0.62243  0.20256  0.16965  1.0000
  H   H552      1.0  0.32937  0.16791  0.38246  1.0000
  H   H553      1.0  0.41807  0.14818  0.38649  1.0000
  S   S138      1.0  0.62141  0.18262  0.12411  1.0000
  C   C351      1.0  0.35269  0.22273  0.09478  1.0000
  C   C352      1.0  0.39985  0.09492  0.38427  1.0000
  C   C353      1.0  0.35110  0.20804  0.06770  1.0000
  H   H554      1.0  0.41167  0.03700  0.10241  1.0000
  C   C354      1.0  0.42822  0.14152  0.36942  1.0000
  C   C355      1.0  0.35800  0.01788  0.09964  1.0000
  H   H555      1.0  0.63055  0.04731  0.33328  1.0000
  H   H556      1.0  0.64983  0.16557  0.18348  1.0000
  H   H557      1.0  0.47426  0.23574  0.36586  1.0000
  H   H558      1.0  0.56407  0.22532  0.09847  1.0000
  H   H559      1.0  0.40530  0.06078  0.08230  1.0000
  C   C356      1.0  0.37312  0.02513  0.44345  1.0000
  H   H560      1.0  0.34201  0.06237  0.43986  1.0000
  H   H561      1.0  0.44921  0.15869  0.36673  1.0000
  H   H562      1.0  0.38813  0.09033  0.36214  1.0000
  H   H563      1.0  0.42032  0.06875  0.12020  1.0000
  H   H564      1.0  0.65508  0.05469  0.28241  1.0000
  C   C357      1.0  0.51531  0.15967  0.10645  1.0000
  C   C358      1.0  0.52632  0.16394  0.07641  1.0000
  C   C359      1.0  0.50884  0.15591  0.05045  1.0000
  H   H565      1.0  0.52848  0.16572  0.12664  1.0000
  H   H566      1.0  0.51716  0.15909  0.02710  1.0000
  C   C360      1.0  0.47730  0.23691  0.41604  1.0000
  H   H567      1.0  0.43131  0.10452  0.33378  1.0000
  S   S139      1.0  0.39560  0.07718  0.46588  1.0000
  C   C361      1.0  0.65469  0.16622  0.20804  1.0000
  H   H568      1.0  0.38463  0.07774  0.13794  1.0000
  H   H569      1.0  0.44191  0.09036  0.36439  1.0000
  H   H570      1.0  0.53564  0.21315  0.05098  1.0000
  Fe  Fe70      1.0  0.43279  0.17728  0.45862  1.0000
  C   C362      1.0  0.44170  0.10885  0.35685  1.0000
  H   H571      1.0  0.64789  0.13378  0.43511  1.0000
  C   C363      1.0  0.34533  0.04553  0.43685  1.0000
  C   C364      1.0  0.33514  0.16524  0.43192  1.0000
  C   C365      1.0  0.53796  0.23359  0.05184  1.0000
  H   H572      1.0  0.65496  0.07821  0.25444  1.0000
  S   S140      1.0  0.61970  0.18567  0.21822  1.0000
  H   H573      1.0  0.34717  0.23821  0.09380  1.0000
  H   H574      1.0  0.39296  0.04475  0.16688  1.0000
  C   C366      1.0  0.64750  0.02618  0.01910  1.0000
  H   H575      1.0  0.33716  0.00865  0.10937  1.0000
  Fe  Fe71      1.0  0.65690  0.22294  0.11167  1.0000
  H   H576      1.0  0.58717  0.04763  0.29236  1.0000
  H   H577      1.0  0.35257  0.16280  0.42884  1.0000
  C   C367      1.0  0.65083  0.04998  0.40950  1.0000
  H   H578      1.0  0.41769  0.13833  0.34660  1.0000
  H   H579      1.0  0.39903  0.07604  0.39235  1.0000
  C   C368      1.0  0.63080  0.05580  0.03375  1.0000
  N   N39       1.0  0.63040  0.07185  0.29524  1.0000
  C   C369      1.0  0.64501  0.00927  0.38439  1.0000
  N   N40       1.0  0.42804  0.11692  0.38020  1.0000
  C   C370      1.0  0.40493  0.05198  0.10563  1.0000
  H   H580      1.0  0.61854  0.04199  0.05298  1.0000
  H   H581      1.0  0.38908  0.10008  0.40225  1.0000
  C   C371      1.0  0.37832  0.02869  0.15100  1.0000
  H   H582      1.0  0.61254  0.09688  0.30194  1.0000
  H   H583      1.0  0.34944  0.05209  0.13428  1.0000
  H   H584      1.0  0.32766  0.22482  0.34010  1.0000
  H   H585      1.0  0.60507  0.02998  0.28404  1.0000
  C   C372      1.0  0.63439  0.03391  0.43417  1.0000
  H   H586      1.0  0.39156  0.02623  0.45169  1.0000
  H   H587      1.0  0.61380  0.06601  0.34173  1.0000
  Fe  Fe72      1.0  0.33978  0.07461  0.05339  1.0000
  C   C373      1.0  0.65653  0.03753  0.38487  1.0000
  H   H588      1.0  0.60451  0.05289  0.25573  1.0000
  H   H589      1.0  0.63593  0.07655  0.04053  1.0000
  H   H590      1.0  0.53532  0.23887  0.02756  1.0000
  N   N41       1.0  0.37778  0.03973  0.11995  1.0000
  H   H591      1.0  0.36880  0.06871  0.10048  1.0000
  H   H592      1.0  0.64873  0.11457  0.30115  1.0000
  C   C374      1.0  0.32919  0.99937  0.41791  1.0000
  H   H593      1.0  0.64993  0.08280  0.34022  1.0000
  H   H594      1.0  0.36309  0.00166  0.09657  1.0000
  H   H595      1.0  0.52109  0.23208  0.06634  1.0000
  S   S141      1.0  0.65938  0.24183  0.15830  1.0000
  S   S142      1.0  0.63125  0.23812  0.08976  1.0000
  S   S143      1.0  0.36392  0.23523  0.15758  1.0000
  H   H596      1.0  0.64901  0.99980  0.36486  1.0000
  Fe  Fe73      1.0  0.40062  0.11833  0.47952  1.0000
  H   H597      1.0  0.36558  0.22550  0.75333  1.0000
  Fe  Fe74      1.0  0.42623  0.16471  0.52834  1.0000
  S   S144      1.0  0.44348  0.18204  0.57646  1.0000
  C   C375      1.0  0.47447  0.18564  0.58984  1.0000
  C   C376      1.0  0.50979  0.20202  0.62989  1.0000
  C   C377      1.0  0.48610  0.20023  0.61742  1.0000
  H   H598      1.0  0.51841  0.21308  0.65126  1.0000
  H   H599      1.0  0.47647  0.20976  0.62951  1.0000
  H   H600      1.0  0.61171  0.14934  0.82320  1.0000
  C   C378      1.0  0.65174  0.15801  0.74710  1.0000
  H   H601      1.0  0.46707  0.14844  0.63922  1.0000
  H   H602      1.0  0.34095  0.03598  0.97944  1.0000
  H   H603      1.0  0.64182  0.13883  0.49179  1.0000
  Fe  Fe75      1.0  0.54618  0.22243  0.73623  1.0000
  S   S145      1.0  0.36974  0.08458  0.94182  1.0000
  C   C379      1.0  0.33819  0.19430  0.72216  1.0000
  S   S146      1.0  0.35394  0.21157  0.68732  1.0000
  N   N42       1.0  0.38972  0.21593  0.58859  1.0000
  C   C380      1.0  0.33949  0.13354  0.86587  1.0000
  H   H604      1.0  0.63973  0.07252  0.77161  1.0000
  H   H605      1.0  0.48090  0.11023  0.66972  1.0000
  C   C381      1.0  0.33454  0.19170  0.77886  1.0000
  H   H606      1.0  0.45621  0.21704  0.73667  1.0000
  H   H607      1.0  0.64502  0.13347  0.82092  1.0000
  S   S147      1.0  0.54432  0.18413  0.72113  1.0000
  S   S148      1.0  0.55042  0.18890  0.63139  1.0000
  H   H608      1.0  0.40298  0.19211  0.61377  1.0000
  N   N43       1.0  0.46392  0.13407  0.68623  1.0000
  Fe  Fe76      1.0  0.58492  0.19967  0.74397  1.0000
  S   S149      1.0  0.59474  0.17554  0.77896  1.0000
  C   C382      1.0  0.63769  0.99911  0.90574  1.0000
  H   H609      1.0  0.48211  0.16126  0.72497  1.0000
  H   H610      1.0  0.43600  0.09234  0.69578  1.0000
  H   H611      1.0  0.34206  0.20078  0.80152  1.0000
  C   C383      1.0  0.48697  0.17317  0.57460  1.0000
  C   C384      1.0  0.51054  0.17479  0.58723  1.0000
  C   C385      1.0  0.52192  0.18899  0.61507  1.0000
  H   H612      1.0  0.47820  0.16183  0.55340  1.0000
  H   H613      1.0  0.51983  0.16473  0.57554  1.0000
  H   H614      1.0  0.35650  0.13230  0.85490  1.0000
  H   H615      1.0  0.49657  0.12955  0.70440  1.0000
  H   H616      1.0  0.61031  0.05238  0.74810  1.0000
  C   C386      1.0  0.63308  0.16730  0.74842  1.0000
  C   C387      1.0  0.61838  0.16407  0.77578  1.0000
  C   C388      1.0  0.35007  0.04204  0.90067  1.0000
  C   C389      1.0  0.65626  0.14577  0.77318  1.0000
  C   C390      1.0  0.35196  0.04995  0.93211  1.0000
  H   H617      1.0  0.62985  0.17666  0.72816  1.0000
  C   C391      1.0  0.64230  0.03024  0.74794  1.0000
  S   S150      1.0  0.38437  0.12909  0.52194  1.0000
  S   S151      1.0  0.41849  0.19237  0.49825  1.0000
  H   H618      1.0  0.33136  0.10194  0.91611  1.0000
  H   H619      1.0  0.65576  0.21026  0.80645  1.0000
  H   H620      1.0  0.40036  0.00405  0.89898  1.0000
  S   S152      1.0  0.60730  0.22025  0.70010  1.0000
  H   H621      1.0  0.35523  0.18034  0.57026  1.0000
  H   H622      1.0  0.45670  0.16495  0.70466  1.0000
  C   C392      1.0  0.34782  0.20581  0.75157  1.0000
  S   S153      1.0  0.50517  0.21635  0.74887  1.0000
  H   H623      1.0  0.40096  0.21727  0.63687  1.0000
  H   H624      1.0  0.33400  0.14541  0.84985  1.0000
  C   C393      1.0  0.37407  0.22964  0.59466  1.0000
  H   H625      1.0  0.43530  0.13851  0.65761  1.0000
  H   H626      1.0  0.42571  0.11533  0.71006  1.0000
  C   C394      1.0  0.33618  0.01461  0.89238  1.0000
  H   H627      1.0  0.45196  0.11252  0.72979  1.0000
  C   C395      1.0  0.47335  0.16043  0.70143  1.0000
  H   H628      1.0  0.48938  0.17714  0.68754  1.0000
  H   H629      1.0  0.42968  0.22627  0.57357  1.0000
  C   C396      1.0  0.37632  0.19552  0.56379  1.0000
  C   C397      1.0  0.48709  0.12967  0.68170  1.0000
  C   C398      1.0  0.45178  0.13360  0.65552  1.0000
  C   C399      1.0  0.39121  0.20259  0.61751  1.0000
  H   H630      1.0  0.61498  0.03289  0.69800  1.0000
  H   H631      1.0  0.37070  0.18737  0.62587  1.0000
  Fe  Fe77      1.0  0.56646  0.20795  0.67888  1.0000
  H   H632      1.0  0.44325  0.11357  0.64407  1.0000
  C   C400      1.0  0.44348  0.11258  0.70633  1.0000
  H   H633      1.0  0.37533  0.20481  0.54130  1.0000
  C   C401      1.0  0.62293  0.15188  0.80189  1.0000
  H   H634      1.0  0.35329  0.21524  0.60298  1.0000
  H   H635      1.0  0.50313  0.14590  0.66709  1.0000
  H   H636      1.0  0.62444  0.22750  0.81257  1.0000
  H   H637      1.0  0.34133  0.08966  0.88330  1.0000
  C   C402      1.0  0.64187  0.14291  0.80070  1.0000
  S   S154      1.0  0.34035  0.15972  0.49530  1.0000
  S   S155      1.0  0.44342  0.15194  0.48903  1.0000
  H   H638      1.0  0.38731  0.18438  0.55916  1.0000
  H   H639      1.0  0.35959  0.05717  0.88268  1.0000
  C   C403      1.0  0.41730  0.23595  0.57836  1.0000
  S   S156      1.0  0.58458  0.23602  0.76355  1.0000
  C   C404      1.0  0.63244  0.06663  0.74715  1.0000
  H   H640      1.0  0.64953  0.03487  0.77257  1.0000
  H   H641      1.0  0.34718  0.14519  0.88797  1.0000
  N   N44       1.0  0.64693  0.05472  0.73111  1.0000
  C   C405      1.0  0.47262  0.23765  0.73666  1.0000
  C   C406      1.0  0.33975  0.03019  0.95518  1.0000
  H   H642      1.0  0.64039  0.06583  0.68533  1.0000
  H   H643      1.0  0.33492  0.00876  0.86812  1.0000
  Fe  Fe78      1.0  0.37786  0.15616  0.48927  1.0000
  H   H644      1.0  0.62051  0.01472  0.74852  1.0000
  H   H645      1.0  0.64110  0.22532  0.75970  1.0000
  C   C407      1.0  0.63701  0.04770  0.69864  1.0000
  H   H646      1.0  0.65115  0.03579  0.87934  1.0000
  H   H647      1.0  0.65352  0.02113  0.73688  1.0000
  H   H648      1.0  0.64760  0.03870  0.68593  1.0000
  H   H649      1.0  0.63572  0.08531  0.73520  1.0000
  H   H650      1.0  0.37236  0.23975  0.57325  1.0000
  C   C408      1.0  0.49918  0.24316  0.74167  1.0000
  H   H651      1.0  0.65861  0.17476  0.48720  1.0000
  C   C409      1.0  0.65463  0.02675  0.89971  1.0000
  H   H652      1.0  0.65933  0.06663  0.97960  1.0000
  Fe  Fe79      1.0  0.36275  0.27404  0.15696  1.0000
  S   S157      1.0  0.36337  0.29726  0.11432  1.0000
  H   H653      1.0  0.63578  0.33237  0.38958  1.0000
  Fe  Fe80      1.0  0.36691  0.31740  0.20193  1.0000
  S   S158      1.0  0.36892  0.34399  0.16259  1.0000
  S   S159      1.0  0.36618  0.32745  0.25309  1.0000
  C   C410      1.0  0.59287  0.33393  0.36567  1.0000
  Fe  Fe81      1.0  0.39717  0.33274  0.13917  1.0000
  S   S160      1.0  0.43331  0.36335  0.11073  1.0000
  H   H654      1.0  0.64615  0.39625  0.40031  1.0000
  S   S161      1.0  0.39803  0.30908  0.18046  1.0000
  H   H655      1.0  0.59537  0.33036  0.34065  1.0000
  S   S162      1.0  0.57123  0.35090  0.47747  1.0000
  C   C411      1.0  0.58618  0.25366  0.04562  1.0000
  H   H656      1.0  0.44829  0.37628  0.21786  1.0000
  C   C412      1.0  0.49689  0.27649  0.38250  1.0000
  H   H657      1.0  0.33926  0.39593  0.23626  1.0000
  H   H658      1.0  0.50005  0.28498  0.35924  1.0000
  H   H659      1.0  0.46998  0.41086  0.15839  1.0000
  H   H660      1.0  0.61475  0.33172  0.14570  1.0000
  C   C413      1.0  0.46014  0.30873  0.07347  1.0000
  Fe  Fe82      1.0  0.65650  0.46116  0.08662  1.0000
  H   H661      1.0  0.43068  0.31064  0.12112  1.0000
  C   C414      1.0  0.58923  0.31859  0.41893  1.0000
  S   S163      1.0  0.64853  0.38117  0.46477  1.0000
  H   H662      1.0  0.41397  0.36865  0.21326  1.0000
  C   C415      1.0  0.61819  0.31275  0.38255  1.0000
  H   H663      1.0  0.65383  0.38820  0.14810  1.0000
  H   H664      1.0  0.47871  0.44217  0.17701  1.0000
  C   C416      1.0  0.33157  0.27986  0.37531  1.0000
  C   C417      1.0  0.48568  0.38901  0.08943  1.0000
  C   C418      1.0  0.46795  0.37260  0.11302  1.0000
  C   C419      1.0  0.47826  0.36455  0.13783  1.0000
  H   H665      1.0  0.47794  0.39541  0.07015  1.0000
  H   H666      1.0  0.46496  0.35195  0.15620  1.0000
  N   N45       1.0  0.59251  0.31290  0.38603  1.0000
  C   C420      1.0  0.62018  0.49264  0.41540  1.0000
  Fe  Fe83      1.0  0.59465  0.42196  0.08558  1.0000
  S   S164      1.0  0.59672  0.40746  0.03727  1.0000
  S   S165      1.0  0.55898  0.40115  0.11959  1.0000
  Fe  Fe84      1.0  0.63350  0.40682  0.05442  1.0000
  C   C421      1.0  0.56739  0.28048  0.06456  1.0000
  Fe  Fe85      1.0  0.62575  0.45121  0.02609  1.0000
  H   H667      1.0  0.62565  0.46749  0.38239  1.0000
  S   S166      1.0  0.63021  0.41880  0.10326  1.0000
  Fe  Fe86      1.0  0.33510  0.30621  0.14186  1.0000
  Fe  Fe87      1.0  0.55514  0.36087  0.43488  1.0000
  H   H668      1.0  0.44311  0.28833  0.13117  1.0000
  S   S167      1.0  0.52743  0.32856  0.40088  1.0000
  S   S168      1.0  0.32979  0.40261  0.38722  1.0000
  H   H669      1.0  0.57147  0.28128  0.35239  1.0000
  C   C422      1.0  0.35086  0.36571  0.24299  1.0000
  H   H670      1.0  0.41513  0.28867  0.03848  1.0000
  H   H671      1.0  0.61853  0.29700  0.39743  1.0000
  S   S169      1.0  0.59559  0.39378  0.41728  1.0000
  H   H672      1.0  0.42258  0.39971  0.15232  1.0000
  C   C423      1.0  0.50792  0.29351  0.40834  1.0000
  C   C424      1.0  0.43430  0.37895  0.20207  1.0000
  H   H673      1.0  0.61801  0.36312  0.10378  1.0000
  C   C425      1.0  0.50348  0.28214  0.43840  1.0000
  C   C426      1.0  0.33377  0.38277  0.28422  1.0000
  H   H674      1.0  0.55006  0.28601  0.37920  1.0000
  H   H675      1.0  0.65674  0.33234  0.04413  1.0000
  H   H676      1.0  0.43190  0.25748  0.05199  1.0000
  C   C427      1.0  0.35363  0.34882  0.26447  1.0000
  C   C428      1.0  0.52392  0.38983  0.11568  1.0000
  C   C429      1.0  0.51347  0.39741  0.09058  1.0000
  C   C430      1.0  0.50612  0.37330  0.13922  1.0000
  H   H677      1.0  0.52691  0.41021  0.07239  1.0000
  H   H678      1.0  0.51403  0.36736  0.15876  1.0000
  C   C431      1.0  0.63800  0.35018  0.07135  1.0000
  H   H679      1.0  0.34870  0.33617  0.31266  1.0000
  H   H680      1.0  0.55139  0.28106  0.07876  1.0000
  C   C432      1.0  0.63353  0.31392  0.11851  1.0000
  C   C433      1.0  0.33991  0.39675  0.47174  1.0000
  S   S170      1.0  0.63147  0.29250  0.14904  1.0000
  H   H681      1.0  0.46288  0.32922  0.07663  1.0000
  H   H682      1.0  0.62159  0.30896  0.35790  1.0000
  S   S171      1.0  0.62096  0.46601  0.07318  1.0000
  H   H683      1.0  0.40403  0.40104  0.18557  1.0000
  Fe  Fe88      1.0  0.58825  0.42237  0.44633  1.0000
  H   H684      1.0  0.58511  0.25914  0.02091  1.0000
  H   H685      1.0  0.60969  0.35425  0.37198  1.0000
  N   N46       1.0  0.44372  0.40768  0.19619  1.0000
  C   C434      1.0  0.44525  0.42119  0.22617  1.0000
  C   C435      1.0  0.42455  0.41011  0.17504  1.0000
  C   C436      1.0  0.47071  0.42035  0.18139  1.0000
  H   H686      1.0  0.65279  0.30033  0.08583  1.0000
  H   H687      1.0  0.42516  0.41180  0.23797  1.0000
  H   H688      1.0  0.45963  0.41984  0.24264  1.0000
  H   H689      1.0  0.43125  0.43152  0.16965  1.0000
  H   H690      1.0  0.44447  0.25789  0.09076  1.0000
  N   N47       1.0  0.43266  0.28765  0.08265  1.0000
  Fe  Fe89      1.0  0.61115  0.38525  0.46150  1.0000
  C   C437      1.0  0.41250  0.29058  0.06395  1.0000
  H   H691      1.0  0.32814  0.27204  0.39971  1.0000
  C   C438      1.0  0.34645  0.34899  0.29583  1.0000
  H   H692      1.0  0.46427  0.30679  0.04847  1.0000
  H   H693      1.0  0.43295  0.36823  0.17989  1.0000
  C   C439      1.0  0.48785  0.25382  0.44228  1.0000
  H   H694      1.0  0.56842  0.27004  0.39228  1.0000
  H   H695      1.0  0.57376  0.33456  0.36774  1.0000
  H   H696      1.0  0.58943  0.30352  0.43515  1.0000
  C   C440      1.0  0.42845  0.29060  0.11616  1.0000
  C   C441      1.0  0.56966  0.28636  0.37704  1.0000
  C   C442      1.0  0.33632  0.36570  0.30563  1.0000
  H   H697      1.0  0.48561  0.41830  0.19623  1.0000
  H   H698      1.0  0.35638  0.36586  0.21883  1.0000
  C   C443      1.0  0.48216  0.24850  0.38626  1.0000
  S   S172      1.0  0.59766  0.46614  0.44082  1.0000
  S   S173      1.0  0.64255  0.37375  0.04223  1.0000
  Fe  Fe90      1.0  0.63047  0.25350  0.13771  1.0000
  H   H699      1.0  0.60571  0.33877  0.42634  1.0000
  H   H700      1.0  0.51183  0.29508  0.45858  1.0000
  H   H701      1.0  0.45202  0.44288  0.22266  1.0000
  H   H702      1.0  0.56973  0.31820  0.42244  1.0000
  C   C444      1.0  0.64506  0.31389  0.08972  1.0000
  S   S174      1.0  0.33282  0.45647  0.44952  1.0000
  H   H703      1.0  0.39154  0.27485  0.07014  1.0000
  C   C445      1.0  0.62390  0.33181  0.12351  1.0000
  C   C446      1.0  0.62587  0.34971  0.09988  1.0000
  C   C447      1.0  0.63066  0.48783  0.38816  1.0000
  H   H704      1.0  0.47589  0.30775  0.08784  1.0000
  H   H705      1.0  0.41409  0.31054  0.06796  1.0000
  H   H706      1.0  0.35775  0.41732  0.47413  1.0000
  S   S175      1.0  0.54587  0.39004  0.45933  1.0000
  C   C448      1.0  0.34118  0.38276  0.25291  1.0000
  H   H707      1.0  0.58719  0.29578  0.07445  1.0000
  H   H708      1.0  0.35743  0.25460  0.35359  1.0000
  H   H709      1.0  0.58683  0.25992  0.10760  1.0000
  C   C449      1.0  0.64735  0.33205  0.06620  1.0000
  H   H710      1.0  0.56625  0.28705  0.04038  1.0000
  C   C450      1.0  0.34992  0.49225  0.44645  1.0000
  H   H711      1.0  0.40785  0.27514  0.12377  1.0000
  H   H712      1.0  0.33066  0.36554  0.32981  1.0000
  S   S176      1.0  0.33173  0.28004  0.18253  1.0000
  C   C451      1.0  0.42949  0.26076  0.07715  1.0000
  H   H713      1.0  0.34697  0.38282  0.46372  1.0000
  H   H714      1.0  0.35364  0.29388  0.37244  1.0000
  H   H715      1.0  0.32736  0.39790  0.45272  1.0000
  H   H716      1.0  0.34859  0.28260  0.31601  1.0000
  H   H717      1.0  0.60654  0.26837  0.05475  1.0000
  N   N48       1.0  0.56455  0.25342  0.06483  1.0000
  H   H718      1.0  0.34987  0.49374  0.39620  1.0000
  H   H719      1.0  0.48446  0.24507  0.46541  1.0000
  H   H720      1.0  0.55115  0.24603  0.11274  1.0000
  C   C452      1.0  0.56673  0.24588  0.09731  1.0000
  C   C453      1.0  0.66041  0.38914  0.40176  1.0000
  H   H721      1.0  0.40910  0.24443  0.08434  1.0000
  S   S177      1.0  0.60646  0.41561  0.48962  1.0000
  N   N49       1.0  0.51764  0.29392  0.63568  1.0000
  H   H722      1.0  0.53104  0.31159  0.73920  1.0000
  Fe  Fe91      1.0  0.39415  0.31219  0.70632  1.0000
  S   S178      1.0  0.37508  0.28474  0.66488  1.0000
  S   S179      1.0  0.37355  0.32768  0.73970  1.0000
  Fe  Fe92      1.0  0.44105  0.30054  0.70759  1.0000
  S   S180      1.0  0.42510  0.27187  0.66752  1.0000
  S   S181      1.0  0.48163  0.31218  0.72837  1.0000
  Fe  Fe93      1.0  0.41744  0.30281  0.64562  1.0000
  S   S182      1.0  0.42767  0.30827  0.59400  1.0000
  H   H723      1.0  0.54947  0.33224  0.65196  1.0000
  C   C454      1.0  0.34932  0.35503  0.76324  1.0000
  S   S183      1.0  0.43586  0.33293  0.68468  1.0000
  S   S184      1.0  0.40125  0.28195  0.73238  1.0000
  H   H724      1.0  0.42791  0.25182  0.59637  1.0000
  C   C455      1.0  0.65785  0.32475  0.80561  1.0000
  H   H725      1.0  0.65183  0.26024  0.75462  1.0000
  C   C456      1.0  0.46187  0.32794  0.58238  1.0000
  C   C457      1.0  0.46884  0.32834  0.55080  1.0000
  C   C458      1.0  0.49585  0.34411  0.54085  1.0000
  H   H726      1.0  0.45328  0.31647  0.53390  1.0000
  H   H727      1.0  0.50096  0.34423  0.51646  1.0000
  C   C459      1.0  0.34984  0.39389  0.73945  1.0000
  H   H728      1.0  0.37137  0.40657  0.69571  1.0000
  H   H729      1.0  0.59666  0.46078  0.50694  1.0000
  C   C460      1.0  0.36446  0.35321  0.73835  1.0000
  C   C461      1.0  0.37229  0.37189  0.71397  1.0000
  C   C462      1.0  0.36509  0.39216  0.71461  1.0000
  C   C463      1.0  0.34201  0.38722  0.52624  1.0000
  H   H730      1.0  0.52387  0.25987  0.63523  1.0000
  H   H731      1.0  0.38399  0.37085  0.69471  1.0000
  C   C464      1.0  0.54243  0.43680  0.50642  1.0000
  Fe  Fe94      1.0  0.56464  0.38211  0.50112  1.0000
  S   S185      1.0  0.55020  0.38030  0.55115  1.0000
  S   S186      1.0  0.64375  0.29655  0.71620  1.0000
  C   C465      1.0  0.48814  0.28543  0.73316  1.0000
  C   C466      1.0  0.58664  0.45690  0.53018  1.0000
  C   C467      1.0  0.46714  0.25871  0.73198  1.0000
  H   H732      1.0  0.41685  0.24633  0.55653  1.0000
  H   H733      1.0  0.57654  0.48868  0.49335  1.0000
  H   H734      1.0  0.60129  0.47232  0.54659  1.0000
  C   C468      1.0  0.51605  0.35980  0.56243  1.0000
  C   C469      1.0  0.50908  0.35936  0.59400  1.0000
  C   C470      1.0  0.48216  0.34334  0.60401  1.0000
  H   H735      1.0  0.52458  0.37155  0.61080  1.0000
  H   H736      1.0  0.47704  0.34329  0.62836  1.0000
  C   C471      1.0  0.64482  0.31007  0.77850  1.0000
  H   H737      1.0  0.53772  0.41634  0.51410  1.0000
  C   C472      1.0  0.33033  0.49201  0.89859  1.0000
  C   C473      1.0  0.34194  0.37512  0.76375  1.0000
  H   H738      1.0  0.34317  0.34074  0.78227  1.0000
  H   H739      1.0  0.51594  0.31165  0.59193  1.0000
  H   H740      1.0  0.52183  0.31504  0.67872  1.0000
  H   H741      1.0  0.33029  0.37621  0.78305  1.0000
  C   C474      1.0  0.53017  0.27878  0.64853  1.0000
  H   H742      1.0  0.48154  0.27241  0.66315  1.0000
  H   H743      1.0  0.51853  0.28181  0.58826  1.0000
  H   H744      1.0  0.64714  0.25149  0.84066  1.0000
  H   H745      1.0  0.54080  0.27424  0.74599  1.0000
  H   H746      1.0  0.56225  0.46768  0.57698  1.0000
  H   H747      1.0  0.33131  0.42704  0.51226  1.0000
  H   H748      1.0  0.35967  0.40767  0.53012  1.0000
  C   C475      1.0  0.56706  0.48441  0.51704  1.0000
  N   N50       1.0  0.43775  0.34789  0.79892  1.0000
  C   C476      1.0  0.44664  0.35174  0.76596  1.0000
  C   C477      1.0  0.41690  0.31947  0.80404  1.0000
  C   C478      1.0  0.42630  0.36542  0.80606  1.0000
  C   C479      1.0  0.46114  0.35488  0.81951  1.0000
  H   H749      1.0  0.45487  0.33841  0.75949  1.0000
  H   H750      1.0  0.46267  0.37284  0.76126  1.0000
  H   H751      1.0  0.42958  0.34711  0.74985  1.0000
  H   H752      1.0  0.40981  0.31575  0.82872  1.0000
  H   H753      1.0  0.39885  0.31359  0.78902  1.0000
  H   H754      1.0  0.42471  0.30562  0.79840  1.0000
  H   H755      1.0  0.41931  0.36305  0.83074  1.0000
  H   H756      1.0  0.40854  0.36053  0.79086  1.0000
  H   H757      1.0  0.44136  0.38702  0.80219  1.0000
  H   H758      1.0  0.45519  0.35203  0.84460  1.0000
  H   H759      1.0  0.47725  0.37623  0.81632  1.0000
  H   H760      1.0  0.47029  0.34208  0.81436  1.0000
  C   C480      1.0  0.52030  0.26985  0.74187  1.0000
  H   H761      1.0  0.54752  0.31310  0.59959  1.0000
  C   C481      1.0  0.48793  0.27742  0.63828  1.0000
  C   C482      1.0  0.54866  0.45241  0.55969  1.0000
  H   H762      1.0  0.36328  0.48159  0.73770  1.0000
  H   H763      1.0  0.62366  0.29495  0.77926  1.0000
  H   H764      1.0  0.52931  0.45267  0.55921  1.0000
  H   H765      1.0  0.64665  0.32066  0.82723  1.0000
  H   H766      1.0  0.36860  0.46917  0.68402  1.0000
  H   H767      1.0  0.54406  0.43223  0.56854  1.0000
  Fe  Fe95      1.0  0.60539  0.25602  0.71877  1.0000
  H   H768      1.0  0.51779  0.33087  0.64477  1.0000
  S   S187      1.0  0.34163  0.42007  0.73930  1.0000
  H   H769      1.0  0.58299  0.43692  0.53832  1.0000
  C   C483      1.0  0.52523  0.30038  0.60243  1.0000
  H   H770      1.0  0.34996  0.37355  0.52032  1.0000
  H   H771      1.0  0.33341  0.48482  0.94747  1.0000
  N   N51       1.0  0.56120  0.45767  0.52837  1.0000
  H   H772      1.0  0.52294  0.43666  0.50455  1.0000
  H   H773      1.0  0.47786  0.28827  0.62872  1.0000
  H   H774      1.0  0.35992  0.48286  0.65106  1.0000
  H   H775      1.0  0.55263  0.29082  0.64760  1.0000
  C   C484      1.0  0.51472  0.29095  0.73810  1.0000
  H   H776      1.0  0.64700  0.46176  0.91700  1.0000
  H   H777      1.0  0.48004  0.25813  0.62526  1.0000
  C   C485      1.0  0.52715  0.31914  0.65353  1.0000
  H   H778      1.0  0.52440  0.27309  0.67343  1.0000
  H   H779      1.0  0.54832  0.48572  0.51514  1.0000
  Fe  Fe96      1.0  0.38449  0.25601  0.68992  1.0000
  H   H780      1.0  0.33090  0.38021  0.54878  1.0000
  H   H781      1.0  0.65108  0.44581  0.88290  1.0000
  C   C486      1.0  0.64235  0.24801  0.81529  1.0000
  H   H782      1.0  0.44657  0.25425  0.72834  1.0000
  S   S188      1.0  0.62495  0.46806  0.97823  1.0000
  C   C487      1.0  0.36810  0.48727  0.67530  1.0000
  H   H783      1.0  0.38386  0.24543  0.61297  1.0000
  H   H784      1.0  0.63616  0.26265  0.80749  1.0000
  C   C488      1.0  0.65912  0.31527  0.75043  1.0000
  H   H785      1.0  0.55120  0.44023  0.48249  1.0000
  S   S189      1.0  0.33091  0.46664  0.79611  1.0000
  S   S190      1.0  0.56692  0.24572  0.69311  1.0000
  C   C489      1.0  0.66019  0.45492  0.90588  1.0000
  H   H786      1.0  0.65932  0.43870  0.92102  1.0000
  N   N52       1.0  0.35149  0.49391  0.69591  1.0000
  C   C490      1.0  0.65820  0.24605  0.76363  1.0000
  Fe  Fe97      1.0  0.37282  0.63959  0.01885  1.0000
  S   S191      1.0  0.37887  0.62183  0.06268  1.0000
  C   C491      1.0  0.65356  0.53592  0.37455  1.0000
  H   H787      1.0  0.62984  0.54802  0.23338  1.0000
  S   S192      1.0  0.37261  0.57189  0.01924  1.0000
  S   S193      1.0  0.64409  0.74302  0.06975  1.0000
  Fe  Fe98      1.0  0.34489  0.58262  0.04457  1.0000
  Fe  Fe99      1.0  0.40636  0.61286  0.03384  1.0000
  S   S194      1.0  0.44366  0.61356  0.05453  1.0000
  H   H788      1.0  0.36824  0.61015  0.42829  1.0000
  H   H789      1.0  0.61021  0.59699  0.26236  1.0000
  H   H790      1.0  0.47589  0.61853  0.98773  1.0000
  S   S195      1.0  0.37002  0.74009  0.13833  1.0000
  C   C492      1.0  0.65274  0.68028  0.24633  1.0000
  H   H791      1.0  0.34194  0.67605  0.39574  1.0000
  H   H792      1.0  0.33916  0.56401  0.41266  1.0000
  S   S196      1.0  0.39793  0.58516  0.44020  1.0000
  C   C493      1.0  0.36006  0.71282  0.04877  1.0000
  C   C494      1.0  0.64698  0.50928  0.36776  1.0000
  S   S197      1.0  0.41579  0.65782  0.45707  1.0000
  H   H793      1.0  0.38709  0.70168  0.12712  1.0000
  H   H794      1.0  0.42798  0.54514  0.99059  1.0000
  H   H795      1.0  0.36983  0.67516  0.43984  1.0000
  S   S198      1.0  0.33676  0.60104  0.00278  1.0000
  H   H796      1.0  0.60782  0.55887  0.29364  1.0000
  C   C495      1.0  0.35824  0.50788  0.47393  1.0000
  C   C496      1.0  0.62680  0.51929  0.42222  1.0000
  C   C497      1.0  0.37920  0.54943  0.44364  1.0000
  C   C498      1.0  0.37063  0.53379  0.41620  1.0000
  H   H797      1.0  0.63500  0.55161  0.29135  1.0000
  C   C499      1.0  0.37263  0.53630  0.47258  1.0000
  C   C500      1.0  0.34925  0.67050  0.44394  1.0000
  C   C501      1.0  0.62516  0.56469  0.23404  1.0000
  C   C502      1.0  0.47792  0.63985  0.05679  1.0000
  C   C503      1.0  0.49602  0.63621  0.07571  1.0000
  C   C504      1.0  0.48776  0.66353  0.03929  1.0000
  H   H798      1.0  0.48864  0.61795  0.08930  1.0000
  H   H799      1.0  0.47416  0.66660  0.02453  1.0000
  C   C505      1.0  0.36966  0.69457  0.05006  1.0000
  C   C506      1.0  0.37948  0.69068  0.07837  1.0000
  C   C507      1.0  0.37942  0.70474  0.10527  1.0000
  C   C508      1.0  0.36979  0.72296  0.10401  1.0000
  C   C509      1.0  0.33344  0.67104  0.41903  1.0000
  C   C510      1.0  0.62999  0.56806  0.29025  1.0000
  H   H800      1.0  0.38742  0.67709  0.07948  1.0000
  H   H801      1.0  0.33683  0.74008  0.46177  1.0000
  H   H802      1.0  0.60283  0.55548  0.23579  1.0000
  H   H803      1.0  0.65305  0.65419  0.98968  1.0000
  C   C511      1.0  0.36004  0.72692  0.07569  1.0000
  Fe  Fe100     1.0  0.60418  0.71120  0.08985  1.0000
  H   H804      1.0  0.64008  0.58133  0.31072  1.0000
  S   S199      1.0  0.56833  0.70461  0.05930  1.0000
  S   S200      1.0  0.40269  0.63346  0.99078  1.0000
  C   C512      1.0  0.65251  0.68639  0.21456  1.0000
  Fe  Fe101     1.0  0.63172  0.70983  0.15159  1.0000
  S   S201      1.0  0.62707  0.69265  0.20042  1.0000
  H   H805      1.0  0.46185  0.73413  0.44530  1.0000
  S   S202      1.0  0.62155  0.68567  0.10713  1.0000
  H   H806      1.0  0.64822  0.56109  0.40766  1.0000
  H   H807      1.0  0.42300  0.57011  0.00973  1.0000
  H   H808      1.0  0.63938  0.61715  0.23851  1.0000
  H   H809      1.0  0.35238  0.71588  0.02694  1.0000
  C   C513      1.0  0.35058  0.61282  0.43288  1.0000
  H   H810      1.0  0.34759  0.64134  0.11072  1.0000
  C   C514      1.0  0.33359  0.74086  0.43621  1.0000
  H   H811      1.0  0.63150  0.57549  0.21125  1.0000
  C   C515      1.0  0.64357  0.54082  0.40214  1.0000
  H   H812      1.0  0.64219  0.61905  0.28026  1.0000
  H   H813      1.0  0.61876  0.52333  0.44309  1.0000
  H   H814      1.0  0.45570  0.57334  0.01003  1.0000
  H   H815      1.0  0.34788  0.62270  0.41188  1.0000
  N   N53       1.0  0.63897  0.58311  0.26047  1.0000
  H   H816      1.0  0.35604  0.62694  0.45288  1.0000
  H   H817      1.0  0.35218  0.74061  0.07461  1.0000
  C   C516      1.0  0.35597  0.50541  0.41755  1.0000
  C   C517      1.0  0.52363  0.65597  0.07729  1.0000
  C   C518      1.0  0.53356  0.67946  0.05948  1.0000
  C   C519      1.0  0.51546  0.68310  0.04050  1.0000
  H   H818      1.0  0.53727  0.65284  0.09194  1.0000
  H   H819      1.0  0.52294  0.70113  0.02647  1.0000
  S   S203      1.0  0.36934  0.67722  0.01587  1.0000
  H   H820      1.0  0.37567  0.54370  0.39367  1.0000
  C   C520      1.0  0.43744  0.56709  0.99525  1.0000
  H   H821      1.0  0.63771  0.68007  0.26189  1.0000
  C   C521      1.0  0.63235  0.60497  0.26038  1.0000
  S   S204      1.0  0.61080  0.73234  0.13600  1.0000
  S   S205      1.0  0.49528  0.71487  0.47520  1.0000
  H   H822      1.0  0.33040  0.72163  0.42599  1.0000
  H   H823      1.0  0.44365  0.61639  0.98742  1.0000
  C   C522      1.0  0.33843  0.66411  0.47410  1.0000
  Fe  Fe102     1.0  0.41240  0.61936  0.47615  1.0000
  H   H824      1.0  0.34772  0.57377  0.46941  1.0000
  C   C523      1.0  0.32966  0.57637  0.46993  1.0000
  H   H825      1.0  0.32779  0.63680  0.05831  1.0000
  H   H826      1.0  0.65443  0.50515  0.34646  1.0000
  H   H827      1.0  0.54323  0.73757  0.08031  1.0000
  H   H828      1.0  0.56473  0.73802  0.11087  1.0000
  H   H829      1.0  0.32907  0.60548  0.11485  1.0000
  C   C524      1.0  0.32796  0.62415  0.11846  1.0000
  H   H830      1.0  0.35113  0.50479  0.74387  1.0000
  Fe  Fe103     1.0  0.42906  0.64363  0.54226  1.0000
  S   S206      1.0  0.43655  0.63918  0.59352  1.0000
  C   C525      1.0  0.47041  0.65426  0.60654  1.0000
  C   C526      1.0  0.50244  0.66611  0.64972  1.0000
  C   C527      1.0  0.47570  0.65375  0.63854  1.0000
  H   H831      1.0  0.50631  0.66542  0.67437  1.0000
  H   H832      1.0  0.45906  0.64363  0.65472  1.0000
  H   H833      1.0  0.46339  0.69852  0.72276  1.0000
  H   H834      1.0  0.48190  0.58359  0.96016  1.0000
  C   C528      1.0  0.45853  0.68996  0.69871  1.0000
  C   C529      1.0  0.34480  0.52635  0.93943  1.0000
  H   H835      1.0  0.38933  0.50416  0.67410  1.0000
  C   C530      1.0  0.34915  0.70203  0.73002  1.0000
  S   S207      1.0  0.58508  0.73518  0.77600  1.0000
  H   H836      1.0  0.34887  0.53188  0.96381  1.0000
  C   C531      1.0  0.35786  0.71163  0.76031  1.0000
  H   H837      1.0  0.47723  0.69117  0.68914  1.0000
  H   H838      1.0  0.42928  0.71269  0.71668  1.0000
  H   H839      1.0  0.34246  0.51448  0.65992  1.0000
  H   H840      1.0  0.44310  0.66828  0.70088  1.0000
  Fe  Fe104     1.0  0.36692  0.59314  0.97836  1.0000
  S   S208      1.0  0.38878  0.61822  0.51863  1.0000
  Fe  Fe105     1.0  0.56627  0.70350  0.69321  1.0000
  S   S209      1.0  0.54385  0.68062  0.73613  1.0000
  S   S210      1.0  0.55789  0.69305  0.64186  1.0000
  C   C532      1.0  0.64405  0.64430  0.81780  1.0000
  H   H841      1.0  0.41689  0.71406  0.67860  1.0000
  Fe  Fe106     1.0  0.58513  0.69796  0.75861  1.0000
  S   S211      1.0  0.59676  0.67665  0.79546  1.0000
  Fe  Fe107     1.0  0.54585  0.71941  0.75010  1.0000
  S   S212      1.0  0.60742  0.71757  0.71426  1.0000
  H   H842      1.0  0.37912  0.54800  0.49389  1.0000
  S   S213      1.0  0.50853  0.71945  0.76764  1.0000
  C   C533      1.0  0.49206  0.66715  0.58575  1.0000
  C   C534      1.0  0.51880  0.67893  0.59682  1.0000
  C   C535      1.0  0.52409  0.67848  0.62882  1.0000
  H   H843      1.0  0.48824  0.66768  0.56105  1.0000
  H   H844      1.0  0.53540  0.68834  0.58047  1.0000
  H   H845      1.0  0.35743  0.64276  0.86956  1.0000
  C   C536      1.0  0.64425  0.50267  0.96890  1.0000
  N   N54       1.0  0.44887  0.70448  0.67871  1.0000
  C   C537      1.0  0.62725  0.65886  0.76301  1.0000
  C   C538      1.0  0.61884  0.66327  0.79202  1.0000
  H   H846      1.0  0.46289  0.62441  0.95199  1.0000
  H   H847      1.0  0.43332  0.70147  0.63204  1.0000
  H   H848      1.0  0.62075  0.66425  0.74180  1.0000
  H   H849      1.0  0.40797  0.68215  0.69564  1.0000
  C   C539      1.0  0.42473  0.70327  0.69304  1.0000
  S   S214      1.0  0.45250  0.64154  0.50126  1.0000
  C   C540      1.0  0.34163  0.69770  0.78616  1.0000
  H   H850      1.0  0.58128  0.50075  0.53290  1.0000
  Fe  Fe108     1.0  0.45362  0.67973  0.48597  1.0000
  C   C541      1.0  0.65202  0.63942  0.78877  1.0000
  H   H851      1.0  0.62092  0.65919  0.84190  1.0000
  S   S215      1.0  0.36014  0.57966  0.92758  1.0000
  N   N55       1.0  0.44416  0.58282  0.96594  1.0000
  H   H852      1.0  0.34856  0.70508  0.80957  1.0000
  S   S216      1.0  0.43198  0.68261  0.52823  1.0000
  H   H853      1.0  0.46301  0.72675  0.77672  1.0000
  H   H854      1.0  0.47576  0.74317  0.69878  1.0000
  H   H855      1.0  0.46835  0.58930  0.92490  1.0000
  H   H856      1.0  0.45984  0.69345  0.63533  1.0000
  S   S217      1.0  0.35704  0.66221  0.50595  1.0000
  C   C542      1.0  0.36306  0.49946  0.72776  1.0000
  H   H857      1.0  0.37731  0.72947  0.76388  1.0000
  H   H858      1.0  0.38419  0.51655  0.72798  1.0000
  S   S218      1.0  0.56540  0.74082  0.70592  1.0000
  H   H859      1.0  0.40849  0.55289  0.94199  1.0000
  H   H860      1.0  0.65026  0.63863  0.83901  1.0000
  C   C543      1.0  0.35111  0.51791  0.68392  1.0000
  C   C544      1.0  0.34279  0.53809  0.88557  1.0000
  H   H861      1.0  0.45357  0.55599  0.94103  1.0000
  H   H862      1.0  0.34971  0.62550  0.90654  1.0000
  C   C545      1.0  0.64355  0.64679  0.76142  1.0000
  Fe  Fe109     1.0  0.39389  0.65735  0.50085  1.0000
  C   C546      1.0  0.34628  0.62261  0.88082  1.0000
  C   C547      1.0  0.34835  0.54571  0.91712  1.0000
  C   C548      1.0  0.44185  0.69187  0.64739  1.0000
  C   C549      1.0  0.41914  0.57471  0.94792  1.0000
  S   S219      1.0  0.36889  0.71874  0.69698  1.0000
  C   C550      1.0  0.64322  0.51079  0.93822  1.0000
  H   H863      1.0  0.33859  0.52320  0.69917  1.0000
  H   H864      1.0  0.37181  0.53577  0.68306  1.0000
  H   H865      1.0  0.42655  0.67004  0.64876  1.0000
  H   H866      1.0  0.65469  0.53846  0.77364  1.0000
  C   C551      1.0  0.33598  0.49966  0.93014  1.0000
  H   H867      1.0  0.64782  0.52406  0.71778  1.0000
  H   H868      1.0  0.59926  0.73588  0.59415  1.0000
  C   C552      1.0  0.62738  0.65595  0.81936  1.0000
  C   C553      1.0  0.45726  0.61181  0.97347  1.0000
  C   C554      1.0  0.46282  0.57769  0.94717  1.0000
  C   C555      1.0  0.33363  0.51133  0.87635  1.0000
  H   H869      1.0  0.34571  0.55293  0.86809  1.0000
  H   H870      1.0  0.42328  0.58615  0.92564  1.0000
  H   H871      1.0  0.40468  0.57845  0.96136  1.0000
  H   H872      1.0  0.35373  0.49796  0.49642  1.0000
  C   C556      1.0  0.65637  0.54553  0.71092  1.0000
  H   H873      1.0  0.62997  0.49606  0.92131  1.0000
  H   H874      1.0  0.35568  0.61064  0.87294  1.0000
  C   C557      1.0  0.47043  0.73289  0.67568  1.0000
  H   H875      1.0  0.63921  0.54943  0.70836  1.0000
  H   H876      1.0  0.48923  0.73452  0.66583  1.0000
  H   H877      1.0  0.61466  0.73237  0.64680  1.0000
  H   H878      1.0  0.64535  0.56344  0.76385  1.0000
  H   H879      1.0  0.33260  0.59035  0.48957  1.0000
  C   C558      1.0  0.65910  0.53785  0.92918  1.0000
  H   H880      1.0  0.65787  0.54376  0.90554  1.0000
  H   H881      1.0  0.64953  0.64307  0.73884  1.0000
  H   H882      1.0  0.32944  0.50572  0.85197  1.0000
  H   H883      1.0  0.46407  0.74434  0.66023  1.0000
  H   H884      1.0  0.33633  0.74299  0.71618  1.0000
  Fe  Fe110     1.0  0.36767  0.77845  0.13685  1.0000
  S   S220      1.0  0.36935  0.80096  0.09317  1.0000
  C   C559      1.0  0.33701  0.84590  0.27474  1.0000
  Fe  Fe111     1.0  0.36623  0.82079  0.17975  1.0000
  S   S221      1.0  0.36938  0.84686  0.13908  1.0000
  S   S222      1.0  0.35958  0.82828  0.23055  1.0000
  C   C560      1.0  0.46210  0.81611  0.04572  1.0000
  Fe  Fe112     1.0  0.40053  0.83756  0.11926  1.0000
  S   S223      1.0  0.43739  0.86831  0.09134  1.0000
  H   H885      1.0  0.55607  0.81025  0.45395  1.0000
  S   S224      1.0  0.40017  0.81465  0.16210  1.0000
  H   H886      1.0  0.43931  0.76431  0.02677  1.0000
  H   H887      1.0  0.35652  0.98441  0.42578  1.0000
  H   H888      1.0  0.53617  0.90205  0.31964  1.0000
  H   H889      1.0  0.41305  0.81123  0.03974  1.0000
  C   C561      1.0  0.48908  0.77645  0.43611  1.0000
  H   H890      1.0  0.45309  0.76795  0.06553  1.0000
  H   H891      1.0  0.47357  0.77970  0.42599  1.0000
  H   H892      1.0  0.33762  0.85775  0.19678  1.0000
  H   H893      1.0  0.64623  0.88234  0.41310  1.0000
  H   H894      1.0  0.65727  0.88275  0.08507  1.0000
  H   H895      1.0  0.47911  0.81850  0.06072  1.0000
  S   S225      1.0  0.65385  0.88248  0.48059  1.0000
  N   N56       1.0  0.55297  0.88430  0.35004  1.0000
  H   H896      1.0  0.54227  0.90933  0.37701  1.0000
  H   H897      1.0  0.35257  0.75735  0.42599  1.0000
  H   H898      1.0  0.65076  0.78462  0.38539  1.0000
  Fe  Fe113     1.0  0.61808  0.88896  0.47350  1.0000
  H   H899      1.0  0.60329  0.78198  0.12941  1.0000
  H   H900      1.0  0.59438  0.90768  0.36500  1.0000
  C   C562      1.0  0.48892  0.89099  0.06735  1.0000
  C   C563      1.0  0.47096  0.87383  0.09038  1.0000
  C   C564      1.0  0.47972  0.86059  0.11068  1.0000
  H   H901      1.0  0.48241  0.90139  0.05156  1.0000
  H   H902      1.0  0.46640  0.84774  0.12890  1.0000
  H   H903      1.0  0.39397  0.77536  0.04389  1.0000
  C   C565      1.0  0.34240  0.84537  0.24275  1.0000
  Fe  Fe114     1.0  0.59307  0.91013  0.05048  1.0000
  S   S226      1.0  0.60121  0.89520  0.00524  1.0000
  S   S227      1.0  0.55575  0.88309  0.08029  1.0000
  Fe  Fe115     1.0  0.64139  0.90619  0.02651  1.0000
  C   C566      1.0  0.41398  0.79237  0.03685  1.0000
  H   H904      1.0  0.56052  0.85344  0.33254  1.0000
  H   H905      1.0  0.34398  0.83652  0.29144  1.0000
  S   S228      1.0  0.63279  0.91908  0.07256  1.0000
  N   N57       1.0  0.57641  0.77687  0.09139  1.0000
  H   H906      1.0  0.58299  0.76275  0.04742  1.0000
  H   H907      1.0  0.53147  0.84146  0.35767  1.0000
  S   S229      1.0  0.52318  0.83077  0.42760  1.0000
  H   H908      1.0  0.52107  0.87359  0.38358  1.0000
  H   H909      1.0  0.57934  0.79279  0.13772  1.0000
  S   S230      1.0  0.61222  0.95745  0.40567  1.0000
  C   C567      1.0  0.54211  0.88987  0.37864  1.0000
  C   C568      1.0  0.48238  0.75068  0.44711  1.0000
  S   S231      1.0  0.60012  0.88925  0.42713  1.0000
  Fe  Fe116     1.0  0.65105  0.76284  0.11659  1.0000
  C   C569      1.0  0.51558  0.79815  0.43899  1.0000
  Fe  Fe117     1.0  0.59928  0.92594  0.44471  1.0000
  C   C570      1.0  0.53553  0.79377  0.45193  1.0000
  H   H910      1.0  0.56460  0.85864  0.37404  1.0000
  H   H911      1.0  0.58240  0.92614  0.34326  1.0000
  C   C571      1.0  0.59447  0.77516  0.06793  1.0000
  C   C572      1.0  0.33338  0.85772  0.22144  1.0000
  Fe  Fe118     1.0  0.55994  0.86506  0.45059  1.0000
  H   H912      1.0  0.46688  0.81376  0.02113  1.0000
  C   C573      1.0  0.52364  0.88082  0.08410  1.0000
  C   C574      1.0  0.51509  0.89448  0.06419  1.0000
  C   C575      1.0  0.50581  0.86395  0.10739  1.0000
  H   H913      1.0  0.52853  0.90751  0.04616  1.0000
  H   H914      1.0  0.51228  0.85347  0.12310  1.0000
  H   H915      1.0  0.42993  0.81477  0.09299  1.0000
  H   H916      1.0  0.60575  0.76571  0.07793  1.0000
  C   C576      1.0  0.43649  0.76781  0.05172  1.0000
  H   H917      1.0  0.41213  0.77908  0.09778  1.0000
  H   H918      1.0  0.54375  0.87853  0.30094  1.0000
  H   H919      1.0  0.54969  0.79305  0.09477  1.0000
  C   C577      1.0  0.53619  0.88280  0.32295  1.0000
  Fe  Fe119     1.0  0.33831  0.80807  0.11702  1.0000
  S   S232      1.0  0.60988  0.95247  0.03226  1.0000
  N   N58       1.0  0.43599  0.79315  0.05586  1.0000
  H   H920      1.0  0.55442  0.89125  0.39934  1.0000
  H   H921      1.0  0.60959  0.79541  0.05915  1.0000
  H   H922      1.0  0.55135  0.78067  0.05662  1.0000
  C   C578      1.0  0.59234  0.79169  0.11913  1.0000
  H   H923      1.0  0.60784  0.81266  0.11302  1.0000
  H   H924      1.0  0.54460  0.76470  0.47199  1.0000
  S   S233      1.0  0.55729  0.90141  0.46484  1.0000
  H   H925      1.0  0.61069  0.99366  0.45314  1.0000
  C   C579      1.0  0.52899  0.76794  0.46214  1.0000
  H   H926      1.0  0.51482  0.86655  0.32608  1.0000
  H   H927      1.0  0.41676  0.79001  0.01155  1.0000
  Fe  Fe120     1.0  0.62161  0.93839  0.98911  1.0000
  C   C580      1.0  0.55239  0.85836  0.35358  1.0000
  C   C581      1.0  0.43135  0.79635  0.08917  1.0000
  C   C582      1.0  0.58110  0.90615  0.34509  1.0000
  C   C583      1.0  0.55550  0.74944  0.10073  1.0000
  Fe  Fe121     1.0  0.65004  0.95995  0.05037  1.0000
  H   H928      1.0  0.57873  0.81208  0.07044  1.0000
  S   S234      1.0  0.33391  0.78233  0.15846  1.0000
  H   H929      1.0  0.58995  0.90290  0.32352  1.0000
  C   C584      1.0  0.56341  0.79126  0.07771  1.0000
  H   H930      1.0  0.46180  0.83534  0.04699  1.0000
  H   H931      1.0  0.44791  0.79788  0.10430  1.0000
  H   H932      1.0  0.33355  0.78804  0.43119  1.0000
  C   C585      1.0  0.50239  0.74639  0.46013  1.0000
  H   H933      1.0  0.54150  0.74983  0.11848  1.0000
  S   S235      1.0  0.65968  0.87976  0.01733  1.0000
  C   C586      1.0  0.65929  0.86552  0.07907  1.0000
  C   C587      1.0  0.62846  0.99317  0.40902  1.0000
  H   H934      1.0  0.41727  0.75016  0.05968  1.0000
  H   H935      1.0  0.66022  0.85445  0.12709  1.0000
  S   S236      1.0  0.61941  0.95284  0.94038  1.0000
  H   H936      1.0  0.59676  0.78376  0.62226  1.0000
  S   S237      1.0  0.35785  0.91450  0.80320  1.0000
  Fe  Fe122     1.0  0.40408  0.81861  0.71059  1.0000
  S   S238      1.0  0.39052  0.79050  0.66935  1.0000
  S   S239      1.0  0.37303  0.83251  0.71571  1.0000
  Fe  Fe123     1.0  0.45182  0.80927  0.72046  1.0000
  S   S240      1.0  0.44084  0.78056  0.68037  1.0000
  S   S241      1.0  0.49123  0.81880  0.74312  1.0000
  Fe  Fe124     1.0  0.43392  0.81061  0.65473  1.0000
  S   S242      1.0  0.44423  0.82091  0.60349  1.0000
  Fe  Fe125     1.0  0.39874  0.76330  0.69900  1.0000
  H   H937      1.0  0.51002  0.81766  0.57309  1.0000
  S   S243      1.0  0.44729  0.84076  0.69359  1.0000
  S   S244      1.0  0.40990  0.78976  0.74131  1.0000
  C   C588      1.0  0.51213  0.79988  0.56732  1.0000
  C   C589      1.0  0.52414  0.77034  0.74519  1.0000
  S   S245      1.0  0.63798  0.79564  0.71925  1.0000
  C   C590      1.0  0.47771  0.84344  0.59145  1.0000
  C   C591      1.0  0.48318  0.84883  0.55944  1.0000
  C   C592      1.0  0.50969  0.86618  0.54891  1.0000
  H   H938      1.0  0.46690  0.83943  0.54263  1.0000
  H   H939      1.0  0.51374  0.87016  0.52418  1.0000
  C   C593      1.0  0.36147  0.89122  0.77903  1.0000
  C   C594      1.0  0.38459  0.88860  0.78236  1.0000
  C   C595      1.0  0.38848  0.87066  0.76342  1.0000
  C   C596      1.0  0.36929  0.85520  0.74076  1.0000
  C   C597      1.0  0.34614  0.85775  0.73749  1.0000
  C   C598      1.0  0.42285  0.90485  0.62824  1.0000
  H   H940      1.0  0.39964  0.90060  0.79968  1.0000
  H   H941      1.0  0.40638  0.86895  0.76626  1.0000
  H   H942      1.0  0.38311  0.96474  0.84365  1.0000
  H   H943      1.0  0.49260  0.74659  0.55936  1.0000
  Fe  Fe126     1.0  0.57767  0.89923  0.50883  1.0000
  S   S246      1.0  0.56423  0.90147  0.55820  1.0000
  C   C599      1.0  0.65699  0.81608  0.75080  1.0000
  C   C600      1.0  0.49536  0.79052  0.74756  1.0000
  C   C601      1.0  0.38018  0.98549  0.89886  1.0000
  H   H944      1.0  0.47203  0.90894  0.62404  1.0000
  C   C602      1.0  0.52011  0.79232  0.73998  1.0000
  H   H945      1.0  0.43361  0.86274  0.58221  1.0000
  H   H946      1.0  0.53617  0.81077  0.73012  1.0000
  C   C603      1.0  0.53084  0.87882  0.57043  1.0000
  C   C604      1.0  0.52525  0.87377  0.60250  1.0000
  C   C605      1.0  0.49884  0.85593  0.61299  1.0000
  H   H947      1.0  0.54151  0.88355  0.61928  1.0000
  H   H948      1.0  0.49491  0.85193  0.63773  1.0000
  H   H949      1.0  0.40049  0.94037  0.91578  1.0000
  N   N59       1.0  0.62514  0.76949  0.62341  1.0000
  H   H950      1.0  0.51442  0.80467  0.50512  1.0000
  N   N60       1.0  0.38225  0.96108  0.89376  1.0000
  H   H951      1.0  0.49127  0.81443  0.51962  1.0000
  C   C606      1.0  0.40792  0.85789  0.63656  1.0000
  H   H952      1.0  0.33120  0.84602  0.71995  1.0000
  H   H953      1.0  0.60128  0.84740  0.77210  1.0000
  C   C607      1.0  0.42903  0.87903  0.58773  1.0000
  C   C608      1.0  0.34218  0.87558  0.75653  1.0000
  S   S247      1.0  0.33245  0.96421  0.81889  1.0000
  H   H954      1.0  0.44789  0.75865  0.54180  1.0000
  S   S248      1.0  0.57773  0.86141  0.49573  1.0000
  H   H955      1.0  0.41578  0.98065  0.86194  1.0000
  H   H956      1.0  0.40285  0.90005  0.61849  1.0000
  C   C609      1.0  0.65215  0.80622  0.78142  1.0000
  C   C610      1.0  0.39866  0.95867  0.91892  1.0000
  H   H957      1.0  0.41150  0.84088  0.63165  1.0000
  N   N61       1.0  0.42886  0.88304  0.62186  1.0000
  S   S249      1.0  0.61975  0.92697  0.49020  1.0000
  H   H958      1.0  0.41943  0.97642  0.91941  1.0000
  H   H959      1.0  0.40909  0.87326  0.57702  1.0000
  C   C611      1.0  0.63208  0.75314  0.64403  1.0000
  C   C612      1.0  0.47456  0.76655  0.76001  1.0000
  C   C613      1.0  0.61717  0.75656  0.59234  1.0000
  C   C614      1.0  0.45561  0.89034  0.63499  1.0000
  H   H960      1.0  0.34000  0.77519  0.70743  1.0000
  Fe  Fe127     1.0  0.60470  0.75342  0.73016  1.0000
  H   H961      1.0  0.63377  0.75462  0.58137  1.0000
  H   H962      1.0  0.64923  0.75133  0.63459  1.0000
  N   N62       1.0  0.49122  0.78190  0.54482  1.0000
  C   C615      1.0  0.34118  0.76884  0.76990  1.0000
  H   H963      1.0  0.43837  0.92424  0.61776  1.0000
  H   H964      1.0  0.35546  0.91830  0.88959  1.0000
  H   H965      1.0  0.46065  0.78952  0.56328  1.0000
  H   H966      1.0  0.62139  0.98694  0.88977  1.0000
  C   C616      1.0  0.35493  0.93715  0.89407  1.0000
  C   C617      1.0  0.64884  0.79679  0.62041  1.0000
  C   C618      1.0  0.49403  0.79682  0.51559  1.0000
  H   H967      1.0  0.35149  0.75674  0.77033  1.0000
  H   H968      1.0  0.36787  0.98785  0.88025  1.0000
  H   H969      1.0  0.42226  0.90809  0.65386  1.0000
  C   C619      1.0  0.64128  0.98735  0.93276  1.0000
  H   H970      1.0  0.38940  0.95718  0.94228  1.0000
  H   H971      1.0  0.39644  0.94457  0.85819  1.0000
  H   H972      1.0  0.54318  0.77177  0.73920  1.0000
  N   N63       1.0  0.58708  0.81785  0.80890  1.0000
  C   C620      1.0  0.58114  0.78987  0.81357  1.0000
  C   C621      1.0  0.60829  0.83584  0.83114  1.0000
  C   C622      1.0  0.56226  0.81927  0.81434  1.0000
  C   C623      1.0  0.59665  0.82641  0.77655  1.0000
  H   H973      1.0  0.45634  0.89374  0.66069  1.0000
  H   H974      1.0  0.57371  0.78261  0.83765  1.0000
  H   H975      1.0  0.59947  0.78810  0.80989  1.0000
  H   H976      1.0  0.61315  0.85709  0.82844  1.0000
  H   H977      1.0  0.60203  0.82976  0.85582  1.0000
  H   H978      1.0  0.62744  0.83555  0.82746  1.0000
  H   H979      1.0  0.56569  0.83990  0.81011  1.0000
  H   H980      1.0  0.55485  0.81353  0.83875  1.0000
  H   H981      1.0  0.54558  0.80536  0.79859  1.0000
  H   H982      1.0  0.53282  0.80773  0.55762  1.0000
  H   H983      1.0  0.58132  0.81320  0.75909  1.0000
  C   C624      1.0  0.39506  0.96292  0.86313  1.0000
  H   H984      1.0  0.61170  0.76827  0.57612  1.0000
  H   H985      1.0  0.33555  0.77041  0.79438  1.0000
  H   H986      1.0  0.40762  0.85996  0.66242  1.0000
  H   H987      1.0  0.35626  0.78951  0.76204  1.0000
  H   H988      1.0  0.61541  0.82566  0.77172  1.0000
  H   H989      1.0  0.56533  0.77573  0.79700  1.0000
  H   H990      1.0  0.45548  0.76507  0.76609  1.0000
  H   H991      1.0  0.38736  0.85197  0.62776  1.0000
  H   H992      1.0  0.46054  0.87409  0.63100  1.0000
  H   H993      1.0  0.44462  0.89759  0.57583  1.0000
  H   H994      1.0  0.37012  0.98454  0.92152  1.0000
  H   H995      1.0  0.46131  0.76134  0.58048  1.0000
  C   C625      1.0  0.60240  0.77137  0.63705  1.0000
  H   H996      1.0  0.63783  0.78528  0.78581  1.0000
  H   H997      1.0  0.51083  0.78933  0.58962  1.0000
  H   H998      1.0  0.47885  0.78383  0.49787  1.0000
  C   C626      1.0  0.46409  0.77242  0.55820  1.0000
  H   H999      1.0  0.65514  0.80687  0.64369  1.0000
  H   H1000     1.0  0.60758  0.78070  0.66072  1.0000
  H   H1001     1.0  0.63799  0.76217  0.66780  1.0000
  H   H1002     1.0  0.51477  0.76479  0.52754  1.0000
  C   C627      1.0  0.50372  0.74678  0.75888  1.0000
  H   H1003     1.0  0.58413  0.75112  0.63950  1.0000
  H   H1004     1.0  0.34447  0.93501  0.91676  1.0000
  C   C628      1.0  0.49462  0.75849  0.53798  1.0000
  H   H1005     1.0  0.64437  0.80979  0.60507  1.0000
  H   H1006     1.0  0.34208  0.93869  0.87568  1.0000
  H   H1007     1.0  0.47921  0.74457  0.52093  1.0000
  C   C629      1.0  0.47889  0.74491  0.76609  1.0000
  Fe  Fe128     1.0  0.84533  0.12964  0.03579  1.0000
  S   S250      1.0  0.85197  0.11445  0.08137  1.0000
  S   S251      1.0  0.83253  0.16046  0.02599  1.0000
  H   H1008     1.0  0.75612  0.21857  0.21805  1.0000
  S   S252      1.0  0.87080  0.07812  0.04010  1.0000
  H   H1009     1.0  0.88627  0.21827  0.07555  1.0000
  Fe  Fe129     1.0  0.83197  0.07377  0.05848  1.0000
  S   S253      1.0  0.80214  0.03354  0.07914  1.0000
  Fe  Fe130     1.0  0.89059  0.12038  0.05950  1.0000
  S   S254      1.0  0.92590  0.14202  0.09371  1.0000
  S   S255      1.0  0.82159  0.08831  0.01510  1.0000
  S   S256      1.0  0.88475  0.13785  0.01497  1.0000
  H   H1010     1.0  0.88765  0.23227  0.40590  1.0000
  H   H1011     1.0  0.74539  0.23107  0.07605  1.0000
  Fe  Fe131     1.0  0.72147  0.17924  0.37310  1.0000
  S   S257      1.0  0.74712  0.18162  0.33219  1.0000
  S   S258      1.0  0.71606  0.21265  0.39371  1.0000
  C   C630      1.0  0.87506  0.02641  0.45587  1.0000
  S   S259      1.0  0.71728  0.11507  0.33694  1.0000
  Fe  Fe132     1.0  0.75324  0.15094  0.35849  1.0000
  S   S260      1.0  0.79350  0.15220  0.35807  1.0000
  N   N64       1.0  0.91066  0.21222  0.39965  1.0000
  S   S261      1.0  0.73075  0.15160  0.40114  1.0000
  C   C631      1.0  0.88746  0.21587  0.39183  1.0000
  H   H1012     1.0  0.91166  0.07015  0.17929  1.0000
  S   S262      1.0  0.66219  0.08514  0.40955  1.0000
  C   C632      1.0  0.97733  0.16431  0.11738  1.0000
  H   H1013     1.0  0.90472  0.08482  0.09618  1.0000
  S   S263      1.0  0.90414  0.07534  0.42409  1.0000
  S   S264      1.0  0.95448  0.13877  0.47934  1.0000
  H   H1014     1.0  0.89216  0.03753  0.16163  1.0000
  S   S265      1.0  0.90950  0.14319  0.43633  1.0000
  C   C633      1.0  0.86343  0.99551  0.40105  1.0000
  H   H1015     1.0  0.87965  0.03810  0.47712  1.0000
  C   C634      1.0  0.80804  0.14935  0.39328  1.0000
  H   H1016     1.0  0.69010  0.07243  0.99757  1.0000
  H   H1017     1.0  0.95478  0.23120  0.47983  1.0000
  C   C635      1.0  0.83464  0.14777  0.44827  1.0000
  C   C636      1.0  0.84074  0.14043  0.41956  1.0000
  C   C637      1.0  0.82770  0.14150  0.39213  1.0000
  Fe  Fe133     1.0  0.69419  0.11757  0.37806  1.0000
  C   C638      1.0  0.67094  0.07249  0.00195  1.0000
  H   H1018     1.0  0.85545  0.13386  0.41847  1.0000
  H   H1019     1.0  0.83271  0.13605  0.36993  1.0000
  H   H1020     1.0  0.87082  0.08870  0.16897  1.0000
  N   N65       1.0  0.68000  0.15612  0.46804  1.0000
  C   C639      1.0  0.80144  0.15605  0.42211  1.0000
  H   H1021     1.0  0.73404  0.18485  0.20499  1.0000
  H   H1022     1.0  0.91859  0.22711  0.09163  1.0000
  H   H1023     1.0  0.78677  0.99991  0.44632  1.0000
  C   C640      1.0  0.88420  0.03959  0.42715  1.0000
  C   C641      1.0  0.87811  0.02392  0.39979  1.0000
  H   H1024     1.0  0.92842  0.09090  0.12671  1.0000
  C   C642      1.0  0.86078  0.99799  0.45719  1.0000
  S   S266      1.0  0.98212  0.21030  0.44019  1.0000
  H   H1025     1.0  0.88513  0.03385  0.37745  1.0000
  Fe  Fe134     1.0  0.91349  0.10960  0.45853  1.0000
  C   C643      1.0  0.96019  0.14999  0.09229  1.0000
  C   C644      1.0  0.99051  0.24317  0.45217  1.0000
  H   H1026     1.0  0.68092  0.15168  0.41850  1.0000
  H   H1027     1.0  0.96936  0.17011  0.13695  1.0000
  H   H1028     1.0  0.95783  0.13146  0.04777  1.0000
  H   H1029     1.0  0.67850  0.08253  0.06386  1.0000
  C   C645      1.0  0.73345  0.03714  0.06813  1.0000
  C   C646      1.0  0.76082  0.04442  0.07005  1.0000
  C   C647      1.0  0.76800  0.02466  0.07465  1.0000
  H   H1030     1.0  0.80993  0.16101  0.47163  1.0000
  S   S267      1.0  0.68323  0.14534  0.35306  1.0000
  H   H1031     1.0  0.72807  0.05262  0.06556  1.0000
  H   H1032     1.0  0.77632  0.06539  0.06897  1.0000
  H   H1033     1.0  0.72071  0.20674  0.21246  1.0000
  C   C648      1.0  0.83203  0.18033  0.05720  1.0000
  C   C649      1.0  0.83446  0.17424  0.08829  1.0000
  C   C650      1.0  0.83481  0.19094  0.11259  1.0000
  C   C651      1.0  0.83319  0.21406  0.10596  1.0000
  H   H1034     1.0  0.67640  0.09362  0.00719  1.0000
  C   C652      1.0  0.82974  0.20310  0.05064  1.0000
  H   H1035     1.0  0.83601  0.15664  0.09366  1.0000
  H   H1036     1.0  0.83672  0.18611  0.13658  1.0000
  H   H1037     1.0  0.78649  0.16232  0.42324  1.0000
  H   H1038     1.0  0.82760  0.20781  0.02668  1.0000
  H   H1039     1.0  0.90938  0.05784  0.10972  1.0000
  S   S268      1.0  0.69810  0.14343  0.26253  1.0000
  Fe  Fe135     1.0  0.70943  0.14594  0.31388  1.0000
  H   H1040     1.0  0.89030  0.18617  0.43849  1.0000
  H   H1041     1.0  0.67973  0.14823  0.20157  1.0000
  H   H1042     1.0  0.84336  0.04359  0.14381  1.0000
  H   H1043     1.0  0.91349  0.22430  0.04995  1.0000
  C   C653      1.0  0.67220  0.06165  0.05632  1.0000
  N   N66       1.0  0.74371  0.21535  0.16996  1.0000
  S   S269      1.0  0.83507  0.23531  0.13689  1.0000
  C   C654      1.0  0.72001  0.19750  0.15054  1.0000
  C   C655      1.0  0.81479  0.15537  0.44948  1.0000
  C   C656      1.0  0.90823  0.07577  0.11740  1.0000
  Fe  Fe136     1.0  0.86130  0.09503  0.99762  1.0000
  C   C657      1.0  0.90968  0.19043  0.38023  1.0000
  C   C658      1.0  0.67158  0.15640  0.21834  1.0000
  H   H1044     1.0  0.72361  0.20340  0.12545  1.0000
  H   H1045     1.0  0.70425  0.19916  0.46325  1.0000
  H   H1046     1.0  0.77243  0.22177  0.13359  1.0000
  H   H1047     1.0  0.69736  0.13126  0.45735  1.0000
  H   H1048     1.0  0.85567  0.05834  0.10631  1.0000
  H   H1049     1.0  0.85960  0.03070  0.11884  1.0000
  H   H1050     1.0  0.66945  0.04958  0.36594  1.0000
  H   H1051     1.0  0.90637  0.10862  0.16020  1.0000
  H   H1052     1.0  0.91012  0.22100  0.44851  1.0000
  H   H1053     1.0  0.86788  0.19722  0.39661  1.0000
  Fe  Fe137     1.0  0.94784  0.17194  0.46129  1.0000
  C   C659      1.0  0.97073  0.14251  0.06723  1.0000
  S   S270      1.0  0.67896  0.00160  0.06854  1.0000
  C   C660      1.0  0.88639  0.09317  0.15074  1.0000
  H   H1054     1.0  0.76491  0.19407  0.15916  1.0000
  C   C661      1.0  0.89184  0.05614  0.16827  1.0000
  H   H1055     1.0  0.66437  0.11355  0.47389  1.0000
  H   H1056     1.0  0.78611  0.22799  0.17232  1.0000
  H   H1057     1.0  0.92629  0.20179  0.43956  1.0000
  C   C662      1.0  0.74771  0.99754  0.07641  1.0000
  H   H1058     1.0  0.88182  0.10266  0.13074  1.0000
  C   C663      1.0  0.71314  0.01003  0.06980  1.0000
  C   C664      1.0  0.76776  0.21472  0.15829  1.0000
  N   N67       1.0  0.88667  0.06862  0.14084  1.0000
  H   H1059     1.0  0.71512  0.17618  0.15211  1.0000
  C   C665      1.0  0.86023  0.04944  0.12693  1.0000
  H   H1060     1.0  0.87594  0.05048  0.18644  1.0000
  H   H1061     1.0  0.70169  0.19833  0.15776  1.0000
  S   S271      1.0  0.69290  0.22217  0.09100  1.0000
  C   C666      1.0  0.67769  0.15685  0.25024  1.0000
  C   C667      1.0  0.66772  0.15271  0.43676  1.0000
  H   H1062     1.0  0.91054  0.19507  0.35486  1.0000
  C   C668      1.0  0.90931  0.20505  0.43302  1.0000
  C   C669      1.0  0.83052  0.22003  0.07491  1.0000
  H   H1063     1.0  0.82879  0.23754  0.06958  1.0000
  H   H1064     1.0  0.89073  0.17101  0.38435  1.0000
  H   H1065     1.0  0.88746  0.22082  0.36666  1.0000
  H   H1066     1.0  0.92692  0.18714  0.38561  1.0000
  C   C670      1.0  0.73845  0.20603  0.20279  1.0000
  H   H1067     1.0  0.69082  0.06038  0.05251  1.0000
  C   C671      1.0  0.90840  0.23118  0.07191  1.0000
  H   H1068     1.0  0.72050  0.18108  0.45092  1.0000
  H   H1069     1.0  0.83762  0.03595  0.98779  1.0000
  H   H1070     1.0  0.77357  0.24001  0.37952  1.0000
  H   H1071     1.0  0.67151  0.16787  0.29633  1.0000
  H   H1072     1.0  0.67343  0.09013  0.29006  1.0000
  H   H1073     1.0  0.93790  0.24374  0.36876  1.0000
  H   H1074     1.0  0.95407  0.23507  0.39899  1.0000
  C   C672      1.0  0.93626  0.23746  0.39365  1.0000
  C   C673      1.0  0.70641  0.18131  0.46871  1.0000
  H   H1075     1.0  0.78869  0.99968  0.40435  1.0000
  C   C674      1.0  0.68385  0.13295  0.47483  1.0000
  H   H1076     1.0  0.66478  0.16995  0.43054  1.0000
  C   C675      1.0  0.66677  0.16712  0.27177  1.0000
  H   H1077     1.0  0.66558  0.02408  0.01494  1.0000
  C   C676      1.0  0.74858  0.24318  0.16816  1.0000
  H   H1078     1.0  0.73054  0.24430  0.17589  1.0000
  H   H1079     1.0  0.66124  0.04778  0.07609  1.0000
  Fe  Fe138     1.0  0.88850  0.14281  0.48061  1.0000
  C   C677      1.0  0.86744  0.17863  0.71401  1.0000
  H   H1080     1.0  0.82562  0.13575  0.88213  1.0000
  Fe  Fe139     1.0  0.71471  0.07512  0.80415  1.0000
  S   S272      1.0  0.73974  0.09005  0.84749  1.0000
  S   S273      1.0  0.70412  0.03615  0.78010  1.0000
  Fe  Fe140     1.0  0.69837  0.11845  0.80545  1.0000
  S   S274      1.0  0.72161  0.13654  0.85011  1.0000
  Fe  Fe141     1.0  0.75459  0.13157  0.82814  1.0000
  S   S275      1.0  0.79844  0.16369  0.83512  1.0000
  Fe  Fe142     1.0  0.70511  0.09358  0.86633  1.0000
  S   S276      1.0  0.73282  0.11615  0.78265  1.0000
  Fe  Fe143     1.0  0.93106  0.13938  0.52126  1.0000
  S   S277      1.0  0.94429  0.14463  0.57224  1.0000
  C   C678      1.0  0.97718  0.15356  0.58516  1.0000
  S   S278      1.0  0.79314  0.00107  0.78158  1.0000
  H   H1081     1.0  0.67950  0.23463  0.83320  1.0000
  H   H1082     1.0  0.76207  0.06649  0.79033  1.0000
  H   H1083     1.0  0.68791  0.06626  0.71895  1.0000
  H   H1084     1.0  0.97283  0.17058  0.62818  1.0000
  S   S279      1.0  0.85962  0.08285  0.94705  1.0000
  C   C679      1.0  0.81600  0.18497  0.80339  1.0000
  C   C680      1.0  0.80421  0.18065  0.77377  1.0000
  C   C681      1.0  0.81876  0.19744  0.74868  1.0000
  C   C682      1.0  0.84507  0.21893  0.75308  1.0000
  H   H1085     1.0  0.84930  0.15939  0.94686  1.0000
  C   C683      1.0  0.84241  0.20647  0.80780  1.0000
  H   H1086     1.0  0.78394  0.16422  0.77006  1.0000
  H   H1087     1.0  0.80950  0.19377  0.72578  1.0000
  H   H1088     1.0  0.85172  0.20986  0.83064  1.0000
  S   S280      1.0  0.89042  0.10796  0.50204  1.0000
  H   H1089     1.0  0.82013  0.00391  0.87778  1.0000
  H   H1090     1.0  0.69693  0.00388  0.83728  1.0000
  C   C684      1.0  0.72892  0.02650  0.78200  1.0000
  S   S281      1.0  0.67928  0.13356  0.76954  1.0000
  H   H1091     1.0  0.93088  0.22564  0.69169  1.0000
  C   C685      1.0  0.67615  0.07442  0.73074  1.0000
  H   H1092     1.0  0.87849  0.02352  0.75675  1.0000
  H   H1093     1.0  0.98762  0.13773  0.54528  1.0000
  H   H1094     1.0  0.92905  0.18325  0.70903  1.0000
  H   H1095     1.0  0.77481  0.11471  0.94581  1.0000
  H   H1096     1.0  0.79143  0.12639  0.89139  1.0000
  C   C686      1.0  0.84225  0.04782  0.93941  1.0000
  H   H1097     1.0  0.69567  0.04284  0.96313  1.0000
  H   H1098     1.0  0.80220  0.14631  0.95938  1.0000
  N   N68       1.0  0.89452  0.18801  0.70049  1.0000
  S   S282      1.0  0.69478  0.07798  0.91596  1.0000
  C   C687      1.0  0.83705  0.03856  0.90839  1.0000
  H   H1099     1.0  0.85617  0.18660  0.70067  1.0000
  C   C688      1.0  0.91006  0.21774  0.70092  1.0000
  H   H1100     1.0  0.84356  0.05290  0.88938  1.0000
  C   C689      1.0  0.77566  0.03751  0.78732  1.0000
  C   C690      1.0  0.73514  0.00108  0.87125  1.0000
  H   H1101     1.0  0.74332  0.02057  0.88385  1.0000
  N   N69       1.0  0.81422  0.12367  0.92999  1.0000
  C   C691      1.0  0.82382  0.01080  0.90177  1.0000
  C   C692      1.0  0.79622  0.12508  0.95382  1.0000
  H   H1102     1.0  0.67061  0.16013  0.51569  1.0000
  H   H1103     1.0  0.91177  0.22573  0.72507  1.0000
  C   C693      1.0  0.80591  0.09521  0.92378  1.0000
  H   H1104     1.0  0.81946  0.09346  0.90636  1.0000
  C   C694      1.0  0.85692  0.00771  0.75430  1.0000
  H   H1105     1.0  0.70574  0.99745  0.92226  1.0000
  C   C695      1.0  0.84236  0.13791  0.94159  1.0000
  S   S283      1.0  0.92657  0.17390  0.50397  1.0000
  H   H1106     1.0  0.90006  0.22648  0.68649  1.0000
  H   H1107     1.0  0.69952  0.01868  0.87495  1.0000
  H   H1108     1.0  0.79675  0.05240  0.79043  1.0000
  C   C696      1.0  0.72134  0.99935  0.77800  1.0000
  H   H1109     1.0  0.85497  0.15629  0.71396  1.0000
  H   H1110     1.0  0.84817  0.00237  0.77825  1.0000
  H   H1111     1.0  0.96898  0.22365  0.72603  1.0000
  H   H1112     1.0  0.85652  0.13708  0.92435  1.0000
  H   H1113     1.0  0.88772  0.00696  0.70713  1.0000
  S   S284      1.0  0.67886  0.07602  0.82397  1.0000
  C   C697      1.0  0.66195  0.15751  0.49176  1.0000
  C   C698      1.0  0.83375  0.02908  0.96381  1.0000
  H   H1114     1.0  0.89730  0.15494  0.72019  1.0000
  C   C699      1.0  0.75606  0.04550  0.78728  1.0000
  H   H1115     1.0  0.74085  0.00581  0.84618  1.0000
  C   C700      1.0  0.98607  0.16635  0.61427  1.0000
  C   C701      1.0  0.89169  0.17840  0.66787  1.0000
  C   C702      1.0  0.76810  0.01038  0.78324  1.0000
  C   C703      1.0  0.85691  0.22348  0.78272  1.0000
  C   C704      1.0  0.98522  0.24212  0.73545  1.0000
  H   H1116     1.0  0.68407  0.07978  0.75488  1.0000
  H   H1117     1.0  0.69298  0.13466  0.49829  1.0000
  H   H1118     1.0  0.68055  0.09350  0.71890  1.0000
  H   H1119     1.0  0.91220  0.18496  0.74365  1.0000
  C   C705      1.0  0.90888  0.17732  0.71917  1.0000
  H   H1120     1.0  0.88011  0.15602  0.66662  1.0000
  H   H1121     1.0  0.68993  0.23197  0.79424  1.0000
  H   H1122     1.0  0.86883  0.18555  0.73863  1.0000
  C   C706      1.0  0.67937  0.03077  0.94717  1.0000
  H   H1123     1.0  0.78488  0.08389  0.91466  1.0000
  H   H1124     1.0  0.80695  0.08489  0.94537  1.0000
  H   H1125     1.0  0.87736  0.23975  0.78624  1.0000
  C   C707      1.0  0.67519  0.04277  0.92078  1.0000
  H   H1126     1.0  0.98774  0.20209  0.54855  1.0000
  H   H1127     1.0  0.81860  0.15803  0.90446  1.0000
  H   H1128     1.0  0.88086  0.18607  0.65317  1.0000
  H   H1129     1.0  0.84436  0.12863  0.96352  1.0000
  C   C708      1.0  0.81242  0.13650  0.90078  1.0000
  H   H1130     1.0  0.79708  0.11561  0.97621  1.0000
  H   H1131     1.0  0.81762  0.24175  0.78629  1.0000
  H   H1132     1.0  0.71639  0.18466  0.49193  1.0000
  S   S285      1.0  0.85229  0.14896  0.48276  1.0000
  S   S286      1.0  0.86266  0.23893  0.72066  1.0000
  C   C709      1.0  0.67313  0.23113  0.80825  1.0000
  C   C710      1.0  0.69246  0.99922  0.86255  1.0000
  H   H1133     1.0  0.91175  0.18521  0.65688  1.0000
  H   H1134     1.0  0.66274  0.16031  0.72567  1.0000
  H   H1135     1.0  0.85572  0.00080  0.69208  1.0000
  H   H1136     1.0  0.84607  0.01673  0.74212  1.0000
  H   H1137     1.0  0.98806  0.20801  0.50731  1.0000
  C   C711      1.0  0.82092  0.00136  0.95719  1.0000
  C   C712      1.0  0.66249  0.00319  0.95314  1.0000
  Fe  Fe144     1.0  0.85087  0.27952  0.12717  1.0000
  S   S287      1.0  0.85723  0.29808  0.07968  1.0000
  H   H1138     1.0  0.88624  0.25641  0.10330  1.0000
  Fe  Fe145     1.0  0.87113  0.33370  0.16023  1.0000
  S   S288      1.0  0.88009  0.35663  0.11490  1.0000
  S   S289      1.0  0.87671  0.35081  0.20925  1.0000
  Fe  Fe146     1.0  0.83972  0.32200  0.10039  1.0000
  S   S290      1.0  0.80690  0.32841  0.08017  1.0000
  Fe  Fe147     1.0  0.89734  0.33075  0.09851  1.0000
  S   S291      1.0  0.93251  0.33807  0.06636  1.0000
  S   S292      1.0  0.83001  0.30070  0.14648  1.0000
  S   S293      1.0  0.89157  0.31052  0.14527  1.0000
  Fe  Fe148     1.0  0.80583  0.40800  0.30804  1.0000
  S   S294      1.0  0.83076  0.40984  0.34968  1.0000
  S   S295      1.0  0.81939  0.41489  0.25720  1.0000
  Fe  Fe149     1.0  0.75502  0.38976  0.34763  1.0000
  S   S296      1.0  0.77582  0.38887  0.39176  1.0000
  S   S297      1.0  0.71233  0.38241  0.34302  1.0000
  Fe  Fe150     1.0  0.81005  0.42899  0.37529  1.0000
  S   S298      1.0  0.82462  0.46197  0.41269  1.0000
  Fe  Fe151     1.0  0.79447  0.36989  0.36235  1.0000
  S   S299      1.0  0.80318  0.33619  0.37355  1.0000
  S   S300      1.0  0.78806  0.43046  0.33242  1.0000
  S   S301      1.0  0.77074  0.36742  0.31945  1.0000
  H   H1139     1.0  0.80733  0.28850  0.37345  1.0000
  N   N70       1.0  0.75035  0.44904  0.44592  1.0000
  C   C713      1.0  0.69248  0.41929  0.10706  1.0000
  C   C714      1.0  0.69961  0.38735  0.13623  1.0000
  C   C715      1.0  0.72088  0.43379  0.15290  1.0000
  C   C716      1.0  0.69422  0.38126  0.37680  1.0000
  C   C717      1.0  0.69875  0.37232  0.40536  1.0000
  H   H1140     1.0  0.70216  0.38042  0.15965  1.0000
  H   H1141     1.0  0.72477  0.42839  0.17657  1.0000
  H   H1142     1.0  0.71016  0.42475  0.09166  1.0000
  H   H1143     1.0  0.73914  0.43967  0.13832  1.0000
  H   H1144     1.0  0.71333  0.36555  0.40679  1.0000
  H   H1145     1.0  0.84388  0.38262  0.99832  1.0000
  C   C718      1.0  0.67267  0.40499  0.15824  1.0000
  C   C719      1.0  0.77838  0.30195  0.37848  1.0000
  C   C720      1.0  0.75116  0.29382  0.38338  1.0000
  C   C721      1.0  0.73219  0.26635  0.38774  1.0000
  H   H1146     1.0  0.83299  0.32689  0.28250  1.0000
  H   H1147     1.0  0.75307  0.25096  0.14381  1.0000
  C   C722      1.0  0.78629  0.28237  0.37706  1.0000
  H   H1148     1.0  0.74484  0.30871  0.38454  1.0000
  H   H1149     1.0  0.68794  0.36512  0.45418  1.0000
  C   C723      1.0  0.77512  0.29906  0.08343  1.0000
  C   C724      1.0  0.77268  0.27381  0.07886  1.0000
  H   H1150     1.0  0.72046  0.47653  0.07274  1.0000
  H   H1151     1.0  0.81705  0.44056  0.19741  1.0000
  H   H1152     1.0  0.76957  0.49172  0.45393  1.0000
  C   C725      1.0  0.75202  0.30084  0.09020  1.0000
  C   C726      1.0  0.75848  0.42892  0.43854  1.0000
  N   N71       1.0  0.85403  0.47795  0.19061  1.0000
  H   H1153     1.0  0.75382  0.32031  0.09392  1.0000
  C   C727      1.0  0.86121  0.36930  0.22153  1.0000
  C   C728      1.0  0.86305  0.37663  0.25312  1.0000
  C   C729      1.0  0.84984  0.39009  0.26431  1.0000
  C   C730      1.0  0.83532  0.39710  0.24378  1.0000
  C   C731      1.0  0.83390  0.39030  0.21198  1.0000
  C   C732      1.0  0.84656  0.37618  0.20092  1.0000
  H   H1154     1.0  0.87464  0.37170  0.26912  1.0000
  H   H1155     1.0  0.85137  0.39549  0.28876  1.0000
  H   H1156     1.0  0.82266  0.39560  0.19592  1.0000
  H   H1157     1.0  0.84503  0.37063  0.17650  1.0000
  H   H1158     1.0  0.79434  0.40640  0.00683  1.0000
  C   C733      1.0  0.96727  0.36320  0.06673  1.0000
  C   C734      1.0  0.94576  0.27657  0.06603  1.0000
  H   H1159     1.0  0.81721  0.33969  0.30816  1.0000
  H   H1160     1.0  0.96371  0.38903  0.10051  1.0000
  C   C735      1.0  0.78912  0.32584  0.25549  1.0000
  H   H1161     1.0  0.77022  0.31624  0.24142  1.0000
  C   C736      1.0  0.82676  0.45732  0.18016  1.0000
  H   H1162     1.0  0.79049  0.34390  0.26703  1.0000
  N   N72       1.0  0.69642  0.41134  0.13862  1.0000
  H   H1163     1.0  0.76267  0.35922  0.02365  1.0000
  H   H1164     1.0  0.76714  0.31404  0.31397  1.0000
  H   H1165     1.0  0.74674  0.28811  0.28641  1.0000
  H   H1166     1.0  0.68923  0.43684  0.10809  1.0000
  C   C737      1.0  0.76719  0.25486  0.38042  1.0000
  H   H1167     1.0  0.67451  0.40271  0.09537  1.0000
  H   H1168     1.0  0.72623  0.46432  0.42541  1.0000
  H   H1169     1.0  0.90777  0.28573  0.04176  1.0000
  C   C738      1.0  0.82654  0.37035  0.01414  1.0000
  H   H1170     1.0  0.95216  0.29838  0.06493  1.0000
  H   H1171     1.0  0.86764  0.49249  0.14396  1.0000
  H   H1172     1.0  0.89220  0.48073  0.20115  1.0000
  C   C739      1.0  0.90228  0.26424  0.04373  1.0000
  H   H1173     1.0  0.95240  0.27136  0.04398  1.0000
  H   H1174     1.0  0.93806  0.25424  0.40847  1.0000
  S   S302      1.0  0.69093  0.49238  0.11610  1.0000
  H   H1175     1.0  0.91792  0.26410  0.12048  1.0000
  H   H1176     1.0  0.77443  0.33542  0.02580  1.0000
  H   H1177     1.0  0.78644  0.36238  0.05336  1.0000
  H   H1178     1.0  0.82103  0.34887  0.01151  1.0000
  H   H1179     1.0  0.81508  0.30813  0.31656  1.0000
  C   C740      1.0  0.81134  0.40274  0.01211  1.0000
  H   H1180     1.0  0.90744  0.25828  0.02117  1.0000
  N   N73       1.0  0.91623  0.25992  0.07034  1.0000
  C   C741      1.0  0.76608  0.29733  0.29966  1.0000
  H   H1181     1.0  0.84302  0.47258  0.23926  1.0000
  H   H1182     1.0  0.76714  0.43202  0.41460  1.0000
  C   C742      1.0  0.78067  0.35710  0.02840  1.0000
  H   H1183     1.0  0.78966  0.26955  0.27925  1.0000
  H   H1184     1.0  0.82833  0.41620  0.99641  1.0000
  C   C743      1.0  0.90846  0.26779  0.09973  1.0000
  H   H1185     1.0  0.71743  0.39147  0.12172  1.0000
  C   C744      1.0  0.66521  0.38056  0.43044  1.0000
  H   H1186     1.0  0.95692  0.27393  0.08579  1.0000
  H   H1187     1.0  0.70890  0.27876  0.09861  1.0000
  H   H1188     1.0  0.87999  0.25238  0.04645  1.0000
  H   H1189     1.0  0.71418  0.42940  0.41837  1.0000
  H   H1190     1.0  0.66958  0.42264  0.16036  1.0000
  H   H1191     1.0  0.87281  0.45661  0.17136  1.0000
  C   C745      1.0  0.68428  0.37198  0.43210  1.0000
  H   H1192     1.0  0.80639  0.33311  0.23897  1.0000
  C   C746      1.0  0.73275  0.44933  0.42074  1.0000
  C   C747      1.0  0.85200  0.48877  0.22122  1.0000
  H   H1193     1.0  0.79036  0.27229  0.07342  1.0000
  C   C748      1.0  0.78876  0.28387  0.26232  1.0000
  H   H1194     1.0  0.77413  0.43008  0.45505  1.0000
  C   C749      1.0  0.81484  0.32100  0.29723  1.0000
  C   C750      1.0  0.87133  0.46566  0.19377  1.0000
  C   C751      1.0  0.97726  0.38628  0.08530  1.0000
  C   C752      1.0  0.72661  0.27736  0.09289  1.0000
  H   H1195     1.0  0.76985  0.27262  0.24849  1.0000
  N   N74       1.0  0.80332  0.37419  0.00728  1.0000
  N   N75       1.0  0.78968  0.30701  0.27868  1.0000
  C   C753      1.0  0.67469  0.38923  0.37496  1.0000
  H   H1196     1.0  0.91475  0.28951  0.09965  1.0000
  H   H1197     1.0  0.80620  0.29060  0.24602  1.0000
  H   H1198     1.0  0.76497  0.28187  0.31629  1.0000
  H   H1199     1.0  0.74113  0.40810  0.43965  1.0000
  C   C754      1.0  0.74720  0.25049  0.08036  1.0000
  C   C755      1.0  0.73548  0.44195  0.47589  1.0000
  H   H1200     1.0  0.97965  0.39087  0.47731  1.0000
  C   C756      1.0  0.97984  0.27443  0.47822  1.0000
  H   H1201     1.0  0.71129  0.26026  0.39235  1.0000
  H   H1202     1.0  0.68160  0.37017  0.12518  1.0000
  H   H1203     1.0  0.96199  0.35534  0.46899  1.0000
  H   H1204     1.0  0.97772  0.34248  0.03226  1.0000
  C   C757      1.0  0.74011  0.24677  0.38626  1.0000
  H   H1205     1.0  0.83371  0.37617  0.03865  1.0000
  H   H1206     1.0  0.86319  0.44937  0.21167  1.0000
  H   H1207     1.0  0.78645  0.48157  0.42607  1.0000
  H   H1208     1.0  0.71881  0.45201  0.15546  1.0000
  H   H1209     1.0  0.67486  0.39883  0.18225  1.0000
  C   C758      1.0  0.98525  0.36009  0.04698  1.0000
  C   C759      1.0  0.72415  0.25214  0.08777  1.0000
  H   H1210     1.0  0.81330  0.46606  0.17712  1.0000
  H   H1211     1.0  0.67106  0.39610  0.35286  1.0000
  C   C760      1.0  0.77477  0.47591  0.44835  1.0000
  H   H1212     1.0  0.81792  0.40922  0.03660  1.0000
  C   C761      1.0  0.73324  0.48677  0.09260  1.0000
  H   H1213     1.0  0.76614  0.25718  0.18276  1.0000
  H   H1214     1.0  0.74312  0.45411  0.39764  1.0000
  C   C762      1.0  0.97331  0.24788  0.47107  1.0000
  H   H1215     1.0  0.82753  0.44845  0.15733  1.0000
  H   H1216     1.0  0.79752  0.45379  0.99360  1.0000
  C   C763      1.0  0.83602  0.49054  0.99651  1.0000
  H   H1217     1.0  0.78868  0.47630  0.46688  1.0000
  C   C764      1.0  0.81720  0.46574  0.98300  1.0000
  C   C765      1.0  0.75940  0.49013  0.09454  1.0000
  H   H1218     1.0  0.76657  0.48212  0.07637  1.0000
  H   H1219     1.0  0.71663  0.42194  0.47451  1.0000
  S   S303      1.0  0.66268  0.44907  0.03905  1.0000
  Fe  Fe152     1.0  0.79200  0.42196  0.88789  1.0000
  S   S304      1.0  0.80039  0.42470  0.94010  1.0000
  Fe  Fe153     1.0  0.74535  0.39412  0.84111  1.0000
  S   S305      1.0  0.77056  0.42002  0.80132  1.0000
  S   S306      1.0  0.70100  0.36198  0.83980  1.0000
  Fe  Fe154     1.0  0.80285  0.41189  0.82041  1.0000
  S   S307      1.0  0.82285  0.39861  0.78340  1.0000
  Fe  Fe155     1.0  0.78609  0.45439  0.83561  1.0000
  S   S308      1.0  0.77654  0.38432  0.85873  1.0000
  S   S309      1.0  0.75837  0.42916  0.87387  1.0000
  Fe  Fe156     1.0  0.92090  0.33654  0.75131  1.0000
  S   S310      1.0  0.89895  0.31570  0.70716  1.0000
  S   S311      1.0  0.90967  0.35909  0.78694  1.0000
  Fe  Fe157     1.0  0.95863  0.31283  0.74693  1.0000
  S   S312      1.0  0.93878  0.28973  0.70348  1.0000
  H   H1220     1.0  0.95031  0.32271  0.51144  1.0000
  Fe  Fe158     1.0  0.94008  0.32753  0.68747  1.0000
  S   S313      1.0  0.95132  0.33572  0.63615  1.0000
  Fe  Fe159     1.0  0.89979  0.27980  0.72679  1.0000
  H   H1221     1.0  0.98913  0.40682  0.53232  1.0000
  S   S314      1.0  0.96229  0.35161  0.72988  1.0000
  S   S315      1.0  0.91938  0.29958  0.77199  1.0000
  C   C766      1.0  0.82270  0.30210  0.80287  1.0000
  H   H1222     1.0  0.68398  0.29376  0.79205  1.0000
  H   H1223     1.0  0.83920  0.32347  0.80343  1.0000
  N   N76       1.0  0.96679  0.36530  0.51797  1.0000
  H   H1224     1.0  0.81123  0.37936  0.95783  1.0000
  H   H1225     1.0  0.99374  0.38840  0.65689  1.0000
  H   H1226     1.0  0.85212  0.27799  0.75334  1.0000
  H   H1227     1.0  0.68069  0.49058  0.85817  1.0000
  H   H1228     1.0  0.92492  0.34783  0.50533  1.0000
  H   H1229     1.0  0.93269  0.36002  0.54483  1.0000
  H   H1230     1.0  0.70687  0.28128  0.78800  1.0000
  C   C767      1.0  0.84664  0.38720  0.78530  1.0000
  C   C768      1.0  0.85215  0.37709  0.75797  1.0000
  C   C769      1.0  0.87131  0.36839  0.75797  1.0000
  C   C770      1.0  0.88544  0.36995  0.78534  1.0000
  C   C771      1.0  0.87982  0.37986  0.81274  1.0000
  C   C772      1.0  0.86043  0.38830  0.81281  1.0000
  H   H1231     1.0  0.84168  0.37628  0.73654  1.0000
  H   H1232     1.0  0.87545  0.36096  0.73666  1.0000
  H   H1233     1.0  0.89062  0.38115  0.83405  1.0000
  H   H1234     1.0  0.85652  0.39610  0.83396  1.0000
  C   C773      1.0  0.68526  0.34474  0.80491  1.0000
  H   H1235     1.0  0.81367  0.29707  0.82666  1.0000
  H   H1236     1.0  0.80709  0.30098  0.78637  1.0000
  H   H1237     1.0  0.96601  0.27791  0.49201  1.0000
  H   H1238     1.0  0.85457  0.46463  0.92184  1.0000
  C   C774      1.0  0.69952  0.35007  0.77679  1.0000
  C   C775      1.0  0.84920  0.47193  0.94238  1.0000
  C   C776      1.0  0.98514  0.35644  0.62443  1.0000
  H   H1239     1.0  0.72062  0.36542  0.77595  1.0000
  H   H1240     1.0  0.86134  0.31237  0.76044  1.0000
  S   S316      1.0  0.82086  0.44892  0.85113  1.0000
  C   C777      1.0  0.94040  0.36409  0.52033  1.0000
  H   H1241     1.0  0.86263  0.27389  0.80846  1.0000
  C   C778      1.0  0.69921  0.48897  0.93337  1.0000
  H   H1242     1.0  0.69761  0.33970  0.72796  1.0000
  H   H1243     1.0  0.72625  0.48390  0.88445  1.0000
  H   H1244     1.0  0.69717  0.45833  0.86449  1.0000
  H   H1245     1.0  0.84657  0.28181  0.83951  1.0000
  H   H1246     1.0  0.94187  0.38340  0.51294  1.0000
  H   H1247     1.0  0.77727  0.36937  0.96846  1.0000
  C   C779      1.0  0.85431  0.28707  0.81518  1.0000
  C   C780      1.0  0.68643  0.33547  0.74963  1.0000
  N   N77       1.0  0.83294  0.28406  0.79326  1.0000
  H   H1248     1.0  0.73912  0.46941  0.81014  1.0000
  C   C781      1.0  0.98067  0.26332  0.74313  1.0000
  C   C782      1.0  0.81057  0.25585  0.79356  1.0000
  C   C783      1.0  0.82359  0.45657  0.95562  1.0000
  C   C784      1.0  0.96375  0.33918  0.52765  1.0000
  N   N78       1.0  0.68820  0.47740  0.90230  1.0000
  C   C785      1.0  0.68879  0.27845  0.80103  1.0000
  C   C786      1.0  0.79473  0.36660  0.97446  1.0000
  C   C787      1.0  0.70505  0.46737  0.88791  1.0000
  H   H1249     1.0  0.70564  0.45163  0.90260  1.0000
  H   H1250     1.0  0.87154  0.30816  0.81545  1.0000
  N   N79       1.0  0.66564  0.25093  0.79706  1.0000
  H   H1251     1.0  0.98294  0.32838  0.58951  1.0000
  C   C788      1.0  0.97649  0.37104  0.48530  1.0000
  C   C789      1.0  0.74461  0.48985  0.81613  1.0000
  H   H1252     1.0  0.82889  0.28948  0.74412  1.0000
  H   H1253     1.0  0.69908  0.47360  0.94941  1.0000
  H   H1254     1.0  0.67537  0.24860  0.74893  1.0000
  H   H1255     1.0  0.69447  0.28330  0.82607  1.0000
  C   C790      1.0  0.84428  0.29126  0.76139  1.0000
  H   H1256     1.0  0.79414  0.25284  0.77718  1.0000
  H   H1257     1.0  0.96095  0.26114  0.73975  1.0000
  H   H1258     1.0  0.74798  0.44095  0.49526  1.0000
  H   H1259     1.0  0.95499  0.33346  0.55155  1.0000
  H   H1260     1.0  0.70636  0.48544  0.80170  1.0000
  H   H1261     1.0  0.80165  0.24958  0.81731  1.0000
  H   H1262     1.0  0.78861  0.34521  0.96989  1.0000
  H   H1263     1.0  0.98359  0.33985  0.52777  1.0000
  C   C791      1.0  0.98653  0.38684  0.53864  1.0000
  H   H1264     1.0  0.98012  0.38288  0.56360  1.0000
  H   H1265     1.0  0.72932  0.45690  0.48243  1.0000
  Fe  Fe160     1.0  0.86286  0.59415  0.06956  1.0000
  S   S317      1.0  0.86407  0.58210  0.11901  1.0000
  S   S318      1.0  0.85410  0.62701  0.05574  1.0000
  Fe  Fe161     1.0  0.87736  0.55376  0.04300  1.0000
  S   S319      1.0  0.88063  0.53920  0.09080  1.0000
  H   H1266     1.0  0.76062  0.60829  0.06659  1.0000
  Fe  Fe162     1.0  0.84230  0.53988  0.10040  1.0000
  H   H1267     1.0  0.83899  0.70690  0.23607  1.0000
  Fe  Fe163     1.0  0.90253  0.58301  0.10487  1.0000
  S   S320      1.0  0.93611  0.60188  0.14145  1.0000
  S   S321      1.0  0.83774  0.55182  0.05186  1.0000
  S   S322      1.0  0.90250  0.59764  0.05617  1.0000
  C   C792      1.0  0.73955  0.55489  0.07188  1.0000
  S   S323      1.0  0.69223  0.70925  0.07111  1.0000
  Fe  Fe164     1.0  0.71233  0.66492  0.37069  1.0000
  S   S324      1.0  0.74520  0.68528  0.33537  1.0000
  C   C793      1.0  0.69149  0.68069  0.20630  1.0000
  H   H1268     1.0  0.79830  0.59304  0.03239  1.0000
  S   S325      1.0  0.72909  0.62485  0.31261  1.0000
  Fe  Fe165     1.0  0.75608  0.65406  0.34869  1.0000
  S   S326      1.0  0.80060  0.66759  0.34832  1.0000
  Fe  Fe166     1.0  0.71547  0.65452  0.30228  1.0000
  S   S327      1.0  0.72531  0.63556  0.38702  1.0000
  Fe  Fe167     1.0  0.95469  0.68232  0.44652  1.0000
  H   H1269     1.0  0.81999  0.61249  0.38894  1.0000
  N   N80       1.0  0.80184  0.70724  0.24318  1.0000
  Fe  Fe168     1.0  0.92034  0.62071  0.44003  1.0000
  H   H1270     1.0  0.70626  0.68059  0.19057  1.0000
  S   S328      1.0  0.91191  0.58725  0.40499  1.0000
  N   N81       1.0  0.76847  0.57532  0.06874  1.0000
  H   H1271     1.0  0.96721  0.67421  0.14121  1.0000
  S   S329      1.0  0.91650  0.65511  0.42031  1.0000
  C   C794      1.0  0.83028  0.72815  0.41776  1.0000
  S   S330      1.0  0.70411  0.68988  0.40495  1.0000
  C   C795      1.0  0.81535  0.66233  0.38175  1.0000
  C   C796      1.0  0.84308  0.67106  0.38167  1.0000
  C   C797      1.0  0.85561  0.66798  0.40841  1.0000
  C   C798      1.0  0.84044  0.65621  0.43538  1.0000
  C   C799      1.0  0.81276  0.64765  0.43550  1.0000
  C   C800      1.0  0.80018  0.65052  0.40871  1.0000
  H   H1272     1.0  0.85499  0.68049  0.36098  1.0000
  H   H1273     1.0  0.87706  0.67509  0.40831  1.0000
  H   H1274     1.0  0.67946  0.60910  0.27641  1.0000
  H   H1275     1.0  0.77879  0.64362  0.40901  1.0000
  S   S331      1.0  0.67258  0.74237  0.13648  1.0000
  N   N82       1.0  0.84090  0.59034  0.38349  1.0000
  H   H1276     1.0  0.79452  0.70346  0.19360  1.0000
  C   C801      1.0  0.78889  0.69082  0.21505  1.0000
  C   C802      1.0  0.85260  0.51363  0.43549  1.0000
  C   C803      1.0  0.87181  0.54133  0.43450  1.0000
  C   C804      1.0  0.88797  0.55237  0.40800  1.0000
  C   C805      1.0  0.88437  0.53548  0.38239  1.0000
  C   C806      1.0  0.69152  0.67433  0.23800  1.0000
  H   H1277     1.0  0.79878  0.57675  0.39105  1.0000
  C   C807      1.0  0.77657  0.57767  0.03554  1.0000
  H   H1278     1.0  0.89676  0.54383  0.36177  1.0000
  H   H1279     1.0  0.73793  0.70367  0.08909  1.0000
  C   C808      1.0  0.97071  0.62664  0.13633  1.0000
  C   C809      1.0  0.83154  0.72132  0.23954  1.0000
  S   S332      1.0  0.96082  0.64832  0.46235  1.0000
  H   H1280     1.0  0.96918  0.62906  0.08623  1.0000
  S   S333      1.0  0.68122  0.63591  0.33662  1.0000
  H   H1281     1.0  0.80095  0.63852  0.45635  1.0000
  C   C810      1.0  0.80759  0.74014  0.37871  1.0000
  H   H1282     1.0  0.84202  0.73410  0.26022  1.0000
  H   H1283     1.0  0.83207  0.71441  0.40081  1.0000
  H   H1284     1.0  0.83016  0.57590  0.43078  1.0000
  H   H1285     1.0  0.76770  0.60082  0.10514  1.0000
  H   H1286     1.0  0.77991  0.69602  0.43903  1.0000
  H   H1287     1.0  0.73777  0.73240  0.35967  1.0000
  C   C811      1.0  0.76656  0.51344  0.14380  1.0000
  C   C812      1.0  0.85106  0.64698  0.08495  1.0000
  C   C813      1.0  0.84494  0.63799  0.11586  1.0000
  C   C814      1.0  0.84130  0.65376  0.13834  1.0000
  C   C815      1.0  0.84417  0.67877  0.13020  1.0000
  C   C816      1.0  0.85064  0.68790  0.09939  1.0000
  C   C817      1.0  0.85377  0.67189  0.07677  1.0000
  H   H1288     1.0  0.84240  0.61868  0.12237  1.0000
  H   H1289     1.0  0.83618  0.64655  0.16213  1.0000
  H   H1290     1.0  0.85277  0.70709  0.09285  1.0000
  H   H1291     1.0  0.85834  0.67890  0.05284  1.0000
  Fe  Fe169     1.0  0.69684  0.60793  0.34986  1.0000
  H   H1292     1.0  0.85390  0.56208  0.37254  1.0000
  H   H1293     1.0  0.68922  0.56419  0.99888  1.0000
  H   H1294     1.0  0.96495  0.70149  0.15851  1.0000
  H   H1295     1.0  0.72199  0.70807  0.01162  1.0000
  H   H1296     1.0  0.97312  0.70253  0.11773  1.0000
  C   C818      1.0  0.86410  0.61227  0.36679  1.0000
  H   H1297     1.0  0.83818  0.73488  0.21887  1.0000
  H   H1298     1.0  0.90470  0.64901  0.09353  1.0000
  H   H1299     1.0  0.79452  0.61759  0.07731  1.0000
  S   S334      1.0  0.83884  0.69766  0.15887  1.0000
  H   H1300     1.0  0.87442  0.55403  0.45442  1.0000
  H   H1301     1.0  0.79529  0.67562  0.21119  1.0000
  H   H1302     1.0  0.73278  0.55231  0.09670  1.0000
  S   S335      1.0  0.71520  0.66532  0.25143  1.0000
  C   C819      1.0  0.96042  0.68909  0.13696  1.0000
  H   H1303     1.0  0.80682  0.58207  0.08563  1.0000
  C   C820      1.0  0.86492  0.50784  0.38324  1.0000
  H   H1304     1.0  0.93247  0.64399  0.10325  1.0000
  S   S336      1.0  0.99164  0.71940  0.42828  1.0000
  C   C821      1.0  0.84724  0.59184  0.41719  1.0000
  H   H1305     1.0  0.81172  0.59287  0.35391  1.0000
  H   H1306     1.0  0.80823  0.72584  0.36155  1.0000
  H   H1307     1.0  0.97919  0.62928  0.18577  1.0000
  Fe  Fe170     1.0  0.66190  0.71954  0.09131  1.0000
  C   C822      1.0  0.79291  0.72722  0.24722  1.0000
  C   C823      1.0  0.72541  0.72507  0.40798  1.0000
  C   C824      1.0  0.74064  0.51028  0.14174  1.0000
  H   H1308     1.0  0.67277  0.68778  0.00498  1.0000
  H   H1309     1.0  0.92637  0.70837  0.14531  1.0000
  H   H1310     1.0  0.76456  0.58377  0.02058  1.0000
  C   C825      1.0  0.98173  0.63674  0.10685  1.0000
  H   H1311     1.0  0.81921  0.54704  0.38405  1.0000
  N   N83       1.0  0.93136  0.67557  0.12901  1.0000
  H   H1312     1.0  0.73538  0.53481  0.06345  1.0000
  C   C826      1.0  0.74458  0.72491  0.08768  1.0000
  H   H1313     1.0  0.86026  0.61163  0.34123  1.0000
  H   H1314     1.0  0.93461  0.70989  0.10453  1.0000
  H   H1315     1.0  0.73343  0.51797  0.16024  1.0000
  C   C827      1.0  0.91544  0.65752  0.15491  1.0000
  S   S337      1.0  0.88547  0.53792  0.99810  1.0000
  H   H1316     1.0  0.85191  0.61156  0.42727  1.0000
  H   H1317     1.0  0.82968  0.56188  0.34583  1.0000
  H   H1318     1.0  0.86856  0.63236  0.37546  1.0000
  S   S338      1.0  0.85526  0.65154  0.46910  1.0000
  C   C828      1.0  0.84906  0.49672  0.40992  1.0000
  H   H1319     1.0  0.89344  0.64680  0.14956  1.0000
  C   C829      1.0  0.67122  0.66763  0.00381  1.0000
  C   C830      1.0  0.78489  0.56713  0.08753  1.0000
  C   C831      1.0  0.81676  0.59317  0.37910  1.0000
  H   H1320     1.0  0.77939  0.56515  0.11274  1.0000
  H   H1321     1.0  0.77372  0.55826  0.02639  1.0000
  C   C832      1.0  0.78155  0.70409  0.41496  1.0000
  H   H1322     1.0  0.86517  0.58953  0.42144  1.0000
  H   H1323     1.0  0.66761  0.65973  0.02820  1.0000
  Fe  Fe171     1.0  0.89552  0.65306  0.46535  1.0000
  H   H1324     1.0  0.80308  0.70131  0.29268  1.0000
  H   H1325     1.0  0.66194  0.51596  0.01448  1.0000
  H   H1326     1.0  0.91855  0.66887  0.17706  1.0000
  N   N84       1.0  0.69599  0.66948  0.99054  1.0000
  S   S339      1.0  0.80746  0.50499  0.12511  1.0000
  C   C833      1.0  0.77605  0.50338  0.12028  1.0000
  H   H1327     1.0  0.68984  0.63341  0.01344  1.0000
  H   H1328     1.0  0.92125  0.64191  0.15933  1.0000
  H   H1329     1.0  0.90129  0.68642  0.11793  1.0000
  H   H1330     1.0  0.78206  0.54741  0.07963  1.0000
  C   C834      1.0  0.83558  0.56415  0.37091  1.0000
  S   S340      1.0  0.67284  0.56182  0.34680  1.0000
  H   H1331     1.0  0.76646  0.67996  0.21695  1.0000
  C   C835      1.0  0.72596  0.73325  0.08012  1.0000
  H   H1332     1.0  0.72646  0.56042  0.05817  1.0000
  H   H1333     1.0  0.77914  0.52339  0.16390  1.0000
  C   C836      1.0  0.92645  0.65957  0.10019  1.0000
  C   C837      1.0  0.67656  0.54927  0.98183  1.0000
  N   N85       1.0  0.80620  0.73062  0.41116  1.0000
  C   C838      1.0  0.92310  0.69597  0.12400  1.0000
  H   H1334     1.0  0.87222  0.50432  0.22994  1.0000
  H   H1335     1.0  0.88279  0.61095  0.37012  1.0000
  H   H1336     1.0  0.77060  0.71724  0.25033  1.0000
  H   H1337     1.0  0.78605  0.73748  0.09968  1.0000
  H   H1338     1.0  0.77164  0.67836  0.27408  1.0000
  H   H1339     1.0  0.93807  0.67243  0.08006  1.0000
  C   C839      1.0  0.77298  0.60163  0.07996  1.0000
  H   H1340     1.0  0.71665  0.72460  0.45696  1.0000
  H   H1341     1.0  0.76295  0.70524  0.41045  1.0000
  C   C840      1.0  0.79396  0.68957  0.27093  1.0000
  H   H1342     1.0  0.80065  0.67443  0.26898  1.0000
  H   H1343     1.0  0.73854  0.68949  0.00109  1.0000
  H   H1344     1.0  0.84069  0.50521  0.45640  1.0000
  H   H1345     1.0  0.78138  0.68908  0.39842  1.0000
  H   H1346     1.0  0.85333  0.50967  0.16440  1.0000
  C   C841      1.0  0.69314  0.64239  0.98967  1.0000
  H   H1347     1.0  0.83076  0.49768  0.01727  1.0000
  C   C842      1.0  0.66847  0.59479  0.25716  1.0000
  C   C843      1.0  0.72367  0.49653  0.11651  1.0000
  H   H1348     1.0  0.83904  0.49815  0.21975  1.0000
  C   C844      1.0  0.86594  0.49999  0.16738  1.0000
  H   H1349     1.0  0.88654  0.51601  0.17444  1.0000
  H   H1350     1.0  0.67605  0.60625  0.23490  1.0000
  C   C845      1.0  0.72783  0.73696  0.43721  1.0000
  H   H1351     1.0  0.67210  0.69143  0.17008  1.0000
  C   C846      1.0  0.67234  0.67454  0.25811  1.0000
  H   H1352     1.0  0.67243  0.67010  0.28266  1.0000
  C   C847      1.0  0.67215  0.68685  0.19463  1.0000
  C   C848      1.0  0.71940  0.68750  0.01026  1.0000
  H   H1353     1.0  0.80269  0.74030  0.26793  1.0000
  C   C849      1.0  0.73988  0.74135  0.38248  1.0000
  H   H1354     1.0  0.67439  0.57901  0.25782  1.0000
  H   H1355     1.0  0.78971  0.74219  0.37293  1.0000
  H   H1356     1.0  0.82942  0.71988  0.44157  1.0000
  C   C850      1.0  0.98746  0.63689  0.16283  1.0000
  H   H1357     1.0  0.79844  0.74081  0.22663  1.0000
  H   H1358     1.0  0.71676  0.67996  0.03474  1.0000
  Fe  Fe172     1.0  0.85296  0.74156  0.14902  1.0000
  H   H1359     1.0  0.95365  0.73727  0.44511  1.0000
  C   C851      1.0  0.86162  0.50599  0.98312  1.0000
  C   C852      1.0  0.77179  0.74400  0.09378  1.0000
  C   C853      1.0  0.66109  0.52200  0.99073  1.0000
  H   H1360     1.0  0.80466  0.74371  0.45787  1.0000
  H   H1361     1.0  0.86252  0.49507  0.36346  1.0000
  H   H1362     1.0  0.70243  0.70087  0.95821  1.0000
  C   C854      1.0  0.87903  0.55875  0.91443  1.0000
  Fe  Fe173     1.0  0.71700  0.57659  0.83122  1.0000
  S   S341      1.0  0.74253  0.59887  0.87253  1.0000
  S   S342      1.0  0.70969  0.53670  0.81150  1.0000
  Fe  Fe174     1.0  0.69497  0.61553  0.82337  1.0000
  S   S343      1.0  0.71832  0.64041  0.86498  1.0000
  Fe  Fe175     1.0  0.75296  0.63671  0.84560  1.0000
  S   S344      1.0  0.79559  0.67269  0.84601  1.0000
  Fe  Fe176     1.0  0.70606  0.60065  0.88870  1.0000
  S   S345      1.0  0.73060  0.61413  0.80278  1.0000
  Fe  Fe177     1.0  0.93733  0.64782  0.50461  1.0000
  S   S346      1.0  0.94913  0.64764  0.55526  1.0000
  H   H1363     1.0  0.91025  0.74176  0.79340  1.0000
  H   H1364     1.0  0.86017  0.69708  0.76025  1.0000
  C   C855      1.0  0.70018  0.68042  0.95844  1.0000
  H   H1365     1.0  0.79737  0.54795  0.84359  1.0000
  H   H1366     1.0  0.71868  0.68201  0.94770  1.0000
  H   H1367     1.0  0.89856  0.57136  0.90219  1.0000
  H   H1368     1.0  0.71360  0.57119  0.75479  1.0000
  C   C856      1.0  0.80948  0.69362  0.81289  1.0000
  C   C857      1.0  0.83439  0.71759  0.81564  1.0000
  C   C858      1.0  0.86407  0.52378  0.87526  1.0000
  C   C859      1.0  0.83398  0.72667  0.76017  1.0000
  C   C860      1.0  0.80891  0.70294  0.75754  1.0000
  C   C861      1.0  0.79663  0.68654  0.78379  1.0000
  H   H1369     1.0  0.84436  0.72325  0.83816  1.0000
  H   H1370     1.0  0.66594  0.54824  0.68754  1.0000
  H   H1371     1.0  0.77743  0.66821  0.78140  1.0000
  H   H1372     1.0  0.88235  0.54621  0.93167  1.0000
  C   C862      1.0  0.85381  0.55957  0.86962  1.0000
  H   H1373     1.0  0.89608  0.69147  0.71361  1.0000
  C   C863      1.0  0.73321  0.52570  0.81833  1.0000
  C   C864      1.0  0.75879  0.54305  0.83065  1.0000
  C   C865      1.0  0.77743  0.53407  0.83488  1.0000
  H   H1374     1.0  0.69698  0.59608  0.70141  1.0000
  C   C866      1.0  0.67576  0.55727  0.95093  1.0000
  H   H1375     1.0  0.87047  0.67239  0.76331  1.0000
  H   H1376     1.0  0.76448  0.56362  0.83617  1.0000
  S   S347      1.0  0.67971  0.57613  0.84881  1.0000
  H   H1377     1.0  0.87422  0.57235  0.92807  1.0000
  H   H1378     1.0  0.97442  0.67364  0.61278  1.0000
  C   C867      1.0  0.84651  0.73421  0.78946  1.0000
  H   H1379     1.0  0.99302  0.73914  0.52687  1.0000
  C   C868      1.0  0.69848  0.55794  0.73712  1.0000
  N   N86       1.0  0.85714  0.54196  0.89226  1.0000
  H   H1380     1.0  0.72034  0.50597  0.93161  1.0000
  H   H1381     1.0  0.84744  0.57281  0.88139  1.0000
  S   S348      1.0  0.79538  0.49782  0.83143  1.0000
  H   H1382     1.0  0.88821  0.50779  0.94629  1.0000
  S   S349      1.0  0.67140  0.62304  0.78527  1.0000
  H   H1383     1.0  0.84793  0.51094  0.85825  1.0000
  H   H1384     1.0  0.97499  0.73536  0.69484  1.0000
  H   H1385     1.0  0.86649  0.50998  0.89148  1.0000
  C   C869      1.0  0.66246  0.55933  0.76491  1.0000
  C   C870      1.0  0.83164  0.52578  0.90964  1.0000
  C   C871      1.0  0.87622  0.69339  0.76962  1.0000
  H   H1386     1.0  0.92196  0.72619  0.71199  1.0000
  H   H1387     1.0  0.83345  0.51226  0.92692  1.0000
  S   S350      1.0  0.69516  0.59163  0.94019  1.0000
  H   H1388     1.0  0.79904  0.69700  0.73499  1.0000
  H   H1389     1.0  0.67576  0.62827  0.97481  1.0000
  H   H1390     1.0  0.70173  0.60624  0.74169  1.0000
  H   H1391     1.0  0.81472  0.51274  0.89363  1.0000
  H   H1392     1.0  0.83824  0.54752  0.85178  1.0000
  H   H1393     1.0  0.87564  0.69456  0.79559  1.0000
  H   H1394     1.0  0.67663  0.57314  0.78279  1.0000
  N   N87       1.0  0.90306  0.71301  0.75697  1.0000
  C   C872      1.0  0.92349  0.70636  0.76833  1.0000
  C   C873      1.0  0.91044  0.74038  0.76745  1.0000
  H   H1395     1.0  0.97129  0.60089  0.60775  1.0000
  H   H1396     1.0  0.67044  0.59719  0.72298  1.0000
  C   C874      1.0  0.77054  0.50751  0.82749  1.0000
  H   H1397     1.0  0.87290  0.57260  0.85676  1.0000
  C   C875      1.0  0.99014  0.67565  0.59703  1.0000
  H   H1398     1.0  0.69115  0.53686  0.74487  1.0000
  H   H1399     1.0  0.88321  0.53519  0.86190  1.0000
  C   C876      1.0  0.98343  0.66573  0.56638  1.0000
  H   H1400     1.0  0.68286  0.66730  0.94293  1.0000
  H   H1401     1.0  0.88711  0.71740  0.71313  1.0000
  H   H1402     1.0  0.94405  0.72096  0.75952  1.0000
  C   C877      1.0  0.68834  0.49838  0.88206  1.0000
  C   C878      1.0  0.90202  0.71195  0.72242  1.0000
  C   C879      1.0  0.68678  0.59197  0.72452  1.0000
  C   C880      1.0  0.72612  0.49902  0.81128  1.0000
  H   H1403     1.0  0.70930  0.56103  0.71455  1.0000
  H   H1404     1.0  0.97036  0.61609  0.66122  1.0000
  H   H1405     1.0  0.92461  0.70685  0.79433  1.0000
  H   H1406     1.0  0.82567  0.53875  0.92269  1.0000
  C   C881      1.0  0.86823  0.49633  0.95634  1.0000
  S   S351      1.0  0.89720  0.61722  0.48387  1.0000
  H   H1407     1.0  0.91886  0.68599  0.76050  1.0000
  S   S352      1.0  0.93341  0.68329  0.48999  1.0000
  H   H1408     1.0  0.67550  0.50612  0.89176  1.0000
  H   H1409     1.0  0.97297  0.57438  0.65359  1.0000
  H   H1410     1.0  0.70907  0.51594  0.87940  1.0000
  N   N88       1.0  0.67604  0.56370  0.73434  1.0000
  H   H1411     1.0  0.68699  0.49683  0.94472  1.0000
  H   H1412     1.0  0.71144  0.64298  0.97970  1.0000
  C   C882      1.0  0.99377  0.61199  0.60866  1.0000
  C   C883      1.0  0.99284  0.62756  0.66089  1.0000
  H   H1413     1.0  0.70199  0.87882  0.47756  1.0000
  S   S353      1.0  0.86597  0.76597  0.10485  1.0000
  H   H1414     1.0  0.70543  0.92916  0.98238  1.0000
  Fe  Fe178     1.0  0.86262  0.78967  0.18926  1.0000
  S   S354      1.0  0.87804  0.81857  0.14866  1.0000
  S   S355      1.0  0.85213  0.79300  0.23972  1.0000
  Fe  Fe179     1.0  0.84269  0.78531  0.12285  1.0000
  S   S356      1.0  0.81463  0.79616  0.09770  1.0000
  Fe  Fe180     1.0  0.90069  0.79735  0.13366  1.0000
  S   S357      1.0  0.94203  0.81035  0.11145  1.0000
  S   S358      1.0  0.82643  0.75796  0.16400  1.0000
  S   S359      1.0  0.88840  0.77145  0.17702  1.0000
  Fe  Fe181     1.0  0.80870  0.88104  0.33585  1.0000
  S   S360      1.0  0.83123  0.88357  0.38028  1.0000
  S   S361      1.0  0.82284  0.88087  0.28622  1.0000
  Fe  Fe182     1.0  0.76064  0.87737  0.37119  1.0000
  S   S362      1.0  0.77907  0.87856  0.41754  1.0000
  S   S363      1.0  0.71974  0.87423  0.36563  1.0000
  Fe  Fe183     1.0  0.81761  0.91229  0.39747  1.0000
  S   S364      1.0  0.83750  0.94658  0.43326  1.0000
  Fe  Fe184     1.0  0.79077  0.85008  0.39622  1.0000
  S   S365      1.0  0.78521  0.81435  0.42466  1.0000
  S   S366      1.0  0.79821  0.91239  0.35166  1.0000
  S   S367      1.0  0.76916  0.84612  0.35120  1.0000
  N   N89       1.0  0.76457  0.79371  0.18675  1.0000
  H   H1415     1.0  0.98758  0.82530  0.07175  1.0000
  H   H1416     1.0  0.72722  0.76949  0.21131  1.0000
  H   H1417     1.0  0.73977  0.96520  0.40184  1.0000
  C   C884      1.0  0.97629  0.86553  0.12016  1.0000
  C   C885      1.0  0.70223  0.87734  0.39789  1.0000
  H   H1418     1.0  0.71135  0.81099  0.43680  1.0000
  H   H1419     1.0  0.78892  0.83597  0.19690  1.0000
  H   H1420     1.0  0.70477  0.96925  0.07512  1.0000
  C   C886      1.0  0.71553  0.81295  0.41125  1.0000
  C   C887      1.0  0.71055  0.87734  0.42866  1.0000
  C   C888      1.0  0.97741  0.78070  0.44764  1.0000
  H   H1421     1.0  0.70507  0.81763  0.35117  1.0000
  H   H1422     1.0  0.72833  0.87584  0.43323  1.0000
  C   C889      1.0  0.76029  0.78086  0.41642  1.0000
  C   C890      1.0  0.75713  0.76935  0.38664  1.0000
  H   H1423     1.0  0.75317  0.98225  0.08047  1.0000
  H   H1424     1.0  0.78404  0.81426  0.22937  1.0000
  H   H1425     1.0  0.73786  0.75081  0.18742  1.0000
  H   H1426     1.0  0.79385  0.95140  0.45755  1.0000
  H   H1427     1.0  0.76879  0.78181  0.36719  1.0000
  C   C891      1.0  0.77304  0.94817  0.45493  1.0000
  C   C892      1.0  0.78062  0.77150  0.09130  1.0000
  H   H1428     1.0  0.84921  0.74796  0.41611  1.0000
  H   H1429     1.0  0.76399  0.97502  0.98182  1.0000
  H   H1430     1.0  0.66699  0.80375  0.05811  1.0000
  C   C893      1.0  0.73469  0.76074  0.07848  1.0000
  C   C894      1.0  0.76202  0.77976  0.08351  1.0000
  H   H1431     1.0  0.74242  0.93658  0.05655  1.0000
  H   H1432     1.0  0.72052  0.76734  0.07242  1.0000
  H   H1433     1.0  0.76877  0.80100  0.08140  1.0000
  C   C895      1.0  0.84358  0.81731  0.25194  1.0000
  C   C896      1.0  0.83460  0.81637  0.28274  1.0000
  C   C897      1.0  0.82803  0.83561  0.29350  1.0000
  C   C898      1.0  0.83053  0.85607  0.27354  1.0000
  C   C899      1.0  0.83919  0.85679  0.24260  1.0000
  C   C900      1.0  0.84558  0.83743  0.23177  1.0000
  H   H1434     1.0  0.83306  0.80093  0.29851  1.0000
  H   H1435     1.0  0.82142  0.83489  0.31736  1.0000
  H   H1436     1.0  0.84130  0.87262  0.22707  1.0000
  H   H1437     1.0  0.85263  0.83846  0.20806  1.0000
  C   C901      1.0  0.66926  0.79903  0.39842  1.0000
  C   C902      1.0  0.97145  0.84205  0.10468  1.0000
  C   C903      1.0  0.66383  0.83737  0.04030  1.0000
  C   C904      1.0  0.75100  0.79774  0.15952  1.0000
  H   H1438     1.0  0.96133  0.86491  0.13616  1.0000
  H   H1439     1.0  0.75477  0.76497  0.22386  1.0000
  C   C905      1.0  0.76359  0.93053  0.00290  1.0000
  N   N90       1.0  0.74193  0.93734  0.00622  1.0000
  H   H1440     1.0  0.73776  0.96529  0.44379  1.0000
  H   H1441     1.0  0.77343  0.95643  0.37616  1.0000
  C   C906      1.0  0.80531  0.75004  0.43314  1.0000
  H   H1442     1.0  0.66521  0.83275  0.01607  1.0000
  H   H1443     1.0  0.82591  0.76016  0.37496  1.0000
  C   C907      1.0  0.74545  0.76454  0.44151  1.0000
  H   H1444     1.0  0.67472  0.81967  0.39055  1.0000
  H   H1445     1.0  0.96030  0.78313  0.45329  1.0000
  C   C908      1.0  0.77397  0.81680  0.20836  1.0000
  H   H1446     1.0  0.73372  0.80035  0.16677  1.0000
  C   C909      1.0  0.72818  0.92735  0.03662  1.0000
  H   H1447     1.0  0.71537  0.79280  0.35442  1.0000
  C   C910      1.0  0.67229  0.88082  0.44837  1.0000
  C   C911      1.0  0.67896  0.87914  0.39248  1.0000
  C   C912      1.0  0.99122  0.84330  0.08401  1.0000
  H   H1448     1.0  0.73806  0.97278  0.00772  1.0000
  H   H1449     1.0  0.74800  0.77318  0.46463  1.0000
  H   H1450     1.0  0.80279  0.80996  0.16298  1.0000
  H   H1451     1.0  0.71258  0.90220  0.98142  1.0000
  C   C913      1.0  0.85506  0.98235  0.42986  1.0000
  C   C914      1.0  0.78801  0.79158  0.17594  1.0000
  H   H1452     1.0  0.72198  0.83402  0.40455  1.0000
  H   H1453     1.0  0.76521  0.81581  0.14574  1.0000
  H   H1454     1.0  0.73306  0.80991  0.40727  1.0000
  C   C915      1.0  0.69558  0.87901  0.45379  1.0000
  C   C916      1.0  0.66411  0.88100  0.41759  1.0000
  H   H1455     1.0  0.74278  0.78016  0.14342  1.0000
  C   C917      1.0  0.97359  0.75473  0.44297  1.0000
  S   S368      1.0  0.66231  0.94786  0.00641  1.0000
  H   H1456     1.0  0.75694  0.81936  0.21672  1.0000
  C   C918      1.0  0.79003  0.98970  0.42605  1.0000
  N   N91       1.0  0.77031  0.96052  0.42581  1.0000
  C   C919      1.0  0.98053  0.88028  0.46781  1.0000
  C   C920      1.0  0.69855  0.79680  0.35937  1.0000
  S   S369      1.0  0.66379  0.80642  0.12594  1.0000
  H   H1457     1.0  0.85444  0.98808  0.47963  1.0000
  C   C921      1.0  0.74529  0.76865  0.20311  1.0000
  H   H1458     1.0  0.96689  0.86559  0.45002  1.0000
  C   C922      1.0  0.66484  0.82091  0.06407  1.0000
  C   C923      1.0  0.74258  0.95620  0.42358  1.0000
  H   H1459     1.0  0.67846  0.76285  0.42827  1.0000
  C   C924      1.0  0.68354  0.76591  0.40294  1.0000
  C   C925      1.0  0.75378  0.96688  0.00466  1.0000
  H   H1460     1.0  0.70006  0.76128  0.39899  1.0000
  H   H1461     1.0  0.72724  0.93437  0.42323  1.0000
  H   H1462     1.0  0.67235  0.87907  0.36874  1.0000
  H   H1463     1.0  0.82318  0.77054  0.43038  1.0000
  H   H1464     1.0  0.66398  0.79755  0.42367  1.0000
  C   C926      1.0  0.66334  0.82690  0.09543  1.0000
  H   H1465     1.0  0.79653  0.95117  0.39940  1.0000
  C   C927      1.0  0.66107  0.84953  0.10284  1.0000
  H   H1466     1.0  0.78170  0.77430  0.15969  1.0000
  H   H1467     1.0  0.77906  0.94001  0.02164  1.0000
  H   H1468     1.0  0.68096  0.78274  0.34481  1.0000
  H   H1469     1.0  0.71149  0.93188  0.03972  1.0000
  H   H1470     1.0  0.78709  0.75191  0.42916  1.0000
  H   H1471     1.0  0.75890  0.92606  0.45523  1.0000
  H   H1472     1.0  0.76918  0.97725  0.02334  1.0000
  N   N92       1.0  0.69169  0.79364  0.39301  1.0000
  H   H1473     1.0  0.79908  0.78898  0.19586  1.0000
  H   H1474     1.0  0.71893  0.90508  0.03854  1.0000
  H   H1475     1.0  0.85930  0.98385  0.37982  1.0000
  H   H1476     1.0  0.66556  0.75075  0.38970  1.0000
  H   H1477     1.0  0.76146  0.92583  0.39796  1.0000
  C   C928      1.0  0.72035  0.99017  0.07341  1.0000
  C   C929      1.0  0.77564  0.94794  0.39864  1.0000
  H   H1478     1.0  0.75536  0.90839  0.00405  1.0000
  H   H1479     1.0  0.76879  0.95689  0.47593  1.0000
  H   H1480     1.0  0.98325  0.90037  0.46186  1.0000
  C   C930      1.0  0.66069  0.85949  0.04772  1.0000
  H   H1481     1.0  0.81117  0.99359  0.42766  1.0000
  Fe  Fe185     1.0  0.79053  0.94313  0.86835  1.0000
  S   S370      1.0  0.80021  0.95710  0.91876  1.0000
  Fe  Fe186     1.0  0.74257  0.90554  0.82814  1.0000
  S   S371      1.0  0.76545  0.92137  0.78347  1.0000
  S   S372      1.0  0.69894  0.87277  0.83305  1.0000
  Fe  Fe187     1.0  0.79950  0.91916  0.80766  1.0000
  S   S373      1.0  0.81962  0.90459  0.77229  1.0000
  Fe  Fe188     1.0  0.78264  0.96209  0.80555  1.0000
  S   S374      1.0  0.77507  0.90051  0.85142  1.0000
  S   S375      1.0  0.75639  0.94669  0.84792  1.0000
  Fe  Fe189     1.0  0.91774  0.84307  0.74283  1.0000
  S   S376      1.0  0.89278  0.82076  0.70093  1.0000
  S   S377      1.0  0.91040  0.87036  0.77543  1.0000
  Fe  Fe190     1.0  0.94960  0.81269  0.74063  1.0000
  S   S378      1.0  0.92587  0.78777  0.69980  1.0000
  H   H1482     1.0  0.80994  0.78975  0.73262  1.0000
  Fe  Fe191     1.0  0.93191  0.82677  0.68021  1.0000
  S   S379      1.0  0.94352  0.83223  0.62859  1.0000
  Fe  Fe192     1.0  0.88960  0.78424  0.72454  1.0000
  C   C931      1.0  0.98641  0.74939  0.71329  1.0000
  S   S380      1.0  0.95738  0.85211  0.72033  1.0000
  S   S381      1.0  0.91284  0.80604  0.76716  1.0000
  H   H1483     1.0  0.85572  0.81885  0.75448  1.0000
  N   N93       1.0  0.82001  0.79427  0.78154  1.0000
  H   H1484     1.0  0.93103  0.75560  0.75947  1.0000
  H   H1485     1.0  0.99317  0.82259  0.69831  1.0000
  H   H1486     1.0  0.85900  0.96537  0.77875  1.0000
  H   H1487     1.0  0.86573  0.95382  0.74299  1.0000
  H   H1488     1.0  0.73187  0.93130  0.95728  1.0000
  H   H1489     1.0  0.97214  0.82467  0.57823  1.0000
  H   H1490     1.0  0.73490  0.97029  0.77573  1.0000
  H   H1491     1.0  0.78226  0.76890  0.75819  1.0000
  H   H1492     1.0  0.95493  0.83018  0.48871  1.0000
  C   C932      1.0  0.84431  0.89437  0.77433  1.0000
  C   C933      1.0  0.85886  0.89673  0.80159  1.0000
  C   C934      1.0  0.87891  0.88919  0.80151  1.0000
  C   C935      1.0  0.88440  0.87885  0.77439  1.0000
  C   C936      1.0  0.86956  0.87612  0.74724  1.0000
  C   C937      1.0  0.84982  0.88405  0.74719  1.0000
  H   H1493     1.0  0.85496  0.90472  0.82262  1.0000
  H   H1494     1.0  0.89036  0.89151  0.82260  1.0000
  H   H1495     1.0  0.87373  0.86849  0.72610  1.0000
  H   H1496     1.0  0.83876  0.88224  0.72591  1.0000
  C   C938      1.0  0.68465  0.85076  0.80107  1.0000
  C   C939      1.0  0.84914  0.80557  0.77543  1.0000
  H   H1497     1.0  0.98116  0.88632  0.54703  1.0000
  H   H1498     1.0  0.79259  0.80878  0.79191  1.0000
  H   H1499     1.0  0.86562  0.75260  0.79201  1.0000
  C   C940      1.0  0.69023  0.86037  0.77036  1.0000
  C   C941      1.0  0.97659  0.85308  0.61393  1.0000
  C   C942      1.0  0.97928  0.76835  0.72327  1.0000
  H   H1500     1.0  0.70464  0.88133  0.76598  1.0000
  C   C943      1.0  0.69881  0.97862  0.90855  1.0000
  S   S382      1.0  0.81805  0.96128  0.82703  1.0000
  H   H1501     1.0  0.80824  0.76069  0.75051  1.0000
  H   H1502     1.0  0.92844  0.85463  0.48563  1.0000
  C   C944      1.0  0.81601  0.99209  0.92617  1.0000
  C   C945      1.0  0.98529  0.84441  0.58797  1.0000
  H   H1503     1.0  0.96286  0.76924  0.71205  1.0000
  C   C946      1.0  0.66573  0.82360  0.80651  1.0000
  H   H1504     1.0  0.66648  0.79619  0.61033  1.0000
  H   H1505     1.0  0.85409  0.78939  0.77120  1.0000
  C   C947      1.0  0.81239  0.77734  0.80995  1.0000
  H   H1506     1.0  0.82168  0.94514  0.72251  1.0000
  H   H1507     1.0  0.68016  0.85084  0.72167  1.0000
  S   S383      1.0  0.98363  0.80869  0.76250  1.0000
  C   C948      1.0  0.99307  0.78566  0.74810  1.0000
  C   C949      1.0  0.81423  0.81646  0.78617  1.0000
  H   H1508     1.0  0.81551  0.95749  0.75799  1.0000
  H   H1509     1.0  0.86366  0.97417  0.69258  1.0000
  C   C950      1.0  0.80437  0.77768  0.75455  1.0000
  H   H1510     1.0  0.79051  0.76847  0.81532  1.0000
  C   C951      1.0  0.82491  0.96373  0.73459  1.0000
  H   H1511     1.0  0.70837  0.96758  0.91884  1.0000
  C   C952      1.0  0.67628  0.84310  0.74531  1.0000
  H   H1512     1.0  0.86172  0.81797  0.79542  1.0000
  N   N94       1.0  0.85390  0.98385  0.73744  1.0000
  H   H1513     1.0  0.95773  0.83764  0.52987  1.0000
  H   H1514     1.0  0.89616  0.74649  0.75801  1.0000
  H   H1515     1.0  0.81518  0.98711  0.97619  1.0000
  C   C953      1.0  0.96730  0.84543  0.50671  1.0000
  H   H1516     1.0  0.81637  0.76031  0.80716  1.0000
  H   H1517     1.0  0.94433  0.88940  0.49699  1.0000
  H   H1518     1.0  0.82399  0.78919  0.83072  1.0000
  H   H1519     1.0  0.82663  0.83011  0.80547  1.0000
  H   H1520     1.0  0.70039  0.98459  0.77378  1.0000
  H   H1521     1.0  0.81357  0.97186  0.72174  1.0000
  C   C954      1.0  0.86779  0.97201  0.75497  1.0000
  C   C955      1.0  0.74082  0.99122  0.77919  1.0000
  H   H1522     1.0  0.81886  0.82904  0.76476  1.0000
  H   H1523     1.0  0.67326  0.94602  0.85977  1.0000
  C   C956      1.0  0.98864  0.89199  0.52260  1.0000
  H   H1524     1.0  0.98740  0.84669  0.50697  1.0000
  H   H1525     1.0  0.88970  0.98659  0.75786  1.0000
  H   H1526     1.0  0.66159  0.81600  0.83022  1.0000
  C   C957      1.0  0.86581  0.99183  0.70590  1.0000
  H   H1527     1.0  0.93460  0.86370  0.52627  1.0000
  H   H1528     1.0  0.70064  0.96255  0.83243  1.0000
  H   H1529     1.0  0.98731  0.88547  0.64644  1.0000
  H   H1530     1.0  0.70474  0.94705  0.86682  1.0000
  H   H1531     1.0  0.67656  0.96601  0.91218  1.0000
  C   C958      1.0  0.94312  0.86981  0.50228  1.0000
  N   N95       1.0  0.96991  0.87189  0.49985  1.0000
  C   C959      1.0  0.69559  0.95890  0.85776  1.0000
  N   N96       1.0  0.70552  0.98446  0.87503  1.0000
  H   H1532     1.0  0.99139  0.91230  0.51798  1.0000
  H   H1533     1.0  0.67011  0.98730  0.86509  1.0000
  S   S384      1.0  0.84937  0.74540  0.72596  1.0000
  H   H1534     1.0  0.77420  0.93757  0.98003  1.0000
  H   H1535     1.0  0.66577  0.99423  0.97368  1.0000
  H   H1536     1.0  0.74571  0.99057  0.88033  1.0000
  C   C960      1.0  0.72214  0.92454  0.98062  1.0000
