data_image0
_chemical_formula_structural       Fe2H2SFeS4HCH3CH6CH2SCH2FeC2S2C2Fe2SHCFeNSCH2CH3CH3CHC2SCHSCHCSH3CHC4H3CHSFeCHC2HCSH3CHNCSCHCH2CFeCHNHCHSH3C3HSHCSH3C2HCH3FeHCH2CSCHC4H6CHNH4CSC2H4FeH2C2H3CH2CH2CH4CHCH4SCSC2HNCSCFeNC2HCSHCFeHS2HCFeC4H3CS2H2CSCH5CSHC2H2NHSH2CH2FeH2CFeH4SHSHC6H2SHFe2C2HNCH2FeHCH2C4H2CHSHSH2SCH2C3NH2NCH2CH3CSHCHSH2FeH2C2SFeHFeC3H2CHCH2FeH3S2HSC7H9NHCHCSFeH2C2HCH2SH3NHCFeHCFeHCHCH2CHSC2HCNHCSH2SCHC2H2CHCHCH2C2FeSHCHSHCFeH2S2H4S2CHNCH3C2HC4H3SH3FeC2HC2H3FeHSHC2S2HCH2FeC2SCHCNHFeHSCHFeC2HCH7CH4SH3CHCH2SHCH2SH3CSCNFeHCHFeC2H2SCH2CHSFeCH6CHC2H3C2HFeHC2H2CH3CSC2HSCHCHSCH3SCH2SFeHCHCH3N2HCH2CH2CH2CH3FeH3CNCH3CSHCH2FeHCSHCH2SH2SC2SCH2FeSC5H3CH3C3H2SFeH6NH4CS2HNSHCH5CHCH3C2FeHC2H2CH3FeH2CHC3SFeSCHSH2SHSHCSCNC2HS2CHNHNH2FeHCH3CH3C3SCSHNH3CHSHCH2FeCHCSCHFe2HFeHNCFeCH4S2HCH2C3SH2C2SCHCSCHCH6SH2CHSH2CH2CHCHFeSHCFeSH2NCSCHCHC3H2SH2SFeCSC3H2CH2FeHC2S2HSHC3H2CSFeH4NHSH2SFeHCFeH4C3HC2H2CH5CHSH3CFeH2CSC3HCSCNS2H2CHSHCHCNH2C2FeHSFeH2CSHSH2CHC5S2H2CH8FeNHCHSCHC2NHSH2C2HCH2CH5SHFeCH2CHFeH6SC
_chemical_formula_sum              "Fe64 H512 S128 C320 N32"
_cell_length_a       19.9767
_cell_length_b       33.3658
_cell_length_c       39.9907
_cell_angle_alpha    90.0454
_cell_angle_beta     90.2669
_cell_angle_gamma    89.2719

_space_group_name_H-M_alt    "P 1"
_space_group_IT_number       1

loop_
  _space_group_symop_operation_xyz
  'x, y, z'

loop_
  _atom_site_type_symbol
  _atom_site_label
  _atom_site_symmetry_multiplicity
  _atom_site_fract_x
  _atom_site_fract_y
  _atom_site_fract_z
  _atom_site_occupancy
  Fe  Fe1       1.0  0.54329  0.07913  0.22859  1.0000
  Fe  Fe2       1.0  0.45683  0.15295  0.23444  1.0000
  H   H1        1.0  0.58207  0.38785  0.17768  1.0000
  H   H2        1.0  0.37370  0.11750  0.13186  1.0000
  S   S1        1.0  0.53170  0.12481  0.26957  1.0000
  Fe  Fe3       1.0  0.44567  0.08684  0.28603  1.0000
  S   S2        1.0  0.46414  0.03834  0.24824  1.0000
  S   S3        1.0  0.47568  0.11075  0.19207  1.0000
  S   S4        1.0  0.43854  0.21801  0.22441  1.0000
  S   S5        1.0  0.64465  0.05752  0.21225  1.0000
  H   H3        1.0  0.59080  0.29593  0.18343  1.0000
  C   C1        1.0  0.42087  0.21899  0.29222  1.0000
  H   H4        1.0  0.78322  0.07607  0.26532  1.0000
  H   H5        1.0  0.63578  0.29491  0.22238  1.0000
  H   H6        1.0  0.40849  0.51679  0.15546  1.0000
  C   C2        1.0  0.61504  0.31511  0.20265  1.0000
  H   H7        1.0  0.64410  0.38569  0.23136  1.0000
  H   H8        1.0  0.62136  0.35037  0.26308  1.0000
  H   H9        1.0  0.51552  0.35330  0.16992  1.0000
  H   H10       1.0  0.44708  0.19052  0.29267  1.0000
  H   H11       1.0  0.43377  0.04495  0.15223  1.0000
  H   H12       1.0  0.65807  0.33023  0.19054  1.0000
  C   C3        1.0  0.41012  0.23908  0.26191  1.0000
  H   H13       1.0  0.52818  0.30322  0.25290  1.0000
  H   H14       1.0  0.79221  0.05691  0.32559  1.0000
  S   S6        1.0  0.40889  0.06983  0.33704  1.0000
  C   C4        1.0  0.54116  0.37085  0.18975  1.0000
  H   H15       1.0  0.75815  0.47790  0.13266  1.0000
  H   H16       1.0  0.50426  0.39313  0.19949  1.0000
  Fe  Fe4       1.0  0.39437  0.42593  0.30450  1.0000
  C   C5        1.0  0.57378  0.51674  0.25003  1.0000
  C   C6        1.0  0.60136  0.36919  0.24228  1.0000
  S   S7        1.0  0.72142  0.40742  0.17402  1.0000
  S   S8        1.0  0.44749  0.38474  0.34001  1.0000
  C   C7        1.0  0.42140  0.47936  0.19869  1.0000
  C   C8        1.0  0.76236  0.37980  0.14268  1.0000
  Fe  Fe5       1.0  0.79914  0.51200  0.25480  1.0000
  Fe  Fe6       1.0  0.39525  0.07399  0.21520  1.0000
  S   S9        1.0  0.38072  0.47574  0.34167  1.0000
  H   H17       1.0  0.47368  0.34492  0.24335  1.0000
  C   C9        1.0  0.72454  0.36031  0.11816  1.0000
  Fe  Fe7       1.0  0.78854  0.45308  0.19757  1.0000
  N   N1        1.0  0.56713  0.34464  0.21677  1.0000
  S   S10       1.0  0.44082  0.43329  0.25409  1.0000
  C   C10       1.0  0.40224  0.47229  0.23170  1.0000
  H   H18       1.0  0.53404  0.49905  0.26241  1.0000
  H   H19       1.0  0.56665  0.39185  0.25338  1.0000
  C   C11       1.0  0.36628  0.27346  0.32206  1.0000
  H   H20       1.0  0.62263  0.50742  0.26135  1.0000
  H   H21       1.0  0.45775  0.45994  0.18668  1.0000
  H   H22       1.0  0.57441  0.50774  0.22322  1.0000
  C   C12       1.0  0.51081  0.32344  0.23241  1.0000
  H   H23       1.0  0.48377  0.30461  0.21389  1.0000
  H   H24       1.0  0.50034  0.13688  0.34010  1.0000
  H   H25       1.0  0.41044  0.22155  0.34570  1.0000
  C   C13       1.0  0.39940  0.23632  0.32229  1.0000
  H   H26       1.0  0.40859  0.18203  0.15598  1.0000
  C   C14       1.0  0.80266  0.04561  0.25902  1.0000
  C   C15       1.0  0.39495  0.03345  0.13618  1.0000
  S   S11       1.0  0.37016  0.11916  0.25449  1.0000
  C   C16       1.0  0.39349  0.51165  0.18097  1.0000
  H   H27       1.0  0.78215  0.03794  0.23397  1.0000
  S   S12       1.0  0.83874  0.44923  0.24783  1.0000
  C   C17       1.0  0.37683  0.27614  0.26166  1.0000
  H   H28       1.0  0.36730  0.29150  0.23828  1.0000
  C   C18       1.0  0.83226  0.37777  0.14153  1.0000
  S   S13       1.0  0.74114  0.51314  0.20678  1.0000
  H   H29       1.0  0.68735  0.04448  0.29165  1.0000
  H   H30       1.0  0.67045  0.36148  0.11911  1.0000
  H   H31       1.0  0.67256  0.47918  0.11997  1.0000
  C   C19       1.0  0.35486  0.49747  0.24695  1.0000
  H   H32       1.0  0.37895  0.20761  0.11919  1.0000
  C   C20       1.0  0.35516  0.29334  0.29172  1.0000
  C   C21       1.0  0.36366  0.19624  0.14411  1.0000
  C   C22       1.0  0.81182  0.02722  0.31721  1.0000
  C   C23       1.0  0.72183  0.49369  0.11609  1.0000
  H   H33       1.0  0.71778  0.52535  0.12479  1.0000
  H   H34       1.0  0.66600  0.04451  0.54306  1.0000
  H   H35       1.0  0.51751  0.05348  0.52701  1.0000
  C   C24       1.0  0.53586  0.06005  0.55272  1.0000
  H   H36       1.0  0.53564  0.17982  0.38747  1.0000
  S   S14       1.0  0.44405  0.21480  0.54556  1.0000
  Fe  Fe8       1.0  0.38862  0.16404  0.56924  1.0000
  C   C25       1.0  0.47647  0.14870  0.42387  1.0000
  H   H37       1.0  0.37217  0.43465  0.59217  1.0000
  C   C26       1.0  0.43244  0.11710  0.42922  1.0000
  C   C27       1.0  0.47451  0.33402  0.42646  1.0000
  H   H38       1.0  0.41310  0.11153  0.45389  1.0000
  C   C28       1.0  0.61319  0.09746  0.58696  1.0000
  S   S15       1.0  0.49801  0.18112  0.45670  1.0000
  H   H39       1.0  0.47091  0.38056  0.48129  1.0000
  H   H40       1.0  0.49234  0.07117  0.56744  1.0000
  H   H41       1.0  0.37597  0.28094  0.43440  1.0000
  C   C29       1.0  0.41328  0.09249  0.40249  1.0000
  H   H42       1.0  0.47905  0.27004  0.46744  1.0000
  N   N2        1.0  0.43420  0.32764  0.45683  1.0000
  C   C30       1.0  0.38111  0.31892  0.60035  1.0000
  S   S16       1.0  0.79908  0.05710  0.58399  1.0000
  C   C31       1.0  0.39263  0.48687  0.44109  1.0000
  H   H43       1.0  0.57174  0.10983  0.60252  1.0000
  C   C32       1.0  0.50172  0.15534  0.39175  1.0000
  H   H44       1.0  0.52859  0.45982  0.48775  1.0000
  H   H45       1.0  0.68957  0.09462  0.53213  1.0000
  C   C33       1.0  0.47022  0.29975  0.47951  1.0000
  Fe  Fe9       1.0  0.42172  0.18292  0.49756  1.0000
  C   C34       1.0  0.35465  0.50579  0.46588  1.0000
  H   H46       1.0  0.39552  0.38815  0.45769  1.0000
  N   N3        1.0  0.59050  0.08954  0.55234  1.0000
  H   H47       1.0  0.37925  0.06807  0.40672  1.0000
  C   C35       1.0  0.37863  0.50782  0.49869  1.0000
  H   H48       1.0  0.54775  0.12265  0.51103  1.0000
  S   S17       1.0  0.37533  0.12970  0.52168  1.0000
  H   H49       1.0  0.60563  0.15032  0.53632  1.0000
  H   H50       1.0  0.46129  0.49368  0.53142  1.0000
  H   H51       1.0  0.63168  0.06959  0.59932  1.0000
  C   C36       1.0  0.56579  0.12732  0.53714  1.0000
  C   C37       1.0  0.64700  0.07341  0.53251  1.0000
  C   C38       1.0  0.36915  0.31027  0.44727  1.0000
  H   H52       1.0  0.65470  0.11947  0.58763  1.0000
  S   S18       1.0  0.46587  0.50075  0.59893  1.0000
  H   H53       1.0  0.48339  0.30545  0.41265  1.0000
  C   C39       1.0  0.44186  0.49168  0.50642  1.0000
  S   S19       1.0  0.50004  0.44451  0.41805  1.0000
  H   H54       1.0  0.39272  0.36269  0.49706  1.0000
  H   H55       1.0  0.38287  0.28661  0.60266  1.0000
  H   H56       1.0  0.44122  0.29453  0.50276  1.0000
  C   C40       1.0  0.45504  0.47001  0.44897  1.0000
  C   C41       1.0  0.48016  0.47272  0.48157  1.0000
  H   H57       1.0  0.52388  0.34733  0.43258  1.0000
  C   C42       1.0  0.42289  0.36640  0.47399  1.0000
  H   H58       1.0  0.37338  0.48559  0.41585  1.0000
  H   H59       1.0  0.51971  0.31176  0.48709  1.0000
  H   H60       1.0  0.63387  0.45999  0.44038  1.0000
  Fe  Fe10      1.0  0.42448  0.43156  0.37815  1.0000
  H   H61       1.0  0.52340  0.14016  0.55175  1.0000
  C   C43       1.0  0.35366  0.33670  0.57162  1.0000
  H   H62       1.0  0.44866  0.35500  0.40899  1.0000
  H   H63       1.0  0.68297  0.46458  0.60192  1.0000
  C   C44       1.0  0.43741  0.09960  0.37026  1.0000
  S   S20       1.0  0.82395  0.44352  0.59844  1.0000
  C   C45       1.0  0.37526  0.40252  0.59467  1.0000
  H   H64       1.0  0.78391  0.51681  0.56531  1.0000
  C   C46       1.0  0.48172  0.13105  0.36490  1.0000
  C   C47       1.0  0.67958  0.47847  0.44303  1.0000
  C   C48       1.0  0.83766  0.51698  0.56880  1.0000
  C   C49       1.0  0.35139  0.37844  0.56873  1.0000
  H   H65       1.0  0.63185  0.06771  0.50612  1.0000
  H   H66       1.0  0.69297  0.47912  0.47009  1.0000
  H   H67       1.0  0.55254  0.03120  0.56418  1.0000
  H   H68       1.0  0.72085  0.46279  0.42951  1.0000
  H   H69       1.0  0.69256  0.50386  0.37897  1.0000
  H   H70       1.0  0.60570  0.49858  0.38968  1.0000
  C   C50       1.0  0.65089  0.51721  0.39390  1.0000
  H   H71       1.0  0.36071  0.17651  0.38103  1.0000
  N   N4        1.0  0.66823  0.51938  0.42984  1.0000
  H   H72       1.0  0.56469  0.52293  0.44423  1.0000
  H   H73       1.0  0.62011  0.50182  0.61059  1.0000
  H   H74       1.0  0.59876  0.44961  0.61086  1.0000
  H   H75       1.0  0.79366  0.24248  0.61112  1.0000
  C   C51       1.0  0.77418  0.35469  0.81727  1.0000
  S   S21       1.0  0.42144  0.41576  0.65798  1.0000
  C   C52       1.0  0.63843  0.47132  0.61768  1.0000
  C   C53       1.0  0.59458  0.47794  0.67360  1.0000
  H   H76       1.0  0.55378  0.45651  0.66781  1.0000
  H   H77       1.0  0.44181  0.11469  0.72386  1.0000
  H   H78       1.0  0.44687  0.04840  0.64161  1.0000
  H   H79       1.0  0.60516  0.47603  0.70090  1.0000
  Fe  Fe11      1.0  0.80862  0.09402  0.63022  1.0000
  H   H80       1.0  0.79394  0.21458  0.75833  1.0000
  H   H81       1.0  0.51123  0.09150  0.77148  1.0000
  C   C54       1.0  0.40037  0.38506  0.62399  1.0000
  C   C55       1.0  0.84909  0.21539  0.75455  1.0000
  H   H82       1.0  0.61006  0.08302  0.69318  1.0000
  H   H83       1.0  0.80632  0.26660  0.80327  1.0000
  H   H84       1.0  0.42361  0.32958  0.64934  1.0000
  C   C56       1.0  0.47482  0.03628  0.72565  1.0000
  H   H85       1.0  0.72447  0.34364  0.81214  1.0000
  H   H86       1.0  0.69478  0.42597  0.68883  1.0000
  C   C57       1.0  0.84543  0.28604  0.74186  1.0000
  H   H87       1.0  0.51620  0.13107  0.70296  1.0000
  H   H88       1.0  0.58680  0.10622  0.75072  1.0000
  C   C58       1.0  0.40414  0.34319  0.62669  1.0000
  H   H89       1.0  0.72543  0.42060  0.64692  1.0000
  H   H90       1.0  0.75326  0.49342  0.64657  1.0000
  H   H91       1.0  0.57744  0.05587  0.76527  1.0000
  H   H92       1.0  0.82297  0.51789  0.85906  1.0000
  C   C59       1.0  0.37456  0.08537  0.61553  1.0000
  H   H93       1.0  0.64196  0.40542  0.65675  1.0000
  C   C60       1.0  0.48305  0.10495  0.70697  1.0000
  H   H94       1.0  0.43247  0.04440  0.74242  1.0000
  H   H95       1.0  0.72161  0.49799  0.68843  1.0000
  H   H96       1.0  0.55376  0.04916  0.67268  1.0000
  H   H97       1.0  0.57484  0.50863  0.66838  1.0000
  S   S22       1.0  0.76987  0.38564  0.75404  1.0000
  C   C61       1.0  0.68043  0.42849  0.66194  1.0000
  S   S23       1.0  0.74751  0.05290  0.66151  1.0000
  C   C62       1.0  0.39602  0.05090  0.63258  1.0000
  C   C63       1.0  0.80739  0.37724  0.79317  1.0000
  H   H98       1.0  0.60375  0.03213  0.70711  1.0000
  N   N5        1.0  0.65518  0.46916  0.65369  1.0000
  C   C64       1.0  0.70718  0.49892  0.66153  1.0000
  S   S24       1.0  0.83916  0.35919  0.66721  1.0000
  C   C65       1.0  0.80612  0.34520  0.84761  1.0000
  Fe  Fe12      1.0  0.40542  0.47968  0.64214  1.0000
  N   N6        1.0  0.52063  0.07024  0.72085  1.0000
  C   C66       1.0  0.55029  0.08153  0.75344  1.0000
  C   C67       1.0  0.84144  0.19286  0.63653  1.0000
  H   H99       1.0  0.78996  0.28711  0.74445  1.0000
  C   C68       1.0  0.57438  0.05822  0.69744  1.0000
  S   S25       1.0  0.78113  0.15865  0.62307  1.0000
  H   H100      1.0  0.45989  0.09780  0.68240  1.0000
  C   C69       1.0  0.83532  0.23297  0.62673  1.0000
  Fe  Fe13      1.0  0.84876  0.39336  0.71507  1.0000
  H   H101      1.0  0.45307  0.02593  0.70150  1.0000
  S   S26       1.0  0.42832  0.12629  0.61138  1.0000
  S   S27       1.0  0.72769  0.34882  0.92523  1.0000
  H   H102      1.0  0.40905  0.35721  0.99421  1.0000
  C   C70       1.0  0.69886  0.19499  0.98400  1.0000
  Fe  Fe14      1.0  0.71516  0.29413  0.95697  1.0000
  C   C71       1.0  0.80599  0.44730  0.89130  1.0000
  C   C72       1.0  0.66097  0.20040  0.95479  1.0000
  C   C73       1.0  0.63966  0.16688  0.93670  1.0000
  C   C74       1.0  0.65716  0.12805  0.94743  1.0000
  H   H103      1.0  0.61052  0.17094  0.91406  1.0000
  H   H104      1.0  0.64133  0.10231  0.93311  1.0000
  H   H105      1.0  0.56221  0.29294  0.99239  1.0000
  C   C75       1.0  0.55246  0.35382  0.94875  1.0000
  S   S28       1.0  0.63918  0.24887  0.94087  1.0000
  S   S29       1.0  0.76588  0.04184  0.89869  1.0000
  H   H106      1.0  0.76410  0.44552  0.04413  1.0000
  H   H107      1.0  0.70421  0.50810  0.03243  1.0000
  C   C76       1.0  0.69415  0.12260  0.97692  1.0000
  S   S30       1.0  0.70516  0.32923  0.00432  1.0000
  C   C77       1.0  0.52574  0.31726  0.99892  1.0000
  H   H108      1.0  0.72729  0.32424  0.07353  1.0000
  H   H109      1.0  0.48588  0.30370  0.01441  1.0000
  H   H110      1.0  0.74328  0.15206  0.01808  1.0000
  H   H111      1.0  0.58154  0.37592  0.96354  1.0000
  H   H112      1.0  0.82303  0.48615  0.94888  1.0000
  C   C78       1.0  0.45014  0.36880  0.97834  1.0000
  S   S31       1.0  0.71485  0.07406  0.99103  1.0000
  H   H113      1.0  0.71547  0.22072  0.99810  1.0000
  C   C79       1.0  0.71450  0.15611  0.99532  1.0000
  C   C80       1.0  0.75666  0.33977  0.09200  1.0000
  H   H114      1.0  0.70711  0.43113  0.07647  1.0000
  H   H115      1.0  0.42071  0.29266  0.96232  1.0000
  N   N7        1.0  0.49768  0.33656  0.96859  1.0000
  H   H116      1.0  0.55249  0.33921  0.01491  1.0000
  S   S32       1.0  0.82519  0.28134  0.96293  1.0000
  H   H117      1.0  0.42696  0.38348  0.95607  1.0000
  H   H118      1.0  0.82292  0.41751  0.90074  1.0000
  C   C81       1.0  0.46266  0.30623  0.94826  1.0000
  H   H119      1.0  0.75750  0.45439  0.90376  1.0000
  H   H120      1.0  0.44170  0.31951  0.92488  1.0000
  Fe  Fe15      1.0  0.83710  0.33858  0.93420  1.0000
  H   H121      1.0  0.49745  0.28136  0.94081  1.0000
  H   H122      1.0  0.54883  0.39488  0.06808  1.0000
  C   C82       1.0  0.83106  0.51765  0.88665  1.0000
  Fe  Fe16      1.0  0.72934  0.38293  0.97316  1.0000
  H   H123      1.0  0.53319  0.36950  0.92607  1.0000
  H   H124      1.0  0.79636  0.44414  0.86397  1.0000
  H   H125      1.0  0.57135  0.49985  0.98118  1.0000
  H   H126      1.0  0.79460  0.43455  0.08550  1.0000
  S   S33       1.0  0.68176  0.44421  0.97485  1.0000
  H   H127      1.0  0.58808  0.33007  0.94023  1.0000
  S   S34       1.0  0.43351  0.44581  0.07098  1.0000
  H   H128      1.0  0.82499  0.51067  0.05038  1.0000
  C   C83       1.0  0.61462  0.44626  0.00276  1.0000
  C   C84       1.0  0.60873  0.41724  0.02768  1.0000
  C   C85       1.0  0.55354  0.41770  0.04904  1.0000
  C   C86       1.0  0.50446  0.44764  0.04582  1.0000
  C   C87       1.0  0.51152  0.47777  0.02183  1.0000
  C   C88       1.0  0.56656  0.47697  0.00017  1.0000
  H   H129      1.0  0.64725  0.39485  0.03104  1.0000
  H   H130      1.0  0.47394  0.50121  0.01950  1.0000
  S   S35       1.0  0.83988  0.37757  0.97980  1.0000
  H   H131      1.0  0.47557  0.39264  0.99293  1.0000
  Fe  Fe17      1.0  0.81645  0.32152  0.00803  1.0000
  Fe  Fe18      1.0  0.37906  0.50488  0.07137  1.0000
  C   C89       1.0  0.75264  0.44883  0.07123  1.0000
  C   C90       1.0  0.82666  0.33817  0.09052  1.0000
  H   H132      1.0  0.59625  0.02893  0.05500  1.0000
  N   N8        1.0  0.74298  0.49132  0.08078  1.0000
  C   C91       1.0  0.69073  0.50996  0.05939  1.0000
  H   H133      1.0  0.64178  0.49485  0.06249  1.0000
  H   H134      1.0  0.84651  0.50043  0.09329  1.0000
  Fe  Fe19      1.0  0.71837  0.03051  0.94833  1.0000
  H   H135      1.0  0.78160  0.32602  0.86529  1.0000
  C   C92       1.0  0.80663  0.51283  0.07655  1.0000
  H   H136      1.0  0.59166  0.80397  0.12884  1.0000
  H   H137      1.0  0.45470  0.55568  0.25034  1.0000
  C   C93       1.0  0.61599  0.58265  0.23775  1.0000
  C   C94       1.0  0.80450  0.55656  0.32745  1.0000
  C   C95       1.0  0.78277  0.58149  0.35349  1.0000
  C   C96       1.0  0.83597  0.70937  0.19455  1.0000
  H   H138      1.0  0.80148  0.75484  0.32171  1.0000
  H   H139      1.0  0.66546  0.57541  0.24939  1.0000
  C   C97       1.0  0.80955  0.97590  0.27458  1.0000
  H   H140      1.0  0.72986  0.58650  0.35746  1.0000
  S   S36       1.0  0.80574  0.86868  0.18324  1.0000
  H   H141      1.0  0.74640  0.00597  0.18442  1.0000
  S   S37       1.0  0.83095  0.58580  0.14569  1.0000
  H   H142      1.0  0.79071  0.96685  0.24944  1.0000
  H   H143      1.0  0.82244  0.73239  0.28240  1.0000
  S   S38       1.0  0.74803  0.79653  0.13458  1.0000
  C   C98       1.0  0.57385  0.95868  0.16583  1.0000
  H   H144      1.0  0.48624  0.60410  0.24001  1.0000
  H   H145      1.0  0.79013  0.70190  0.31555  1.0000
  C   C99       1.0  0.82346  0.72747  0.30994  1.0000
  C   C100      1.0  0.49687  0.57136  0.23816  1.0000
  C   C101      1.0  0.69817  0.99283  0.17953  1.0000
  N   N9        1.0  0.56155  0.56030  0.25394  1.0000
  H   H146      1.0  0.55021  0.60298  0.29389  1.0000
  H   H147      1.0  0.61955  0.57532  0.21064  1.0000
  N   N10       1.0  0.78333  0.01577  0.28441  1.0000
  C   C102      1.0  0.57719  0.99605  0.18183  1.0000
  H   H148      1.0  0.69335  0.99383  0.30700  1.0000
  H   H149      1.0  0.49577  0.56320  0.21115  1.0000
  C   C103      1.0  0.69485  0.95553  0.16355  1.0000
  H   H150      1.0  0.68699  0.00326  0.26296  1.0000
  H   H151      1.0  0.52567  0.94549  0.16066  1.0000
  H   H152      1.0  0.60757  0.56233  0.30258  1.0000
  C   C104      1.0  0.63278  0.93802  0.15735  1.0000
  S   S39       1.0  0.62899  0.89024  0.13924  1.0000
  H   H153      1.0  0.81723  0.67820  0.24067  1.0000
  C   C105      1.0  0.63941  0.01274  0.18938  1.0000
  H   H154      1.0  0.79495  0.95237  0.29276  1.0000
  S   S40       1.0  0.74602  0.53383  0.30099  1.0000
  H   H155      1.0  0.81231  0.61135  0.21414  1.0000
  H   H156      1.0  0.74050  0.94034  0.15616  1.0000
  Fe  Fe20      1.0  0.73167  0.86246  0.14121  1.0000
  H   H157      1.0  0.79963  0.00498  0.33699  1.0000
  H   H158      1.0  0.60805  0.61562  0.23995  1.0000
  C   C106      1.0  0.55944  0.57037  0.28993  1.0000
  C   C107      1.0  0.70956  0.01429  0.28671  1.0000
  S   S41       1.0  0.83851  0.75688  0.21338  1.0000
  Fe  Fe21      1.0  0.82879  0.80362  0.17317  1.0000
  H   H159      1.0  0.53159  0.01167  0.18855  1.0000
  Fe  Fe22      1.0  0.83418  0.53786  0.18463  1.0000
  C   C108      1.0  0.82484  0.67530  0.21406  1.0000
  C   C109      1.0  0.82229  0.63735  0.19903  1.0000
  C   C110      1.0  0.83168  0.63331  0.16452  1.0000
  H   H160      1.0  0.51895  0.55384  0.30288  1.0000
  H   H161      1.0  0.53129  0.76557  0.12132  1.0000
  C   C111      1.0  0.84437  0.70537  0.15997  1.0000
  H   H162      1.0  0.35291  0.00647  0.29025  1.0000
  C   C112      1.0  0.84225  0.66738  0.14498  1.0000
  H   H163      1.0  0.84923  0.66442  0.11826  1.0000
  H   H164      1.0  0.35030  0.72586  0.11144  1.0000
  Fe  Fe23      1.0  0.79140  0.64085  0.48570  1.0000
  H   H165      1.0  0.79280  0.98811  0.48533  1.0000
  H   H166      1.0  0.60465  0.57047  0.44015  1.0000
  H   H167      1.0  0.72249  0.57434  0.42537  1.0000
  S   S42       1.0  0.82601  0.68297  0.44588  1.0000
  S   S43       1.0  0.68476  0.62046  0.48709  1.0000
  H   H168      1.0  0.73398  0.88689  0.54719  1.0000
  S   S44       1.0  0.84503  0.67192  0.52761  1.0000
  C   C113      1.0  0.72977  0.54297  0.43429  1.0000
  C   C114      1.0  0.65684  0.60877  0.52752  1.0000
  C   C115      1.0  0.70013  0.61075  0.55505  1.0000
  C   C116      1.0  0.67657  0.60283  0.58733  1.0000
  C   C117      1.0  0.60975  0.59236  0.59212  1.0000
  C   C118      1.0  0.56688  0.58906  0.56449  1.0000
  C   C119      1.0  0.59030  0.59747  0.53227  1.0000
  H   H169      1.0  0.75165  0.61861  0.55162  1.0000
  H   H170      1.0  0.77927  0.93233  0.55366  1.0000
  H   H171      1.0  0.51525  0.58081  0.56789  1.0000
  H   H172      1.0  0.55646  0.59580  0.51112  1.0000
  H   H173      1.0  0.62269  0.53954  0.47565  1.0000
  H   H174      1.0  0.84159  0.99503  0.54215  1.0000
  H   H175      1.0  0.81274  0.62020  0.39389  1.0000
  H   H176      1.0  0.81176  0.86834  0.50122  1.0000
  H   H177      1.0  0.74435  0.54486  0.46117  1.0000
  N   N11       1.0  0.84062  0.87879  0.55228  1.0000
  H   H178      1.0  0.63991  0.54751  0.38352  1.0000
  C   C120      1.0  0.83540  0.83601  0.56148  1.0000
  H   H179      1.0  0.84906  0.57563  0.54724  1.0000
  C   C121      1.0  0.61260  0.53883  0.44824  1.0000
  S   S45       1.0  0.38858  0.58762  0.60771  1.0000
  Fe  Fe24      1.0  0.37013  0.52962  0.58133  1.0000
  H   H180      1.0  0.71012  0.60499  0.60855  1.0000
  H   H181      1.0  0.82525  0.83222  0.58862  1.0000
  C   C122      1.0  0.84501  0.99561  0.48844  1.0000
  C   C123      1.0  0.82966  0.60078  0.37394  1.0000
  H   H182      1.0  0.77272  0.52969  0.42033  1.0000
  C   C124      1.0  0.77743  0.90007  0.56062  1.0000
  H   H183      1.0  0.79454  0.82109  0.54727  1.0000
  H   H184      1.0  0.76660  0.89869  0.58789  1.0000
  S   S46       1.0  0.65362  0.98462  0.59825  1.0000
  H   H185      1.0  0.51399  0.96831  0.60871  1.0000
  H   H186      1.0  0.63901  0.99675  0.75582  1.0000
  H   H187      1.0  0.38488  0.77019  0.68104  1.0000
  N   N12       1.0  0.38786  0.70644  0.68910  1.0000
  H   H188      1.0  0.56349  0.88667  0.80709  1.0000
  C   C125      1.0  0.45537  0.70671  0.70435  1.0000
  Fe  Fe25      1.0  0.47864  0.55638  0.62916  1.0000
  H   H189      1.0  0.55912  0.93930  0.79839  1.0000
  C   C126      1.0  0.50629  0.94922  0.66005  1.0000
  Fe  Fe26      1.0  0.38781  0.91916  0.71531  1.0000
  H   H190      1.0  0.43931  0.88309  0.80527  1.0000
  C   C127      1.0  0.35171  0.01925  0.63761  1.0000
  H   H191      1.0  0.63724  0.93911  0.71408  1.0000
  C   C128      1.0  0.37933  0.74160  0.66694  1.0000
  H   H192      1.0  0.69860  0.96248  0.66412  1.0000
  H   H193      1.0  0.46311  0.73435  0.71943  1.0000
  C   C129      1.0  0.37976  0.66934  0.66936  1.0000
  H   H194      1.0  0.45291  0.94539  0.65877  1.0000
  S   S47       1.0  0.49767  0.92562  0.72558  1.0000
  C   C130      1.0  0.54082  0.94102  0.68981  1.0000
  C   C131      1.0  0.61020  0.94589  0.69123  1.0000
  H   H195      1.0  0.49084  0.98427  0.83392  1.0000
  C   C132      1.0  0.64488  0.95917  0.66299  1.0000
  N   N13       1.0  0.49607  0.92016  0.83872  1.0000
  H   H196      1.0  0.41655  0.74130  0.64634  1.0000
  C   C133      1.0  0.54099  0.96210  0.63169  1.0000
  S   S48       1.0  0.58019  0.58339  0.63265  1.0000
  H   H197      1.0  0.50084  0.85891  0.85547  1.0000
  H   H198      1.0  0.49511  0.70534  0.68492  1.0000
  S   S49       1.0  0.84057  0.97857  0.63017  1.0000
  C   C134      1.0  0.74274  0.00057  0.74128  1.0000
  H   H199      1.0  0.41802  0.66671  0.64929  1.0000
  C   C135      1.0  0.61032  0.96717  0.63321  1.0000
  C   C136      1.0  0.55826  0.91673  0.81893  1.0000
  H   H200      1.0  0.43605  0.93550  0.79567  1.0000
  H   H201      1.0  0.36800  0.99290  0.65112  1.0000
  C   C137      1.0  0.68964  0.00171  0.76424  1.0000
  H   H202      1.0  0.46318  0.68048  0.72121  1.0000
  C   C138      1.0  0.43771  0.91354  0.81663  1.0000
  H   H203      1.0  0.38982  0.91658  0.83056  1.0000
  C   C139      1.0  0.70255  0.00800  0.79826  1.0000
  H   H204      1.0  0.73287  0.99515  0.71517  1.0000
  H   H205      1.0  0.38451  0.64215  0.68537  1.0000
  C   C140      1.0  0.80876  0.00515  0.75243  1.0000
  C   C141      1.0  0.49115  0.96065  0.85358  1.0000
  Fe  Fe27      1.0  0.74753  0.01299  0.61652  1.0000
  S   S50       1.0  0.63661  0.01173  0.82716  1.0000
  H   H206      1.0  0.60346  0.92185  0.83472  1.0000
  C   C142      1.0  0.82155  0.01021  0.78649  1.0000
  H   H207      1.0  0.77976  0.01532  0.83532  1.0000
  S   S51       1.0  0.42636  0.53311  0.67447  1.0000
  H   H208      1.0  0.68946  0.52996  0.65572  1.0000
  C   C143      1.0  0.76873  0.01139  0.80926  1.0000
  Fe  Fe28      1.0  0.84580  0.02231  0.67276  1.0000
  H   H209      1.0  0.50147  0.01009  0.73700  1.0000
  H   H210      1.0  0.50313  0.95883  0.07317  1.0000
  S   S52       1.0  0.42859  0.55881  0.09347  1.0000
  S   S53       1.0  0.42456  0.63963  0.02002  1.0000
  H   H211      1.0  0.46128  0.02442  0.09453  1.0000
  H   H212      1.0  0.53465  0.96670  0.87027  1.0000
  H   H213      1.0  0.49916  0.94926  0.01229  1.0000
  H   H214      1.0  0.58538  0.74081  0.05180  1.0000
  S   S54       1.0  0.77927  0.97522  0.95869  1.0000
  S   S55       1.0  0.80331  0.87914  0.10128  1.0000
  C   C144      1.0  0.37132  0.63986  0.93451  1.0000
  H   H215      1.0  0.49753  0.83941  0.05395  1.0000
  N   N14       1.0  0.56398  0.79637  0.07722  1.0000
  C   C145      1.0  0.55844  0.95474  0.07250  1.0000
  H   H216      1.0  0.56932  0.92257  0.07765  1.0000
  H   H217      1.0  0.66784  0.79348  0.06324  1.0000
  H   H218      1.0  0.67097  0.92705  0.04339  1.0000
  C   C146      1.0  0.39243  0.71963  0.01695  1.0000
  C   C147      1.0  0.70454  0.85762  0.97787  1.0000
  H   H219      1.0  0.65849  0.80171  0.96469  1.0000
  C   C148      1.0  0.69706  0.81600  0.97939  1.0000
  C   C149      1.0  0.75465  0.87586  0.99684  1.0000
  C   C150      1.0  0.62532  0.81536  0.06454  1.0000
  C   C151      1.0  0.41063  0.02151  0.10350  1.0000
  H   H220      1.0  0.83518  0.86699  0.03217  1.0000
  H   H221      1.0  0.78286  0.52586  0.89884  1.0000
  H   H222      1.0  0.68184  0.96899  0.01583  1.0000
  S   S56       1.0  0.38216  0.98868  0.04250  1.0000
  H   H223      1.0  0.53200  0.77499  0.02899  1.0000
  H   H224      1.0  0.64156  0.84030  0.08103  1.0000
  H   H225      1.0  0.68290  0.54218  0.06571  1.0000
  Fe  Fe29      1.0  0.69430  0.94318  0.93431  1.0000
  C   C152      1.0  0.55439  0.94426  0.01280  1.0000
  C   C153      1.0  0.38608  0.68824  0.07140  1.0000
  H   H226      1.0  0.56390  0.91149  0.01553  1.0000
  C   C154      1.0  0.36188  0.72417  0.08506  1.0000
  C   C155      1.0  0.73954  0.79275  0.99986  1.0000
  H   H227      1.0  0.83278  0.01745  0.01820  1.0000
  H   H228      1.0  0.46239  0.81315  0.08865  1.0000
  H   H229      1.0  0.68468  0.97616  0.06040  1.0000
  Fe  Fe30      1.0  0.81837  0.98283  0.90676  1.0000
  H   H230      1.0  0.52230  0.85164  0.09610  1.0000
  S   S57       1.0  0.37773  0.87975  0.01326  1.0000
  H   H231      1.0  0.61752  0.82785  0.03900  1.0000
  C   C156      1.0  0.54446  0.76355  0.05445  1.0000
  C   C157      1.0  0.35175  0.75764  0.06460  1.0000
  S   S58       1.0  0.62992  0.99802  0.92717  1.0000
  S   S59       1.0  0.64886  0.88655  0.95352  1.0000
  H   H232      1.0  0.54030  0.89412  0.88302  1.0000
  C   C158      1.0  0.78840  0.81126  0.01950  1.0000
  H   H233      1.0  0.73330  0.76063  0.00121  1.0000
  H   H234      1.0  0.39382  0.66244  0.08737  1.0000
  Fe  Fe31      1.0  0.82727  0.81379  0.09820  1.0000
  C   C159      1.0  0.36758  0.75560  0.03058  1.0000
  C   C160      1.0  0.79641  0.85275  0.01765  1.0000
  S   S60       1.0  0.73913  0.94545  0.88327  1.0000
  C   C161      1.0  0.40035  0.68572  0.03729  1.0000
  H   H235      1.0  0.40417  0.71796  0.99063  1.0000
  C   C162      1.0  0.36127  0.00504  0.08286  1.0000
  N   N15       1.0  0.58630  0.96727  0.04002  1.0000
  H   H236      1.0  0.57978  0.97235  0.09357  1.0000
  Fe  Fe32      1.0  0.37784  0.59181  0.05143  1.0000
  H   H237      1.0  0.76029  0.90782  0.99625  1.0000
  S   S61       1.0  0.83496  0.78312  0.04857  1.0000
  C   C163      1.0  0.57677  0.77994  0.11100  1.0000
  H   H238      1.0  0.38732  0.64234  0.90796  1.0000
  Fe  Fe33      1.0  0.68334  0.00366  0.87804  1.0000
  C   C164      1.0  0.50926  0.82653  0.07898  1.0000
  C   C165      1.0  0.49702  0.88986  0.86572  1.0000
  H   H239      1.0  0.57389  0.95314  0.98791  1.0000
  C   C166      1.0  0.65929  0.95951  0.03991  1.0000
  H   H240      1.0  0.36045  0.78161  0.01477  1.0000
  H   H241      1.0  0.49969  0.74770  0.06389  1.0000
  H   H242      1.0  0.40124  0.61531  0.94644  1.0000
  H   H243      1.0  0.80087  0.54523  0.08280  1.0000
  H   H244      1.0  0.38506  0.66805  0.94755  1.0000
  H   H245      1.0  0.82401  0.01963  0.06285  1.0000
  H   H246      1.0  0.51845  0.01745  0.03460  1.0000
  C   C167      1.0  0.57316  0.01056  0.03487  1.0000
  H   H247      1.0  0.45051  0.89148  0.88101  1.0000
  H   H248      1.0  0.59395  0.02111  0.01065  1.0000
  H   H249      1.0  0.44472  0.96435  0.86864  1.0000
  H   H250      1.0  0.61767  0.75697  0.11071  1.0000
  S   S62       1.0  0.34014  0.29551  0.35963  1.0000
  H   H251      1.0  0.28179  0.18697  0.33324  1.0000
  H   H252      1.0  0.17172  0.46435  0.24012  1.0000
  H   H253      1.0  0.19298  0.18727  0.34059  1.0000
  C   C168      1.0  0.86433  0.35672  0.11562  1.0000
  H   H254      1.0  0.04494  0.48831  0.34475  1.0000
  C   C169      1.0  0.14263  0.47978  0.32290  1.0000
  H   H255      1.0  0.33214  0.13782  0.18722  1.0000
  H   H256      1.0  0.33966  0.49201  0.27238  1.0000
  S   S63       1.0  0.03299  0.46387  0.22368  1.0000
  H   H257      1.0  0.91846  0.35512  0.11485  1.0000
  C   C170      1.0  0.03821  0.47995  0.29128  1.0000
  H   H258      1.0  0.13059  0.48710  0.17576  1.0000
  H   H259      1.0  0.86181  0.39182  0.16085  1.0000
  S   S64       1.0  0.87729  0.47806  0.17124  1.0000
  H   H260      1.0  0.28888  0.11011  0.11902  1.0000
  H   H261      1.0  0.98415  0.48171  0.29060  1.0000
  H   H262      1.0  0.23194  0.47244  0.29364  1.0000
  C   C171      1.0  0.07391  0.47209  0.26189  1.0000
  S   S65       1.0  0.18621  0.47918  0.36117  1.0000
  C   C172      1.0  0.24942  0.18771  0.12555  1.0000
  N   N16       1.0  0.30789  0.16767  0.14134  1.0000
  Fe  Fe34      1.0  0.92404  0.47984  0.22221  1.0000
  H   H263      1.0  0.01789  0.51772  0.16974  1.0000
  C   C173      1.0  0.14382  0.46992  0.26282  1.0000
  H   H264      1.0  0.19147  0.06348  0.28771  1.0000
  Fe  Fe35      1.0  0.34558  0.36190  0.35170  1.0000
  C   C174      1.0  0.07266  0.48376  0.32188  1.0000
  C   C175      1.0  0.32935  0.03041  0.14787  1.0000
  H   H265      1.0  0.24879  0.05825  0.25354  1.0000
  H   H266      1.0  0.23202  0.21395  0.14057  1.0000
  S   S66       1.0  0.29362  0.39880  0.31243  1.0000
  C   C176      1.0  0.17801  0.47408  0.29320  1.0000
  H   H267      1.0  0.32896  0.32175  0.29125  1.0000
  H   H268      1.0  0.14735  0.49742  0.13259  1.0000
  C   C177      1.0  0.14961  0.51022  0.15827  1.0000
  H   H269      1.0  0.28020  0.06723  0.29510  1.0000
  S   S67       1.0  0.30783  0.04829  0.18769  1.0000
  Fe  Fe36      1.0  0.28326  0.44552  0.35273  1.0000
  C   C178      1.0  0.28945  0.15373  0.17507  1.0000
  H   H270      1.0  0.27489  0.17915  0.19169  1.0000
  H   H271      1.0  0.85812  0.04731  0.25657  1.0000
  H   H272      1.0  0.24724  0.13224  0.17412  1.0000
  H   H273      1.0  0.00994  0.04600  0.20600  1.0000
  H   H274      1.0  0.20323  0.51502  0.16477  1.0000
  H   H275      1.0  0.20654  0.16687  0.12310  1.0000
  C   C179      1.0  0.24223  0.19531  0.35162  1.0000
  H   H276      1.0  0.86743  0.02921  0.31609  1.0000
  C   C180      1.0  0.32906  0.13290  0.12081  1.0000
  C   C181      1.0  0.24136  0.05113  0.28045  1.0000
  H   H277      1.0  0.24317  0.22857  0.35428  1.0000
  H   H278      1.0  0.34986  0.22253  0.15997  1.0000
  H   H279      1.0  0.29109  0.12111  0.36104  1.0000
  C   C182      1.0  0.24478  0.08004  0.46700  1.0000
  C   C183      1.0  0.01941  0.15987  0.59777  1.0000
  H   H280      1.0  0.06128  0.49859  0.41250  1.0000
  Fe  Fe37      1.0  0.27895  0.16439  0.51734  1.0000
  H   H281      1.0  0.12002  0.11913  0.56774  1.0000
  C   C184      1.0  0.97651  0.51805  0.57806  1.0000
  C   C185      1.0  0.31952  0.18685  0.39761  1.0000
  H   H282      1.0  0.06812  0.09093  0.53985  1.0000
  H   H283      1.0  0.20066  0.22040  0.41212  1.0000
  C   C186      1.0  0.12707  0.05217  0.43759  1.0000
  H   H284      1.0  0.08097  0.18297  0.54191  1.0000
  H   H285      1.0  0.07744  0.09990  0.46441  1.0000
  H   H286      1.0  0.34083  0.33024  0.42988  1.0000
  C   C187      1.0  0.24679  0.04671  0.44566  1.0000
  S   S68       1.0  0.32420  0.21463  0.48879  1.0000
  C   C188      1.0  0.18377  0.09923  0.47387  1.0000
  C   C189      1.0  0.06868  0.10714  0.56421  1.0000
  H   H287      1.0  0.91026  0.14570  0.56063  1.0000
  S   S69       1.0  0.31814  0.30805  0.53961  1.0000
  C   C190      1.0  0.93959  0.48518  0.58892  1.0000
  H   H288      1.0  0.29044  0.09067  0.47803  1.0000
  C   C191      1.0  0.20083  0.18738  0.40791  1.0000
  H   H289      1.0  0.94708  0.10682  0.53490  1.0000
  S   S70       1.0  0.28786  0.19480  0.56714  1.0000
  C   C192      1.0  0.18790  0.03285  0.43084  1.0000
  H   H290      1.0  0.32891  0.17338  0.42263  1.0000
  H   H291      1.0  0.16130  0.49191  0.44769  1.0000
  H   H292      1.0  0.20837  0.17277  0.43271  1.0000
  S   S71       1.0  0.17957  0.14059  0.50075  1.0000
  C   C193      1.0  0.12487  0.08522  0.45918  1.0000
  H   H293      1.0  0.93908  0.09962  0.57894  1.0000
  H   H294      1.0  0.26352  0.11522  0.40320  1.0000
  S   S72       1.0  0.32595  0.40574  0.39286  1.0000
  Fe  Fe38      1.0  0.89301  0.02631  0.60139  1.0000
  H   H295      1.0  0.99285  0.19338  0.53776  1.0000
  C   C194      1.0  0.03118  0.16889  0.53828  1.0000
  H   H296      1.0  0.32350  0.21997  0.40015  1.0000
  C   C195      1.0  0.26589  0.05521  0.60656  1.0000
  H   H297      1.0  0.98210  0.18492  0.59892  1.0000
  H   H298      1.0  0.06007  0.08457  0.58421  1.0000
  H   H299      1.0  0.15027  0.17896  0.39871  1.0000
  N   N17       1.0  0.01746  0.13952  0.56495  1.0000
  N   N18       1.0  0.25368  0.17518  0.38410  1.0000
  H   H300      1.0  0.32995  0.39236  0.54662  1.0000
  C   C196      1.0  0.95046  0.12229  0.55954  1.0000
  H   H301      1.0  0.03175  0.15436  0.51320  1.0000
  H   H302      1.0  0.08163  0.04157  0.42634  1.0000
  C   C197      1.0  0.87017  0.48453  0.58435  1.0000
  H   H303      1.0  0.29400  0.03170  0.44057  1.0000
  H   H304      1.0  0.21538  0.05713  0.59679  1.0000
  C   C198      1.0  0.30990  0.08709  0.60191  1.0000
  H   H305      1.0  0.03036  0.51762  0.58066  1.0000
  H   H306      1.0  0.20296  0.12098  0.37027  1.0000
  C   C199      1.0  0.25259  0.13122  0.37938  1.0000
  H   H307      1.0  0.96524  0.45991  0.59997  1.0000
  H   H308      1.0  0.05030  0.50015  0.47533  1.0000
  H   H309      1.0  0.29306  0.11330  0.58840  1.0000
  Fe  Fe39      1.0  0.34197  0.24237  0.53894  1.0000
  H   H310      1.0  0.33693  0.30549  0.46947  1.0000
  H   H311      1.0  0.06957  0.17277  0.60289  1.0000
  H   H312      1.0  0.30659  0.51883  0.45959  1.0000
  C   C200      1.0  0.16503  0.52518  0.44778  1.0000
  N   N19       1.0  0.19330  0.39049  0.66202  1.0000
  C   C201      1.0  0.93730  0.24881  0.65679  1.0000
  H   H313      1.0  0.89725  0.40921  0.78167  1.0000
  H   H314      1.0  0.11806  0.39368  0.70024  1.0000
  H   H315      1.0  0.98579  0.19910  0.68187  1.0000
  C   C202      1.0  0.89563  0.18067  0.65653  1.0000
  S   S73       1.0  0.99544  0.28404  0.67081  1.0000
  H   H316      1.0  0.97135  0.28457  0.76398  1.0000
  C   C203      1.0  0.94964  0.25459  0.75875  1.0000
  H   H317      1.0  0.19336  0.33957  0.62887  1.0000
  H   H318      1.0  0.12146  0.40077  0.62268  1.0000
  Fe  Fe40      1.0  0.94850  0.34540  0.67424  1.0000
  H   H319      1.0  0.27842  0.42911  0.66496  1.0000
  C   C204      1.0  0.87079  0.35888  0.85419  1.0000
  S   S74       1.0  0.90767  0.06717  0.64517  1.0000
  H   H320      1.0  0.26139  0.37300  0.62330  1.0000
  C   C205      1.0  0.94389  0.20859  0.66642  1.0000
  H   H321      1.0  0.12723  0.44072  0.65289  1.0000
  H   H322      1.0  0.95409  0.39193  0.83487  1.0000
  S   S75       1.0  0.87297  0.45148  0.69037  1.0000
  H   H323      1.0  0.21654  0.43771  0.69671  1.0000
  H   H324      1.0  0.27177  0.39467  0.69895  1.0000
  S   S76       1.0  0.95554  0.37508  0.72417  1.0000
  C   C206      1.0  0.15661  0.41761  0.63894  1.0000
  C   C207      1.0  0.94688  0.51008  0.79095  1.0000
  S   S77       1.0  0.98351  0.39912  0.64613  1.0000
  C   C208      1.0  0.14582  0.37111  0.68499  1.0000
  H   H325      1.0  0.17222  0.35051  0.70265  1.0000
  H   H326      1.0  0.96308  0.24662  0.73262  1.0000
  Fe  Fe41      1.0  0.97950  0.43052  0.69565  1.0000
  S   S78       1.0  0.06078  0.47092  0.71375  1.0000
  C   C209      1.0  0.90396  0.38136  0.83003  1.0000
  C   C210      1.0  0.24204  0.41399  0.68157  1.0000
  C   C211      1.0  0.97025  0.48839  0.76323  1.0000
  C   C212      1.0  0.03433  0.49511  0.75061  1.0000
  C   C213      1.0  0.07604  0.52260  0.76664  1.0000
  H   H327      1.0  0.88369  0.29304  0.80667  1.0000
  H   H328      1.0  0.93812  0.46689  0.75141  1.0000
  H   H329      1.0  0.89652  0.50554  0.79986  1.0000
  C   C214      1.0  0.86123  0.26409  0.79889  1.0000
  H   H330      1.0  0.90009  0.14991  0.66463  1.0000
  H   H331      1.0  0.87888  0.29155  0.62841  1.0000
  H   H332      1.0  0.10814  0.35314  0.67110  1.0000
  C   C215      1.0  0.88323  0.26086  0.63677  1.0000
  C   C216      1.0  0.87205  0.39084  0.79972  1.0000
  C   C217      1.0  0.22885  0.35933  0.64244  1.0000
  H   H333      1.0  0.26130  0.34005  0.65861  1.0000
  H   H334      1.0  0.85726  0.28079  0.71500  1.0000
  S   S79       1.0  0.30780  0.50393  0.62228  1.0000
  Fe  Fe42      1.0  0.87449  0.41571  0.64304  1.0000
  H   H335      1.0  0.91103  0.46623  0.85302  1.0000
  H   H336      1.0  0.00806  0.13876  0.61848  1.0000
  H   H337      1.0  0.97493  0.23246  0.77552  1.0000
  H   H338      1.0  0.85875  0.20804  0.72779  1.0000
  H   H339      1.0  0.19155  0.43374  0.62216  1.0000
  H   H340      1.0  0.86364  0.31632  0.74854  1.0000
  N   N20       1.0  0.87630  0.25498  0.76352  1.0000
  H   H341      1.0  0.87207  0.19106  0.76999  1.0000
  H   H342      1.0  0.88159  0.24057  0.81600  1.0000
  H   H343      1.0  0.95814  0.49126  0.88471  1.0000
  H   H344      1.0  0.89096  0.45088  0.94388  1.0000
  C   C218      1.0  0.91927  0.46811  0.88050  1.0000
  S   S80       1.0  0.86776  0.31308  0.05765  1.0000
  S   S81       1.0  0.91031  0.34904  0.89264  1.0000
  H   H345      1.0  0.98053  0.03650  0.01535  1.0000
  N   N21       1.0  0.85652  0.47824  0.89825  1.0000
  S   S82       1.0  0.28525  0.51077  0.10130  1.0000
  H   H346      1.0  0.87264  0.05633  0.04133  1.0000
  C   C219      1.0  0.86979  0.47988  0.93461  1.0000
  H   H347      1.0  0.94026  0.43865  0.88883  1.0000
  H   H348      1.0  0.90653  0.50360  0.94086  1.0000
  H   H349      1.0  0.97197  0.04021  0.07735  1.0000
  H   H350      1.0  0.34236  0.14197  0.09494  1.0000
  H   H351      1.0  0.26151  0.19874  0.10004  1.0000
  C   C220      1.0  0.93495  0.75402  0.31316  1.0000
  H   H352      1.0  0.98720  0.74985  0.32247  1.0000
  C   C221      1.0  0.11555  0.56383  0.19512  1.0000
  H   H353      1.0  0.19384  0.95433  0.27103  1.0000
  H   H354      1.0  0.23907  0.96698  0.32815  1.0000
  H   H355      1.0  0.08636  0.59220  0.19805  1.0000
  C   C222      1.0  0.91985  0.57066  0.34199  1.0000
  C   C223      1.0  0.13693  0.57753  0.13685  1.0000
  Fe  Fe43      1.0  0.01152  0.90497  0.35619  1.0000
  H   H356      1.0  0.32068  0.99800  0.24875  1.0000
  C   C224      1.0  0.87302  0.55062  0.32215  1.0000
  C   C225      1.0  0.19262  0.98733  0.26700  1.0000
  H   H357      1.0  0.18788  0.01139  0.33158  1.0000
  H   H358      1.0  0.19021  0.58430  0.14237  1.0000
  C   C226      1.0  0.03942  0.54018  0.15246  1.0000
  H   H359      1.0  0.10822  0.60627  0.13781  1.0000
  H   H360      1.0  0.00800  0.56790  0.15436  1.0000
  H   H361      1.0  0.97076  0.67567  0.31563  1.0000
  Fe  Fe44      1.0  0.00468  0.98425  0.32029  1.0000
  H   H362      1.0  0.97006  0.93767  0.26009  1.0000
  H   H363      1.0  0.16864  0.56995  0.20197  1.0000
  C   C227      1.0  0.91926  0.68279  0.30641  1.0000
  H   H364      1.0  0.97286  0.56633  0.33744  1.0000
  C   C228      1.0  0.89177  0.71480  0.35882  1.0000
  C   C229      1.0  0.98624  0.99451  0.17596  1.0000
  C   C230      1.0  0.23689  0.99963  0.32248  1.0000
  S   S83       1.0  0.92516  0.94338  0.33916  1.0000
  Fe  Fe45      1.0  0.33093  0.56723  0.12024  1.0000
  S   S84       1.0  0.88907  0.54240  0.23325  1.0000
  C   C231      1.0  0.31188  0.99211  0.27579  1.0000
  H   H365      1.0  0.31654  0.95918  0.27973  1.0000
  S   S85       1.0  0.00066  0.02131  0.27380  1.0000
  H   H366      1.0  0.89015  0.53033  0.30290  1.0000
  H   H367      1.0  0.94721  0.90258  0.20642  1.0000
  S   S86       1.0  0.95082  0.93073  0.13770  1.0000
  H   H368      1.0  0.29192  0.55013  0.24137  1.0000
  S   S87       1.0  0.91014  0.81529  0.13598  1.0000
  H   H369      1.0  0.88777  0.65641  0.31226  1.0000
  C   C232      1.0  0.96717  0.95433  0.17598  1.0000
  S   S88       1.0  0.01150  0.83819  0.35222  1.0000
  C   C233      1.0  0.27973  0.01462  0.12706  1.0000
  N   N22       1.0  0.24564  0.00749  0.28642  1.0000
  C   C234      1.0  0.99045  0.99437  0.23654  1.0000
  C   C235      1.0  0.96101  0.93383  0.20634  1.0000
  H   H370      1.0  0.93701  0.75846  0.28556  1.0000
  S   S89       1.0  0.09011  0.94274  0.33260  1.0000
  S   S90       1.0  0.31690  0.57949  0.17481  1.0000
  C   C236      1.0  0.97398  0.95368  0.23668  1.0000
  H   H371      1.0  0.91552  0.78249  0.32422  1.0000
  N   N23       1.0  0.11032  0.54795  0.16069  1.0000
  H   H372      1.0  0.14190  0.99841  0.27421  1.0000
  N   N24       1.0  0.89240  0.71975  0.32209  1.0000
  H   H373      1.0  0.99170  0.01035  0.15260  1.0000
  H   H374      1.0  0.92146  0.68572  0.27869  1.0000
  Fe  Fe46      1.0  0.87974  0.87975  0.14227  1.0000
  H   H375      1.0  0.19816  0.99278  0.23965  1.0000
  C   C237      1.0  0.32789  0.53035  0.22940  1.0000
  H   H376      1.0  0.22886  0.01229  0.13597  1.0000
  H   H377      1.0  0.09625  0.54203  0.21371  1.0000
  H   H378      1.0  0.27670  0.01409  0.33778  1.0000
  C   C238      1.0  0.99682  0.01463  0.20618  1.0000
  H   H379      1.0  0.86506  0.97586  0.27338  1.0000
  H   H380      1.0  0.03396  0.52827  0.12658  1.0000
  H   H381      1.0  0.85314  0.73146  0.14472  1.0000
  C   C239      1.0  0.34765  0.53757  0.19646  1.0000
  C   C240      1.0  0.87248  0.99991  0.52055  1.0000
  C   C241      1.0  0.94399  0.55085  0.56319  1.0000
  S   S91       1.0  0.97742  0.67083  0.47871  1.0000
  C   C242      1.0  0.88579  0.99958  0.46035  1.0000
  S   S92       1.0  0.88794  0.77765  0.48777  1.0000
  H   H382      1.0  0.85788  0.91359  0.50785  1.0000
  N   N25       1.0  0.09835  0.54466  0.44521  1.0000
  H   H383      1.0  0.19729  0.53324  0.42619  1.0000
  H   H384      1.0  0.22129  0.96811  0.47590  1.0000
  H   H385      1.0  0.14870  0.94450  0.57429  1.0000
  C   C243      1.0  0.10610  0.58865  0.44492  1.0000
  H   H386      1.0  0.23671  0.94727  0.56679  1.0000
  S   S93       1.0  0.99043  0.59259  0.55102  1.0000
  H   H387      1.0  0.88905  0.89512  0.59839  1.0000
  C   C244      1.0  0.87455  0.55025  0.55846  1.0000
  H   H388      1.0  0.86784  0.85078  0.45009  1.0000
  H   H389      1.0  0.13087  0.59944  0.46819  1.0000
  Fe  Fe47      1.0  0.92917  0.62932  0.51500  1.0000
  C   C245      1.0  0.98032  0.01437  0.49638  1.0000
  H   H390      1.0  0.90228  0.92926  0.56444  1.0000
  C   C246      1.0  0.90277  0.83178  0.43684  1.0000
  S   S94       1.0  0.95712  0.62158  0.39176  1.0000
  C   C247      1.0  0.94013  0.00937  0.52451  1.0000
  H   H391      1.0  0.19065  0.90527  0.55125  1.0000
  Fe  Fe48      1.0  0.91302  0.64080  0.44056  1.0000
  Fe  Fe49      1.0  0.88703  0.71031  0.48691  1.0000
  H   H392      1.0  0.10072  0.96190  0.48472  1.0000
  Fe  Fe50      1.0  0.94080  0.97508  0.38784  1.0000
  H   H393      1.0  0.06854  0.95190  0.52584  1.0000
  N   N26       1.0  0.17499  0.96019  0.52384  1.0000
  C   C248      1.0  0.23048  0.95273  0.50022  1.0000
  Fe  Fe51      1.0  0.09195  0.97499  0.38179  1.0000
  C   C249      1.0  0.99058  0.78232  0.40080  1.0000
  H   H394      1.0  0.87300  0.74236  0.37162  1.0000
  H   H395      1.0  0.88237  0.81910  0.55555  1.0000
  H   H396      1.0  0.91547  0.87419  0.39691  1.0000
  H   H397      1.0  0.21655  0.01502  0.54254  1.0000
  S   S95       1.0  0.97503  0.01455  0.56447  1.0000
  S   S96       1.0  0.02117  0.93336  0.40676  1.0000
  H   H398      1.0  0.09395  0.54134  0.39149  1.0000
  C   C250      1.0  0.18825  0.93824  0.55533  1.0000
  H   H399      1.0  0.12814  0.01019  0.54887  1.0000
  H   H400      1.0  0.97682  0.73971  0.44021  1.0000
  C   C251      1.0  0.89671  0.89699  0.57088  1.0000
  C   C252      1.0  0.16962  0.00358  0.53106  1.0000
  C   C253      1.0  0.97442  0.82055  0.38882  1.0000
  S   S97       1.0  0.87254  0.59556  0.47591  1.0000
  H   H401      1.0  0.90008  0.86574  0.50884  1.0000
  H   H402      1.0  0.02565  0.76348  0.38728  1.0000
  C   C254      1.0  0.92005  0.79385  0.44931  1.0000
  C   C255      1.0  0.92970  0.84504  0.40657  1.0000
  S   S98       1.0  0.19115  0.99081  0.40468  1.0000
  C   C256      1.0  0.96307  0.76892  0.43090  1.0000
  H   H403      1.0  0.23672  0.92020  0.49471  1.0000
  C   C257      1.0  0.11164  0.94626  0.50881  1.0000
  S   S99       1.0  0.01249  0.01983  0.36752  1.0000
  C   C258      1.0  0.95335  0.00886  0.46437  1.0000
  H   H404      1.0  0.94510  0.88164  0.56510  1.0000
  C   C259      1.0  0.89819  0.59579  0.36783  1.0000
  H   H405      1.0  0.03216  0.02260  0.49923  1.0000
  H   H406      1.0  0.13660  0.59849  0.42326  1.0000
  H   H407      1.0  0.11369  0.91356  0.50330  1.0000
  H   H408      1.0  0.05669  0.60424  0.44293  1.0000
  H   H409      1.0  0.94288  0.70820  0.36879  1.0000
  H   H410      1.0  0.27886  0.96377  0.51036  1.0000
  S   S100      1.0  0.32774  0.53005  0.52929  1.0000
  H   H411      1.0  0.98455  0.01210  0.44266  1.0000
  H   H412      1.0  0.85956  0.68947  0.36646  1.0000
  C   C260      1.0  0.06526  0.53180  0.41390  1.0000
  H   H413      1.0  0.01396  0.54488  0.41151  1.0000
  S   S101      1.0  0.85363  0.99129  0.42024  1.0000
  H   H414      1.0  0.15980  0.02113  0.50789  1.0000
  H   H415      1.0  0.19144  0.53405  0.47121  1.0000
  C   C261      1.0  0.05720  0.53315  0.47423  1.0000
  H   H416      1.0  0.08067  0.54265  0.49827  1.0000
  H   H417      1.0  0.00666  0.54755  0.47318  1.0000
  C   C262      1.0  0.85310  0.88190  0.51600  1.0000
  H   H418      1.0  0.13728  0.56148  0.64663  1.0000
  C   C263      1.0  0.07290  0.63327  0.65068  1.0000
  H   H419      1.0  0.29845  0.83091  0.85227  1.0000
  Fe  Fe52      1.0  0.16179  0.64950  0.84104  1.0000
  S   S102      1.0  0.07354  0.64989  0.80605  1.0000
  H   H420      1.0  0.07912  0.56798  0.61287  1.0000
  C   C264      1.0  0.08306  0.56223  0.64022  1.0000
  Fe  Fe53      1.0  0.01991  0.62120  0.84869  1.0000
  S   S103      1.0  0.95618  0.56710  0.83987  1.0000
  H   H421      1.0  0.18266  0.65290  0.71438  1.0000
  H   H422      1.0  0.06551  0.98259  0.79887  1.0000
  N   N27       1.0  0.04682  0.59340  0.65949  1.0000
  C   C265      1.0  0.22291  0.64532  0.76393  1.0000
  S   S104      1.0  0.25282  0.59760  0.67288  1.0000
  C   C266      1.0  0.21830  0.63663  0.72981  1.0000
  H   H423      1.0  0.06602  0.63964  0.62351  1.0000
  C   C267      1.0  0.92663  0.92476  0.79640  1.0000
  H   H424      1.0  0.08571  0.56481  0.80709  1.0000
  C   C268      1.0  0.33685  0.70807  0.71575  1.0000
  C   C269      1.0  0.26777  0.62392  0.78425  1.0000
  C   C270      1.0  0.31099  0.59539  0.77001  1.0000
  H   H425      1.0  0.33915  0.56428  0.72492  1.0000
  H   H426      1.0  0.19215  0.66893  0.77446  1.0000
  S   S105      1.0  0.31904  0.97238  0.71980  1.0000
  H   H427      1.0  0.02271  0.87898  0.82438  1.0000
  H   H428      1.0  0.28533  0.70732  0.70507  1.0000
  S   S106      1.0  0.26673  0.63141  0.82754  1.0000
  Fe  Fe54      1.0  0.04596  0.70771  0.83113  1.0000
  C   C271      1.0  0.05290  0.54404  0.79463  1.0000
  S   S107      1.0  0.87627  0.00379  0.72452  1.0000
  C   C272      1.0  0.30715  0.58711  0.73564  1.0000
  C   C273      1.0  0.26009  0.60739  0.71568  1.0000
  C   C274      1.0  0.05668  0.58609  0.69563  1.0000
  H   H429      1.0  0.90238  0.93732  0.81926  1.0000
  H   H430      1.0  0.11083  0.58513  0.70245  1.0000
  C   C275      1.0  0.97465  0.59187  0.65127  1.0000
  H   H431      1.0  0.95373  0.56181  0.65682  1.0000
  H   H432      1.0  0.03527  0.55689  0.70314  1.0000
  Fe  Fe55      1.0  0.33417  0.55963  0.65033  1.0000
  H   H433      1.0  0.32841  0.74245  0.65542  1.0000
  C   C276      1.0  0.25565  0.88346  0.82876  1.0000
  C   C277      1.0  0.23777  0.92386  0.83262  1.0000
  S   S108      1.0  0.01972  0.76534  0.80539  1.0000
  S   S109      1.0  0.24500  0.79731  0.69884  1.0000
  H   H434      1.0  0.08407  0.92151  0.76442  1.0000
  S   S110      1.0  0.23024  0.98278  0.63226  1.0000
  H   H435      1.0  0.90157  0.93884  0.77435  1.0000
  C   C278      1.0  0.08206  0.77388  0.77568  1.0000
  C   C279      1.0  0.11364  0.81098  0.77477  1.0000
  C   C280      1.0  0.16452  0.81780  0.75159  1.0000
  H   H436      1.0  0.09997  0.83412  0.79244  1.0000
  H   H437      1.0  0.18960  0.84616  0.75165  1.0000
  C   C281      1.0  0.10168  0.74350  0.75349  1.0000
  S   S111      1.0  0.32869  0.88087  0.74975  1.0000
  Fe  Fe56      1.0  0.25485  0.93179  0.75031  1.0000
  H   H438      1.0  0.16559  0.72752  0.71212  1.0000
  H   H439      1.0  0.91600  0.89212  0.79549  1.0000
  H   H440      1.0  0.24703  0.86850  0.80523  1.0000
  H   H441      1.0  0.94548  0.61448  0.66580  1.0000
  N   N28       1.0  0.99940  0.93229  0.79636  1.0000
  H   H442      1.0  0.08592  0.91691  0.82593  1.0000
  S   S112      1.0  0.20769  0.95197  0.79853  1.0000
  H   H443      1.0  0.12740  0.63521  0.65624  1.0000
  H   H444      1.0  0.02046  0.88399  0.76211  1.0000
  S   S113      1.0  0.19523  0.91027  0.70642  1.0000
  Fe  Fe57      1.0  0.26690  0.94538  0.67546  1.0000
  H   H445      1.0  0.00997  0.92339  0.84926  1.0000
  C   C282      1.0  0.03094  0.91189  0.82530  1.0000
  Fe  Fe58      1.0  0.27371  0.86172  0.70378  1.0000
  H   H446      1.0  0.03231  0.60977  0.71114  1.0000
  H   H447      1.0  0.96549  0.59790  0.62423  1.0000
  H   H448      1.0  0.04712  0.65754  0.66494  1.0000
  H   H449      1.0  0.98792  0.99219  0.77719  1.0000
  C   C283      1.0  0.18308  0.78790  0.72875  1.0000
  C   C284      1.0  0.15173  0.75066  0.72978  1.0000
  C   C285      1.0  0.01101  0.97588  0.79874  1.0000
  H   H450      1.0  0.07728  0.71479  0.75411  1.0000
  C   C286      1.0  0.02899  0.91672  0.76503  1.0000
  C   C287      1.0  0.98777  0.53841  0.80642  1.0000
  H   H451      1.0  0.00691  0.93208  0.74275  1.0000
  H   H452      1.0  0.98915  0.98866  0.82209  1.0000
  C   C288      1.0  0.28397  0.86204  0.85557  1.0000
  H   H453      1.0  0.34222  0.68235  0.73331  1.0000
  H   H454      1.0  0.34017  0.73619  0.73066  1.0000
  H   H455      1.0  0.08720  0.80437  0.85855  1.0000
  H   H456      1.0  0.32957  0.66839  0.65716  1.0000
  H   H457      1.0  0.06318  0.53184  0.64544  1.0000
  C   C289      1.0  0.28645  0.02158  0.62493  1.0000
  H   H458      1.0  0.87227  0.01386  0.79538  1.0000
  S   S114      1.0  0.34054  0.89467  0.66863  1.0000
  H   H459      1.0  0.34579  0.57880  0.78571  1.0000
  H   H460      1.0  0.12597  0.52770  0.75727  1.0000
  H   H461      1.0  0.22596  0.62153  0.97502  1.0000
  C   C290      1.0  0.12496  0.66115  0.01097  1.0000
  Fe  Fe59      1.0  0.07873  0.67738  0.90022  1.0000
  H   H462      1.0  0.19388  0.79959  0.88845  1.0000
  H   H463      1.0  0.04489  0.61777  0.94535  1.0000
  C   C291      1.0  0.06610  0.82151  0.94155  1.0000
  S   S115      1.0  0.08842  0.69934  0.95316  1.0000
  C   C292      1.0  0.13726  0.62680  0.03038  1.0000
  C   C293      1.0  0.08335  0.58605  0.98833  1.0000
  C   C294      1.0  0.24538  0.94223  0.86385  1.0000
  H   H464      1.0  0.16183  0.62957  0.05429  1.0000
  C   C295      1.0  0.09364  0.65772  0.97976  1.0000
  S   S116      1.0  0.13913  0.70987  0.86224  1.0000
  C   C296      1.0  0.11819  0.58905  0.01863  1.0000
  N   N29       1.0  0.92017  0.99824  0.04590  1.0000
  S   S117      1.0  0.28488  0.60597  0.08060  1.0000
  S   S118      1.0  0.11022  0.61641  0.88187  1.0000
  H   H465      1.0  0.99956  0.98885  0.08171  1.0000
  H   H466      1.0  0.05596  0.79005  0.94919  1.0000
  C   C297      1.0  0.07125  0.62035  0.96888  1.0000
  H   H467      1.0  0.14979  0.74211  0.06375  1.0000
  S   S119      1.0  0.14110  0.54528  0.04038  1.0000
  H   H468      1.0  0.14229  0.68997  0.01946  1.0000
  C   C298      1.0  0.06055  0.80493  0.88294  1.0000
  H   H469      1.0  0.86774  0.94968  0.06879  1.0000
  C   C299      1.0  0.27958  0.62922  0.97246  1.0000
  N   N30       1.0  0.29876  0.63239  0.93696  1.0000
  H   H470      1.0  0.00412  0.79569  0.02496  1.0000
  H   H471      1.0  0.20627  0.66144  0.92339  1.0000
  C   C300      1.0  0.95489  0.00862  0.07740  1.0000
  C   C301      1.0  0.90059  0.95569  0.04702  1.0000
  Fe  Fe60      1.0  0.18553  0.89800  0.01491  1.0000
  H   H472      1.0  0.09541  0.83588  0.96189  1.0000
  S   S120      1.0  0.07317  0.89796  0.01683  1.0000
  Fe  Fe61      1.0  0.30331  0.87570  0.97119  1.0000
  H   H473      1.0  0.29558  0.59600  0.89254  1.0000
  H   H474      1.0  0.19952  0.81333  0.93158  1.0000
  C   C302      1.0  0.27333  0.92072  0.89074  1.0000
  S   S121      1.0  0.23118  0.83903  0.00058  1.0000
  H   H475      1.0  0.14752  0.77024  0.10207  1.0000
  S   S122      1.0  0.98313  0.67956  0.87081  1.0000
  H   H476      1.0  0.12056  0.94795  0.96304  1.0000
  H   H477      1.0  0.06766  0.55703  0.97936  1.0000
  C   C303      1.0  0.29579  0.00167  0.09466  1.0000
  H   H478      1.0  0.25718  0.98974  0.07862  1.0000
  C   C304      1.0  0.03602  0.95723  0.93053  1.0000
  C   C305      1.0  0.11663  0.86492  0.90079  1.0000
  C   C306      1.0  0.03428  0.91647  0.98067  1.0000
  C   C307      1.0  0.96692  0.90791  0.97472  1.0000
  C   C308      1.0  0.02136  0.75421  0.08174  1.0000
  S   S123      1.0  0.25262  0.93450  0.98231  1.0000
  S   S124      1.0  0.24858  0.90497  0.06093  1.0000
  H   H479      1.0  0.94011  0.88861  0.99165  1.0000
  H   H480      1.0  0.23141  0.97345  0.86701  1.0000
  C   C309      1.0  0.93392  0.92440  0.94690  1.0000
  H   H481      1.0  0.86734  0.54186  0.89227  1.0000
  H   H482      1.0  0.17347  0.79377  0.06419  1.0000
  H   H483      1.0  0.27325  0.66877  0.89429  1.0000
  H   H484      1.0  0.14292  0.86699  0.87640  1.0000
  H   H485      1.0  0.94528  0.93552  0.04968  1.0000
  H   H486      1.0  0.01274  0.82186  0.87926  1.0000
  H   H487      1.0  0.88203  0.91738  0.94218  1.0000
  H   H488      1.0  0.01701  0.83757  0.93987  1.0000
  Fe  Fe62      1.0  0.30010  0.84897  0.04373  1.0000
  N   N31       1.0  0.06734  0.78410  0.06762  1.0000
  H   H489      1.0  0.06665  0.75723  0.01862  1.0000
  C   C310      1.0  0.06900  0.94071  0.95836  1.0000
  H   H490      1.0  0.09014  0.80913  0.01972  1.0000
  S   S125      1.0  0.32041  0.80189  0.08217  1.0000
  C   C311      1.0  0.29294  0.88065  0.88662  1.0000
  H   H491      1.0  0.06255  0.97687  0.91377  1.0000
  C   C312      1.0  0.96814  0.94970  0.92518  1.0000
  C   C313      1.0  0.05670  0.78659  0.03107  1.0000
  N   N32       1.0  0.10231  0.82285  0.90946  1.0000
  H   H492      1.0  0.14924  0.87916  0.91998  1.0000
  S   S126      1.0  0.92579  0.97345  0.89229  1.0000
  H   H493      1.0  0.01227  0.98619  0.02000  1.0000
  H   H494      1.0  0.92153  0.00471  0.09938  1.0000
  C   C314      1.0  0.05374  0.82377  0.08286  1.0000
  C   C315      1.0  0.16591  0.79999  0.91247  1.0000
  H   H495      1.0  0.27243  0.69496  0.93368  1.0000
  C   C316      1.0  0.26112  0.66590  0.92134  1.0000
  H   H496      1.0  0.06979  0.88317  0.89898  1.0000
  H   H497      1.0  0.22855  0.58773  0.92134  1.0000
  C   C317      1.0  0.28282  0.59453  0.91960  1.0000
  H   H498      1.0  0.96807  0.76250  0.07662  1.0000
  H   H499      1.0  0.00245  0.83499  0.07657  1.0000
  H   H500      1.0  0.28145  0.93563  0.91429  1.0000
  H   H501      1.0  0.08957  0.84662  0.07387  1.0000
  H   H502      1.0  0.15710  0.76835  0.91990  1.0000
  S   S127      1.0  0.32893  0.85322  0.91968  1.0000
  H   H503      1.0  0.05831  0.82276  0.11060  1.0000
  Fe  Fe63      1.0  0.32079  0.93576  0.02706  1.0000
  C   C318      1.0  0.13746  0.77194  0.07470  1.0000
  H   H504      1.0  0.94153  0.99616  0.99322  1.0000
  H   H505      1.0  0.04720  0.77347  0.88906  1.0000
  C   C319      1.0  0.96561  0.00459  0.01737  1.0000
  H   H506      1.0  0.13448  0.56620  0.11068  1.0000
  Fe  Fe64      1.0  0.24688  0.54878  0.05922  1.0000
  H   H507      1.0  0.87349  0.94672  0.02387  1.0000
  H   H508      1.0  0.31088  0.56872  0.93069  1.0000
  H   H509      1.0  0.03019  0.72397  0.07068  1.0000
  H   H510      1.0  0.28816  0.65772  0.98624  1.0000
  H   H511      1.0  0.30905  0.60544  0.98542  1.0000
  H   H512      1.0  0.02738  0.75162  0.10934  1.0000
  S   S128      1.0  0.33628  0.53700  0.02676  1.0000
  C   C320      1.0  0.85978  0.02396  0.04195  1.0000
