data_image0
_chemical_formula_structural       FeSFeSHNS3C2H2C2H5C2HFeHFeH2SCHFeNHSHC5HCH4CFeNSHC2H2SH2SH2C2FeSHSC6H4CHC2HC4HCH4SHC4H5CH2SHCHSFeH2CH3S2H2SHC2NFeSH5C2HCH4CH3FeCHFeS2HCHFeSCSCH2CHSC2H2C7H4CH2C6SH2S2H3FeH4CHNHCH2CHCHCHNHCH4NHFeCH4CH2CH2SH2C2HCH2CNFeS2H2S2H3C6H4SHFeHC2FeS2CH2CS2FeH3CNFeCH2FeNC2SHFeSC2FeSH2CH3CH3CHFeC2FeH4SCH2SHSC2SH2FeSH2C6H4C2H2FeNHCH4CSHCH2SH2CH5CH2SCH6SH3CH3CHC6SH3CH2CHCHCHCH6CFeHSH2SCSC2NCH3CHCH2CSFeHC2HFeC5HNHC2S3HSHCHCNHC3H3C2H2CHCH3SH2CFeH7NHC2HSHFeCH3FeSH3S2HSFeNFeS2HFeS3CNFeCH2CSC6H4C6H2CHC2HCH2FeH2C2HC2H3C2H3CH3SCH3SH2N2H2S2H3SHSHC8H5CH2CHCHFeHFeHCFeH3CH2C3H7CHS3H2CHS2HCSCH2SCSH2C7H3FeHNCH3FeCHFeH3CHCH3CFeS3FeSFeSHC2H3CHC3H4SHC2HCNC4H6CH2C2HCHCSCH2CH2FeC2NHC2H2CNH3SH4FeS2H2C6H5CHCSH6NH3CHNHCFeCSFeH2CH3CH2CHCHFeSHFeS2FeSFeS3CHFeH2SC6H4CSH3C7H5CH2NHSH3SH2NHSHCHC2HFeH2CHCHNHSC2H2CH4S2H5S2HFeSC8H4NSC6H4FeH3CSCH2SC2FeH5SHC2FeCH6SH4FeSCSH2C6H3NCH4FeNH2CSCH2CH2SHSH3CHSHC6H6SCNS2H3FeH3C2H2NH2CH2FeS3FeSHSC6H2CHC5H7CH4C2HFeH6CSHSHSH2CH2C2FeHFeCHNHSFeS2FeSCH2FeS2HCFeNCH3NC5H2C6H4C2H5CSH3CH2SH2FeCH5C2S3HFeH8CS2HSHFeC4H2C2FeSFeH2CHC5SH4CHCH3NH2CH2S2N2C2H6CSHCSH4CHFeH2FeSHCH2SFeS2FeSC6H5SC7H8NH2CH8SFeSCH2FeCH2CH2SC3H2CHSCHFeHSFeS2C6H6FeSHNHCH4CHCHC2SCFeHSHCSC6H4NSHNCHCHC2H10CHC2H3CH2CH3CFeS2CSFeHFeS2C6H4FeHCH2NHC6HCHSFeHCHCHC2SNSHCH2C2FeCH2SHCH6SHCH3SFeH3SH7CH3C2HSHCHFeS2FeSFeHFeS3C7H2NHCHC6H4C2SH2CNH7CHCH2CH4CNFeCSCHCH7CH2CH7CSH2C2HSH4C6HCH5NH3CFeHCHCHCH3CHSHC3HSHCSHCFeSFeCHS2C7H4NH2CS2FeHCH4SHC2HS2CHC2HC2FeH4NSH2CH2CH4FeHSH4SCHFeS2CHNFeSC2SCSHFeH2CSH3C7H4NCH3CH4C2HFeH3CFe2SHC2HSH2FeCSHNHCHCSH2C3HSH9SNC2H3CH2CH3NHSC6H2CH4SH3NHC2SC2H10C2HC2NCHS2CFeS2H5FeSHS2FeCHC6H4C6H4C2NH2SH4FeH4CHSHSHSFeH3CFeH4CHFeHCFeS2HFeS2H2S2H2NC6H4C6H7FeHSCHCHSH5NCFeHFeH2CSCHSHC2H2SH2SNH5FeSCHCHCSCH2SCSCH2CHC6HCH3FeC2H4SH2SH3NH4CH2CHCH5NCHSFe2H
_chemical_formula_sum              "Fe128 S256 H1024 N64 C640"
_cell_length_a       47.9989
_cell_length_b       47.4341
_cell_length_c       32.3668
_cell_angle_alpha    90.5741
_cell_angle_beta     90.2651
_cell_angle_gamma    88.5745

_space_group_name_H-M_alt    "P 1"
_space_group_IT_number       1

loop_
  _space_group_symop_operation_xyz
  'x, y, z'

loop_
  _atom_site_type_symbol
  _atom_site_label
  _atom_site_symmetry_multiplicity
  _atom_site_fract_x
  _atom_site_fract_y
  _atom_site_fract_z
  _atom_site_occupancy
  Fe  Fe1       1.0  0.24544  0.28622  0.49539  1.0000
  S   S1        1.0  0.09599  0.46634  0.41867  1.0000
  Fe  Fe2       1.0  0.20192  0.24443  0.46997  1.0000
  S   S2        1.0  0.18625  0.21713  0.41872  1.0000
  H   H1        1.0  0.11128  0.28866  0.42224  1.0000
  N   N1        1.0  0.11451  0.17652  0.47149  1.0000
  S   S3        1.0  0.20706  0.29001  0.45629  1.0000
  S   S4        1.0  0.28484  0.30423  0.47118  1.0000
  S   S5        1.0  0.10072  0.41975  0.34283  1.0000
  C   C1        1.0  0.15650  0.23443  0.39890  1.0000
  C   C2        1.0  0.14383  0.22455  0.36277  1.0000
  H   H2        1.0  0.07929  0.34861  0.24078  1.0000
  H   H3        1.0  0.25502  0.39636  0.08549  1.0000
  C   C3        1.0  0.12046  0.27104  0.40520  1.0000
  C   C4        1.0  0.14473  0.25767  0.42005  1.0000
  H   H4        1.0  0.15288  0.20664  0.34623  1.0000
  H   H5        1.0  0.12037  0.32330  0.28148  1.0000
  H   H6        1.0  0.11138  0.32664  0.37179  1.0000
  H   H7        1.0  0.15391  0.26521  0.44833  1.0000
  H   H8        1.0  0.10999  0.23050  0.31962  1.0000
  C   C5        1.0  0.26996  0.31198  0.12032  1.0000
  C   C6        1.0  0.11790  0.40390  0.08355  1.0000
  H   H9        1.0  0.08095  0.22437  0.14353  1.0000
  Fe  Fe3       1.0  0.14911  0.31275  0.13713  1.0000
  H   H10       1.0  0.12234  0.36213  0.38034  1.0000
  Fe  Fe4       1.0  0.09193  0.49923  0.36951  1.0000
  H   H11       1.0  0.30442  0.24901  0.53909  1.0000
  H   H12       1.0  0.12666  0.20044  0.52522  1.0000
  S   S6        1.0  0.16818  0.27018  0.12283  1.0000
  C   C7        1.0  0.13596  0.18980  0.49758  1.0000
  H   H13       1.0  0.13220  0.58442  0.30513  1.0000
  Fe  Fe5       1.0  0.20509  0.29411  0.10101  1.0000
  N   N2        1.0  0.27520  0.39368  0.48972  1.0000
  H   H14       1.0  0.10151  0.35357  0.33584  1.0000
  S   S7        1.0  0.12929  0.31825  0.07504  1.0000
  H   H15       1.0  0.24302  0.42433  0.47461  1.0000
  C   C8        1.0  0.11945  0.23789  0.34794  1.0000
  C   C9        1.0  0.11878  0.34578  0.35616  1.0000
  C   C10       1.0  0.09473  0.19849  0.45637  1.0000
  C   C11       1.0  0.10779  0.26112  0.36918  1.0000
  C   C12       1.0  0.31056  0.31085  0.50824  1.0000
  H   H16       1.0  0.13399  0.29704  0.31548  1.0000
  C   C13       1.0  0.12802  0.16205  0.43591  1.0000
  H   H17       1.0  0.10534  0.21407  0.43684  1.0000
  H   H18       1.0  0.25591  0.38178  0.43216  1.0000
  H   H19       1.0  0.15671  0.31377  0.27983  1.0000
  H   H20       1.0  0.13672  0.37379  0.29028  1.0000
  C   C14       1.0  0.29612  0.31429  0.10175  1.0000
  Fe  Fe6       1.0  0.18456  0.29736  0.51602  1.0000
  N   N3        1.0  0.14437  0.33955  0.33222  1.0000
  S   S8        1.0  0.22360  0.29817  0.55442  1.0000
  H   H21       1.0  0.15770  0.38257  0.33437  1.0000
  C   C15       1.0  0.13872  0.31748  0.30092  1.0000
  C   C16       1.0  0.15319  0.36550  0.31153  1.0000
  H   H22       1.0  0.29023  0.39564  0.42726  1.0000
  H   H23       1.0  0.13989  0.17699  0.41693  1.0000
  S   S9        1.0  0.17653  0.25190  0.52700  1.0000
  H   H24       1.0  0.11240  0.15213  0.41519  1.0000
  H   H25       1.0  0.16068  0.31012  0.37691  1.0000
  S   S10       1.0  0.12837  0.48259  0.33284  1.0000
  H   H26       1.0  0.31218  0.37098  0.50943  1.0000
  H   H27       1.0  0.10304  0.11168  0.27146  1.0000
  C   C17       1.0  0.27365  0.35945  0.14783  1.0000
  C   C18       1.0  0.16674  0.32947  0.36036  1.0000
  Fe  Fe7       1.0  0.12949  0.44742  0.37838  1.0000
  S   S11       1.0  0.16996  0.42874  0.40094  1.0000
  H   H28       1.0  0.14717  0.20607  0.48022  1.0000
  S   S12       1.0  0.25030  0.28185  0.11184  1.0000
  C   C19       1.0  0.15375  0.35601  0.48722  1.0000
  C   C20       1.0  0.18073  0.36094  0.47347  1.0000
  C   C21       1.0  0.18563  0.38366  0.44745  1.0000
  C   C22       1.0  0.16353  0.40127  0.43485  1.0000
  C   C23       1.0  0.13647  0.39635  0.44851  1.0000
  C   C24       1.0  0.13160  0.37378  0.47493  1.0000
  H   H29       1.0  0.19779  0.34729  0.48317  1.0000
  H   H30       1.0  0.20640  0.38734  0.43642  1.0000
  H   H31       1.0  0.11930  0.40987  0.43876  1.0000
  H   H32       1.0  0.11071  0.36999  0.48564  1.0000
  C   C25       1.0  0.32759  0.25479  0.17071  1.0000
  H   H33       1.0  0.30299  0.40104  0.54093  1.0000
  C   C26       1.0  0.25642  0.37623  0.51426  1.0000
  C   C27       1.0  0.08298  0.12579  0.32770  1.0000
  H   H34       1.0  0.31814  0.40575  0.49079  1.0000
  C   C28       1.0  0.11608  0.35525  0.20451  1.0000
  C   C29       1.0  0.13444  0.37519  0.18991  1.0000
  C   C30       1.0  0.12993  0.40387  0.19890  1.0000
  C   C31       1.0  0.10720  0.41268  0.22299  1.0000
  H   H35       1.0  0.28584  0.36067  0.44610  1.0000
  C   C32       1.0  0.09355  0.36398  0.22927  1.0000
  H   H36       1.0  0.15214  0.36861  0.17158  1.0000
  H   H37       1.0  0.14412  0.41927  0.18725  1.0000
  H   H38       1.0  0.32000  0.29289  0.23200  1.0000
  H   H39       1.0  0.23953  0.33226  0.15994  1.0000
  S   S13       1.0  0.18747  0.33627  0.12101  1.0000
  H   H40       1.0  0.23469  0.37761  0.50239  1.0000
  C   C33       1.0  0.29943  0.36207  0.12853  1.0000
  C   C34       1.0  0.31098  0.33931  0.10610  1.0000
  C   C35       1.0  0.25912  0.33434  0.14416  1.0000
  C   C36       1.0  0.08917  0.39271  0.23868  1.0000
  H   H41       1.0  0.26480  0.37697  0.16549  1.0000
  H   H42       1.0  0.22208  0.40136  0.05978  1.0000
  H   H43       1.0  0.17157  0.34565  0.38425  1.0000
  H   H44       1.0  0.08448  0.21022  0.48228  1.0000
  H   H45       1.0  0.08875  0.16596  0.52303  1.0000
  C   C37       1.0  0.30361  0.31511  0.54978  1.0000
  H   H46       1.0  0.14295  0.14520  0.44611  1.0000
  H   H47       1.0  0.08353  0.26896  0.18390  1.0000
  S   S14       1.0  0.12127  0.31943  0.19224  1.0000
  H   H48       1.0  0.17229  0.36163  0.29278  1.0000
  C   C38       1.0  0.30334  0.39290  0.50855  1.0000
  H   H49       1.0  0.18628  0.32430  0.34324  1.0000
  S   S15       1.0  0.14773  0.32721  0.51886  1.0000
  Fe  Fe8       1.0  0.15107  0.27728  0.05908  1.0000
  H   H50       1.0  0.26228  0.43205  0.52091  1.0000
  H   H51       1.0  0.15188  0.17406  0.50841  1.0000
  C   C39       1.0  0.09134  0.44364  0.11134  1.0000
  H   H52       1.0  0.27789  0.43696  0.47116  1.0000
  H   H53       1.0  0.11372  0.13897  0.50814  1.0000
  H   H54       1.0  0.26300  0.35361  0.51324  1.0000
  S   S16       1.0  0.24259  0.23952  0.50361  1.0000
  S   S17       1.0  0.31556  0.39472  0.12961  1.0000
  H   H55       1.0  0.08575  0.14782  0.32140  1.0000
  H   H56       1.0  0.30441  0.29711  0.08289  1.0000
  S   S18       1.0  0.10112  0.44872  0.23205  1.0000
  H   H57       1.0  0.12478  0.39744  0.11479  1.0000
  C   C40       1.0  0.27684  0.38252  0.44694  1.0000
  C   C41       1.0  0.26415  0.42306  0.48910  1.0000
  N   N4        1.0  0.09030  0.41831  0.08446  1.0000
  Fe  Fe9       1.0  0.09680  0.45635  0.30004  1.0000
  S   S19       1.0  0.08632  0.54437  0.39048  1.0000
  H   H58       1.0  0.31799  0.31029  0.18319  1.0000
  H   H59       1.0  0.13413  0.41770  0.07081  1.0000
  H   H60       1.0  0.16528  0.57516  0.32765  1.0000
  H   H61       1.0  0.16027  0.57262  0.27257  1.0000
  H   H62       1.0  0.31493  0.24658  0.19648  1.0000
  C   C42       1.0  0.09936  0.15578  0.49607  1.0000
  C   C43       1.0  0.09308  0.10531  0.29969  1.0000
  H   H63       1.0  0.10718  0.45860  0.10057  1.0000
  C   C44       1.0  0.15511  0.58549  0.30057  1.0000
  H   H64       1.0  0.09350  0.26854  0.10887  1.0000
  H   H65       1.0  0.08311  0.14526  0.47710  1.0000
  H   H66       1.0  0.11753  0.38446  0.06402  1.0000
  H   H67       1.0  0.31266  0.26422  0.14793  1.0000
  C   C45       1.0  0.08100  0.56785  0.34943  1.0000
  H   H68       1.0  0.09674  0.43803  0.14370  1.0000
  H   H69       1.0  0.25592  0.38298  0.54728  1.0000
  H   H70       1.0  0.07911  0.53540  0.30248  1.0000
  Fe  Fe10      1.0  0.16935  0.33785  0.05738  1.0000
  C   C46       1.0  0.24499  0.40360  0.05626  1.0000
  H   H71       1.0  0.30597  0.19099  0.58357  1.0000
  Fe  Fe11      1.0  0.12476  0.18256  0.81496  1.0000
  S   S20       1.0  0.10818  0.20638  0.76041  1.0000
  S   S21       1.0  0.16001  0.19915  0.85327  1.0000
  H   H72       1.0  0.10328  0.19997  0.97897  1.0000
  C   C47       1.0  0.32454  0.32080  0.57885  1.0000
  H   H73       1.0  0.24703  0.42069  0.97730  1.0000
  Fe  Fe12      1.0  0.10670  0.16419  0.72911  1.0000
  S   S22       1.0  0.11714  0.16088  0.66175  1.0000
  C   C48       1.0  0.08092  0.27996  0.95360  1.0000
  S   S23       1.0  0.12764  0.14101  0.78131  1.0000
  C   C49       1.0  0.29276  0.20886  0.59542  1.0000
  H   H74       1.0  0.28013  0.25114  0.64711  1.0000
  H   H75       1.0  0.18605  0.19911  0.56845  1.0000
  C   C50       1.0  0.10560  0.37989  0.92072  1.0000
  H   H76       1.0  0.14864  0.42360  0.97359  1.0000
  S   S24       1.0  0.22431  0.22968  0.62027  1.0000
  C   C51       1.0  0.11836  0.40481  0.93311  1.0000
  C   C52       1.0  0.24242  0.39808  0.98207  1.0000
  H   H77       1.0  0.18585  0.12033  0.88389  1.0000
  H   H78       1.0  0.09751  0.44213  0.02953  1.0000
  C   C53       1.0  0.28620  0.39017  0.01759  1.0000
  C   C54       1.0  0.19552  0.20907  0.63193  1.0000
  C   C55       1.0  0.17973  0.19698  0.60021  1.0000
  C   C56       1.0  0.15601  0.18164  0.60969  1.0000
  C   C57       1.0  0.14793  0.17849  0.65081  1.0000
  C   C58       1.0  0.16415  0.18985  0.68260  1.0000
  C   C59       1.0  0.18801  0.20501  0.67315  1.0000
  H   H79       1.0  0.13435  0.09475  0.84188  1.0000
  H   H80       1.0  0.14384  0.17220  0.58533  1.0000
  H   H81       1.0  0.15839  0.18699  0.71449  1.0000
  H   H82       1.0  0.20030  0.21409  0.69781  1.0000
  C   C60       1.0  0.14655  0.37878  0.98286  1.0000
  H   H83       1.0  0.27547  0.21247  0.57291  1.0000
  H   H84       1.0  0.09397  0.24544  0.88979  1.0000
  C   C61       1.0  0.13533  0.23091  0.98195  1.0000
  C   C62       1.0  0.12060  0.20913  0.96308  1.0000
  C   C63       1.0  0.12819  0.19919  0.92367  1.0000
  C   C64       1.0  0.15047  0.21103  0.90290  1.0000
  C   C65       1.0  0.16549  0.23247  0.92206  1.0000
  C   C66       1.0  0.15780  0.24254  0.96141  1.0000
  S   S25       1.0  0.17105  0.37852  0.02309  1.0000
  H   H85       1.0  0.11702  0.18216  0.90971  1.0000
  H   H86       1.0  0.18286  0.24159  0.90623  1.0000
  S   S26       1.0  0.18972  0.29750  0.03553  1.0000
  S   S27       1.0  0.12455  0.24373  0.03050  1.0000
  H   H87       1.0  0.10328  0.10115  0.92226  1.0000
  H   H88       1.0  0.31923  0.32423  0.61101  1.0000
  H   H89       1.0  0.09066  0.29710  0.87635  1.0000
  Fe  Fe13      1.0  0.08412  0.13549  0.80442  1.0000
  H   H90       1.0  0.32344  0.22251  0.66214  1.0000
  H   H91       1.0  0.16923  0.25936  0.97562  1.0000
  H   H92       1.0  0.10355  0.27987  0.94618  1.0000
  H   H93       1.0  0.16028  0.10685  0.96711  1.0000
  C   C67       1.0  0.11390  0.35432  0.93875  1.0000
  H   H94       1.0  0.29688  0.38193  0.04570  1.0000
  N   N5        1.0  0.25567  0.38727  0.02028  1.0000
  H   H95       1.0  0.10443  0.33502  0.92895  1.0000
  C   C68       1.0  0.29054  0.25747  0.61805  1.0000
  H   H96       1.0  0.29500  0.37833  0.99062  1.0000
  H   H97       1.0  0.24974  0.38600  0.95438  1.0000
  C   C69       1.0  0.32101  0.24327  0.56194  1.0000
  H   H98       1.0  0.15635  0.13920  0.86309  1.0000
  C   C70       1.0  0.16450  0.12849  0.89123  1.0000
  H   H99       1.0  0.16635  0.14508  0.91563  1.0000
  C   C71       1.0  0.13412  0.35377  0.97013  1.0000
  H   H100      1.0  0.27367  0.26304  0.59564  1.0000
  N   N6        1.0  0.14604  0.10570  0.90410  1.0000
  H   H101      1.0  0.25825  0.34858  0.05414  1.0000
  C   C72       1.0  0.15793  0.09164  0.94095  1.0000
  H   H102      1.0  0.11912  0.13309  0.94043  1.0000
  H   H103      1.0  0.28218  0.31420  0.55954  1.0000
  H   H104      1.0  0.11274  0.42448  0.91831  1.0000
  H   H105      1.0  0.09125  0.57585  0.87653  1.0000
  N   N7        1.0  0.30903  0.23463  0.60175  1.0000
  H   H106      1.0  0.22618  0.35420  0.02694  1.0000
  Fe  Fe14      1.0  0.21762  0.25149  0.55977  1.0000
  C   C73       1.0  0.13890  0.40425  0.96406  1.0000
  H   H107      1.0  0.28291  0.20208  0.62470  1.0000
  H   H108      1.0  0.10905  0.12923  0.88731  1.0000
  H   H109      1.0  0.29200  0.41264  0.01478  1.0000
  H   H110      1.0  0.30226  0.27687  0.62496  1.0000
  C   C74       1.0  0.11821  0.11782  0.91415  1.0000
  H   H111      1.0  0.25711  0.34405  0.99906  1.0000
  H   H112      1.0  0.14021  0.33397  0.98422  1.0000
  C   C75       1.0  0.24906  0.35721  0.02523  1.0000
  H   H113      1.0  0.21935  0.39640  0.98315  1.0000
  H   H114      1.0  0.08288  0.40832  0.02058  1.0000
  S   S28       1.0  0.08270  0.17565  0.84167  1.0000
  H   H115      1.0  0.09223  0.23544  0.67390  1.0000
  H   H116      1.0  0.24919  0.42645  0.05337  1.0000
  C   C76       1.0  0.08263  0.42679  0.04209  1.0000
  C   C77       1.0  0.27974  0.78872  0.49515  1.0000
  H   H117      1.0  0.21105  0.82606  0.38102  1.0000
  C   C78       1.0  0.12080  0.82153  0.39574  1.0000
  H   H118      1.0  0.17167  0.76869  0.33079  1.0000
  H   H119      1.0  0.08763  0.79341  0.31232  1.0000
  C   C79       1.0  0.30336  0.77456  0.51093  1.0000
  N   N8        1.0  0.16382  0.61499  0.29619  1.0000
  Fe  Fe15      1.0  0.13721  0.70658  0.26743  1.0000
  S   S29       1.0  0.11473  0.74835  0.26710  1.0000
  S   S30       1.0  0.18300  0.70083  0.28029  1.0000
  H   H120      1.0  0.14019  0.84216  0.20678  1.0000
  H   H121      1.0  0.30339  0.75188  0.51431  1.0000
  S   S31       1.0  0.23271  0.80229  0.07448  1.0000
  S   S32       1.0  0.10757  0.68691  0.31119  1.0000
  H   H122      1.0  0.13443  0.83403  0.13149  1.0000
  H   H123      1.0  0.30293  0.85589  0.50028  1.0000
  H   H124      1.0  0.32736  0.83368  0.09292  1.0000
  C   C80       1.0  0.23790  0.76127  0.21039  1.0000
  C   C81       1.0  0.24953  0.74212  0.23862  1.0000
  C   C82       1.0  0.23258  0.72318  0.25909  1.0000
  C   C83       1.0  0.20384  0.72339  0.25171  1.0000
  C   C84       1.0  0.19212  0.74226  0.22307  1.0000
  C   C85       1.0  0.20919  0.76115  0.20228  1.0000
  H   H125      1.0  0.27170  0.74206  0.24487  1.0000
  H   H126      1.0  0.24174  0.70859  0.28109  1.0000
  H   H127      1.0  0.16995  0.74235  0.21697  1.0000
  H   H128      1.0  0.20011  0.77566  0.18019  1.0000
  S   S33       1.0  0.09712  0.05163  0.26884  1.0000
  H   H129      1.0  0.09527  0.88402  0.13531  1.0000
  Fe  Fe16      1.0  0.09066  0.73034  0.21401  1.0000
  H   H130      1.0  0.16243  0.65360  0.33161  1.0000
  C   C86       1.0  0.09268  0.78233  0.41558  1.0000
  C   C87       1.0  0.11024  0.80424  0.42628  1.0000
  Fe  Fe17      1.0  0.08457  0.67363  0.25416  1.0000
  S   S34       1.0  0.20922  0.86728  0.06239  1.0000
  S   S35       1.0  0.25965  0.78584  0.18740  1.0000
  C   C88       1.0  0.11237  0.81796  0.35459  1.0000
  H   H131      1.0  0.24448  0.78982  0.31422  1.0000
  H   H132      1.0  0.17103  0.80546  0.34500  1.0000
  C   C89       1.0  0.22050  0.75532  0.36701  1.0000
  S   S36       1.0  0.14610  0.84591  0.40924  1.0000
  S   S37       1.0  0.11627  0.69029  0.21033  1.0000
  Fe  Fe18      1.0  0.21109  0.79441  0.50383  1.0000
  H   H133      1.0  0.11612  0.80721  0.45822  1.0000
  H   H134      1.0  0.12026  0.83155  0.33090  1.0000
  H   H135      1.0  0.15362  0.61565  0.23129  1.0000
  C   C90       1.0  0.32608  0.81926  0.52137  1.0000
  N   N9        1.0  0.21024  0.78389  0.35576  1.0000
  Fe  Fe19      1.0  0.23875  0.81443  0.14119  1.0000
  C   C91       1.0  0.21964  0.80446  0.38715  1.0000
  H   H136      1.0  0.21504  0.81345  0.30649  1.0000
  H   H137      1.0  0.21261  0.74910  0.39787  1.0000
  Fe  Fe20      1.0  0.08282  0.72738  0.30568  1.0000
  N   N10       1.0  0.10178  0.84736  0.17302  1.0000
  C   C92       1.0  0.30307  0.83320  0.50344  1.0000
  C   C93       1.0  0.22131  0.79151  0.31495  1.0000
  S   S38       1.0  0.17038  0.78360  0.47499  1.0000
  H   H138      1.0  0.26230  0.82893  0.47681  1.0000
  Fe  Fe21      1.0  0.15246  0.78946  0.53811  1.0000
  S   S39       1.0  0.14269  0.83560  0.53047  1.0000
  C   C94       1.0  0.17945  0.78429  0.35383  1.0000
  C   C95       1.0  0.11744  0.83917  0.21065  1.0000
  Fe  Fe22      1.0  0.25046  0.84454  0.06148  1.0000
  S   S40       1.0  0.24949  0.77003  0.48394  1.0000
  H   H139      1.0  0.21365  0.73920  0.34409  1.0000
  H   H140      1.0  0.17019  0.77909  0.38416  1.0000
  C   C96       1.0  0.27995  0.81797  0.49040  1.0000
  H   H141      1.0  0.24367  0.75417  0.36874  1.0000
  H   H142      1.0  0.21329  0.77742  0.29028  1.0000
  H   H143      1.0  0.24279  0.80537  0.38837  1.0000
  C   C97       1.0  0.09428  0.79619  0.34401  1.0000
  H   H144      1.0  0.21282  0.79860  0.41855  1.0000
  H   H145      1.0  0.20054  0.60395  0.26126  1.0000
  H   H146      1.0  0.31227  0.82915  0.18213  1.0000
  C   C98       1.0  0.32543  0.81210  0.16776  1.0000
  H   H147      1.0  0.12648  0.62858  0.26469  1.0000
  Fe  Fe23      1.0  0.19188  0.82604  0.08116  1.0000
  C   C99       1.0  0.08897  0.07673  0.30715  1.0000
  C   C100      1.0  0.15643  0.63113  0.33405  1.0000
  Fe  Fe24      1.0  0.16371  0.83026  0.46930  1.0000
  H   H148      1.0  0.08184  0.60477  0.38871  1.0000
  H   H149      1.0  0.13359  0.63093  0.33989  1.0000
  H   H150      1.0  0.11049  0.85197  0.23794  1.0000
  H   H151      1.0  0.09790  0.87356  0.44693  1.0000
  S   S41       1.0  0.20594  0.84080  0.49318  1.0000
  C   C101      1.0  0.16949  0.97320  0.29444  1.0000
  H   H152      1.0  0.15888  0.04430  0.30211  1.0000
  H   H153      1.0  0.15979  0.99208  0.21663  1.0000
  S   S42       1.0  0.19622  0.83452  0.14914  1.0000
  H   H154      1.0  0.18207  0.97046  0.32314  1.0000
  S   S43       1.0  0.20637  0.91674  0.15589  1.0000
  C   C102      1.0  0.11205  0.83028  0.13758  1.0000
  C   C103      1.0  0.08497  0.77794  0.37450  1.0000
  S   S44       1.0  0.08863  0.98295  0.33167  1.0000
  H   H155      1.0  0.15767  0.95146  0.16779  1.0000
  H   H156      1.0  0.13016  0.99914  0.24916  1.0000
  Fe  Fe25      1.0  0.07980  0.94868  0.28595  1.0000
  S   S45       1.0  0.26018  0.85487  0.12759  1.0000
  H   H157      1.0  0.21282  0.00798  0.29619  1.0000
  H   H158      1.0  0.20719  0.99565  0.24422  1.0000
  C   C104      1.0  0.17933  0.91483  0.19160  1.0000
  C   C105      1.0  0.17914  0.89329  0.22076  1.0000
  C   C106      1.0  0.15749  0.89235  0.24963  1.0000
  C   C107      1.0  0.13582  0.91263  0.24884  1.0000
  C   C108      1.0  0.13594  0.93397  0.21940  1.0000
  C   C109      1.0  0.15777  0.93516  0.19095  1.0000
  H   H159      1.0  0.19596  0.87768  0.22154  1.0000
  H   H160      1.0  0.15752  0.87586  0.27254  1.0000
  H   H161      1.0  0.17230  0.02056  0.34095  1.0000
  H   H162      1.0  0.19963  0.03191  0.25756  1.0000
  C   C110      1.0  0.15188  0.00544  0.24263  1.0000
  C   C111      1.0  0.19866  0.00988  0.26897  1.0000
  H   H163      1.0  0.12836  0.88218  0.16127  1.0000
  H   H164      1.0  0.15062  0.02763  0.23171  1.0000
  Fe  Fe26      1.0  0.21711  0.87397  0.12977  1.0000
  N   N11       1.0  0.16982  0.00261  0.27967  1.0000
  H   H165      1.0  0.11910  0.94933  0.21807  1.0000
  C   C112      1.0  0.15930  0.02196  0.31247  1.0000
  H   H166      1.0  0.11021  0.80733  0.14322  1.0000
  H   H167      1.0  0.14791  0.96655  0.30134  1.0000
  H   H168      1.0  0.17816  0.95815  0.27090  1.0000
  H   H169      1.0  0.13754  0.01713  0.32112  1.0000
  C   C113      1.0  0.32651  0.78984  0.52418  1.0000
  S   S46       1.0  0.10832  0.91043  0.28387  1.0000
  H   H170      1.0  0.09756  0.87881  0.37009  1.0000
  C   C114      1.0  0.10585  0.87752  0.16450  1.0000
  H   H171      1.0  0.16706  0.62220  0.36177  1.0000
  H   H172      1.0  0.11449  0.81653  0.21805  1.0000
  S   S47       1.0  0.08094  0.75908  0.16126  1.0000
  H   H173      1.0  0.10032  0.83533  0.10878  1.0000
  H   H174      1.0  0.08627  0.76789  0.43890  1.0000
  C   C115      1.0  0.14941  0.62778  0.26028  1.0000
  H   H175      1.0  0.14926  0.87136  0.07200  1.0000
  H   H176      1.0  0.20588  0.60621  0.31627  1.0000
  H   H177      1.0  0.20131  0.63782  0.28651  1.0000
  H   H178      1.0  0.15606  0.64978  0.25530  1.0000
  H   H179      1.0  0.09715  0.92068  0.41616  1.0000
  C   C116      1.0  0.19427  0.61570  0.28980  1.0000
  H   H180      1.0  0.09728  0.89117  0.18983  1.0000
  H   H181      1.0  0.31198  0.80097  0.14497  1.0000
  S   S48       1.0  0.11653  0.76233  0.55446  1.0000
  C   C117      1.0  0.07984  0.59695  0.35735  1.0000
  H   H182      1.0  0.29117  0.79677  0.02895  1.0000
  H   H183      1.0  0.10271  0.83396  0.77005  1.0000
  H   H184      1.0  0.25420  0.80842  0.62120  1.0000
  H   H185      1.0  0.08509  0.80769  0.03594  1.0000
  H   H186      1.0  0.16126  0.75578  0.61463  1.0000
  H   H187      1.0  0.08530  0.99411  0.83701  1.0000
  S   S49       1.0  0.15238  0.81221  0.05016  1.0000
  H   H188      1.0  0.16141  0.73659  0.68577  1.0000
  H   H189      1.0  0.19972  0.82585  0.64725  1.0000
  H   H190      1.0  0.27172  0.81842  0.57517  1.0000
  C   C118      1.0  0.09388  0.73575  0.61977  1.0000
  H   H191      1.0  0.29930  0.86323  0.57547  1.0000
  H   H192      1.0  0.11383  0.76839  0.00639  1.0000
  H   H193      1.0  0.14373  0.80835  0.74413  1.0000
  C   C119      1.0  0.26120  0.82686  0.60337  1.0000
  H   H194      1.0  0.25829  0.83626  0.68447  1.0000
  C   C120      1.0  0.11804  0.74714  0.60348  1.0000
  C   C121      1.0  0.14247  0.74731  0.62717  1.0000
  C   C122      1.0  0.14256  0.73635  0.66730  1.0000
  C   C123      1.0  0.11814  0.72562  0.68384  1.0000
  C   C124      1.0  0.09394  0.72510  0.65987  1.0000
  C   C125      1.0  0.13056  0.79755  0.72081  1.0000
  S   S50       1.0  0.11738  0.71507  0.73546  1.0000
  H   H195      1.0  0.17888  0.08209  0.93437  1.0000
  H   H196      1.0  0.12360  0.81696  0.97277  1.0000
  H   H197      1.0  0.32057  0.84115  0.65642  1.0000
  C   C126      1.0  0.09772  0.75348  0.01659  1.0000
  H   H198      1.0  0.24229  0.83894  0.59311  1.0000
  H   H199      1.0  0.12728  0.83650  0.66143  1.0000
  C   C127      1.0  0.14348  0.08487  0.87006  1.0000
  H   H200      1.0  0.12457  0.77708  0.73434  1.0000
  C   C128      1.0  0.18997  0.83843  0.70979  1.0000
  H   H201      1.0  0.20888  0.90375  0.93346  1.0000
  C   C129      1.0  0.08806  0.79922  0.68067  1.0000
  H   H202      1.0  0.19341  0.81750  0.72212  1.0000
  C   C130      1.0  0.08985  0.82211  0.74742  1.0000
  H   H203      1.0  0.30055  0.80951  0.65782  1.0000
  H   H204      1.0  0.30119  0.88387  0.62169  1.0000
  H   H205      1.0  0.14380  0.79279  0.69337  1.0000
  H   H206      1.0  0.22585  0.88583  0.97564  1.0000
  H   H207      1.0  0.08275  0.80276  0.76305  1.0000
  H   H208      1.0  0.12949  0.06747  0.87853  1.0000
  C   C131      1.0  0.09684  0.06371  0.77796  1.0000
  Fe  Fe27      1.0  0.13878  0.88449  0.80662  1.0000
  H   H209      1.0  0.20797  0.81375  0.93911  1.0000
  S   S51       1.0  0.17272  0.85396  0.78740  1.0000
  H   H210      1.0  0.18788  0.83496  0.97497  1.0000
  H   H211      1.0  0.18581  0.83868  0.88001  1.0000
  S   S52       1.0  0.27917  0.85510  0.00952  1.0000
  C   C132      1.0  0.10224  0.01268  0.78245  1.0000
  S   S53       1.0  0.14517  0.92588  0.83868  1.0000
  C   C133      1.0  0.19331  0.84308  0.66737  1.0000
  C   C134      1.0  0.20803  0.88485  0.95347  1.0000
  N   N12       1.0  0.27999  0.84471  0.62804  1.0000
  C   C135      1.0  0.20744  0.83406  0.95662  1.0000
  H   H212      1.0  0.10005  0.08305  0.76137  1.0000
  H   H213      1.0  0.17814  0.91350  0.66567  1.0000
  H   H214      1.0  0.23742  0.83694  0.88696  1.0000
  C   C136      1.0  0.12083  0.88871  0.97883  1.0000
  H   H215      1.0  0.11699  0.03735  0.73180  1.0000
  C   C137      1.0  0.31048  0.83523  0.01081  1.0000
  H   H216      1.0  0.16534  0.86003  0.91527  1.0000
  H   H217      1.0  0.18843  0.88668  0.97174  1.0000
  C   C138      1.0  0.13177  0.89213  0.01864  1.0000
  S   S54       1.0  0.11245  0.91869  0.94943  1.0000
  Fe  Fe28      1.0  0.11101  0.91220  0.88064  1.0000
  H   H218      1.0  0.22516  0.83337  0.97900  1.0000
  C   C139      1.0  0.18570  0.85834  0.89912  1.0000
  C   C140      1.0  0.18903  0.87018  0.65143  1.0000
  H   H219      1.0  0.18660  0.87632  0.87733  1.0000
  Fe  Fe29      1.0  0.11008  0.94156  0.79811  1.0000
  C   C141      1.0  0.18115  0.86059  0.73589  1.0000
  C   C142      1.0  0.17676  0.88760  0.71989  1.0000
  C   C143      1.0  0.18122  0.89247  0.67786  1.0000
  C   C144      1.0  0.08855  0.01342  0.82048  1.0000
  C   C145      1.0  0.23582  0.85663  0.90589  1.0000
  H   H220      1.0  0.17001  0.90484  0.73991  1.0000
  N   N13       1.0  0.10580  0.81502  0.70965  1.0000
  H   H221      1.0  0.10757  0.85844  0.93331  1.0000
  C   C146      1.0  0.12549  0.83788  0.98591  1.0000
  C   C147      1.0  0.13789  0.84143  0.02467  1.0000
  S   S55       1.0  0.10629  0.90093  0.76256  1.0000
  S   S56       1.0  0.19499  0.87706  0.59920  1.0000
  S   S57       1.0  0.11305  0.98056  0.75959  1.0000
  H   H222      1.0  0.24710  0.86798  0.65879  1.0000
  S   S58       1.0  0.10784  0.86935  0.85198  1.0000
  H   H223      1.0  0.13439  0.91310  0.03137  1.0000
  C   C148      1.0  0.11690  0.86149  0.96311  1.0000
  H   H224      1.0  0.23792  0.87476  0.88465  1.0000
  C   C149      1.0  0.14033  0.86851  0.04154  1.0000
  N   N14       1.0  0.20923  0.85846  0.92877  1.0000
  H   H225      1.0  0.08109  0.77920  0.69451  1.0000
  C   C150      1.0  0.31057  0.80690  0.02233  1.0000
  C   C151      1.0  0.30546  0.82817  0.63887  1.0000
  C   C152      1.0  0.10641  0.03785  0.76127  1.0000
  H   H226      1.0  0.14433  0.07448  0.95158  1.0000
  H   H227      1.0  0.09652  0.85471  0.68036  1.0000
  H   H228      1.0  0.10422  0.74593  0.04780  1.0000
  C   C153      1.0  0.11470  0.84117  0.68966  1.0000
  C   C154      1.0  0.28758  0.86956  0.60370  1.0000
  H   H229      1.0  0.25405  0.85666  0.92737  1.0000
  H   H230      1.0  0.27959  0.86694  0.68628  1.0000
  C   C155      1.0  0.26565  0.85434  0.66615  1.0000
  H   H231      1.0  0.12780  0.85380  0.71080  1.0000
  C   C156      1.0  0.08293  0.06442  0.81580  1.0000
  H   H232      1.0  0.09828  0.73497  0.99517  1.0000
  H   H233      1.0  0.26873  0.88193  0.59368  1.0000
  H   H234      1.0  0.09945  0.79366  0.65172  1.0000
  S   S59       1.0  0.19417  0.79552  0.56851  1.0000
  H   H235      1.0  0.31645  0.82019  0.61067  1.0000
  H   H236      1.0  0.16405  0.07532  0.86134  1.0000
  C   C157      1.0  0.07883  0.03927  0.83706  1.0000
  Fe  Fe30      1.0  0.18581  0.84138  0.55557  1.0000
  H   H237      1.0  0.38075  0.31868  0.51524  1.0000
  H   H238      1.0  0.48191  0.39027  0.33531  1.0000
  H   H239      1.0  0.53086  0.37521  0.12533  1.0000
  H   H240      1.0  0.46468  0.21419  0.39080  1.0000
  H   H241      1.0  0.45337  0.23021  0.48133  1.0000
  H   H242      1.0  0.51476  0.23866  0.49421  1.0000
  H   H243      1.0  0.56795  0.32499  0.51913  1.0000
  N   N15       1.0  0.34777  0.27566  0.18566  1.0000
  H   H244      1.0  0.34370  0.30976  0.46352  1.0000
  C   C158      1.0  0.55224  0.57252  0.28464  1.0000
  C   C159      1.0  0.50533  0.24493  0.46404  1.0000
  H   H245      1.0  0.37891  0.30219  0.16041  1.0000
  S   S60       1.0  0.43549  0.44418  0.05692  1.0000
  H   H246      1.0  0.35061  0.29518  0.12610  1.0000
  Fe  Fe31      1.0  0.57663  0.41502  0.28070  1.0000
  C   C160      1.0  0.50953  0.19763  0.43624  1.0000
  H   H247      1.0  0.52243  0.25187  0.44370  1.0000
  H   H248      1.0  0.34713  0.31603  0.21672  1.0000
  H   H249      1.0  0.51547  0.40702  0.45537  1.0000
  Fe  Fe32      1.0  0.36218  0.39089  0.13187  1.0000
  S   S61       1.0  0.38705  0.42892  0.14751  1.0000
  H   H250      1.0  0.46032  0.50628  0.13699  1.0000
  H   H251      1.0  0.53342  0.39123  0.34573  1.0000
  H   H252      1.0  0.54751  0.39847  0.39610  1.0000
  S   S62       1.0  0.38300  0.36307  0.17902  1.0000
  S   S63       1.0  0.38965  0.37719  0.07919  1.0000
  H   H253      1.0  0.51874  0.44255  0.39987  1.0000
  S   S64       1.0  0.56276  0.51799  0.26021  1.0000
  Fe  Fe33      1.0  0.56051  0.18802  0.26909  1.0000
  N   N16       1.0  0.49122  0.47726  0.16122  1.0000
  Fe  Fe34      1.0  0.50948  0.22582  0.26193  1.0000
  S   S65       1.0  0.53439  0.26461  0.25547  1.0000
  S   S66       1.0  0.46353  0.23426  0.26506  1.0000
  H   H254      1.0  0.51428  0.28905  0.15147  1.0000
  Fe  Fe35      1.0  0.55998  0.24668  0.30713  1.0000
  S   S67       1.0  0.57210  0.27484  0.36005  1.0000
  S   S68       1.0  0.53415  0.20111  0.21452  1.0000
  S   S69       1.0  0.53319  0.20938  0.31675  1.0000
  C   C161      1.0  0.55798  0.11965  0.29762  1.0000
  N   N17       1.0  0.48997  0.22152  0.44487  1.0000
  Fe  Fe36      1.0  0.56172  0.23857  0.21394  1.0000
  C   C162      1.0  0.33258  0.29974  0.20528  1.0000
  H   H255      1.0  0.49873  0.17963  0.42138  1.0000
  H   H256      1.0  0.45913  0.39496  0.37877  1.0000
  C   C163      1.0  0.56908  0.09290  0.30718  1.0000
  S   S70       1.0  0.46170  0.32767  0.43641  1.0000
  C   C164      1.0  0.54186  0.29072  0.38087  1.0000
  C   C165      1.0  0.51629  0.28793  0.36060  1.0000
  C   C166      1.0  0.49195  0.29997  0.37740  1.0000
  C   C167      1.0  0.49281  0.31387  0.41552  1.0000
  C   C168      1.0  0.51837  0.31680  0.43606  1.0000
  C   C169      1.0  0.54296  0.30551  0.41846  1.0000
  H   H257      1.0  0.51495  0.27612  0.33221  1.0000
  H   H258      1.0  0.47230  0.29777  0.36125  1.0000
  H   H259      1.0  0.51934  0.32824  0.46498  1.0000
  H   H260      1.0  0.56272  0.30783  0.43417  1.0000
  C   C170      1.0  0.44037  0.28943  0.15528  1.0000
  C   C171      1.0  0.45436  0.26353  0.14913  1.0000
  C   C172      1.0  0.46204  0.24687  0.18302  1.0000
  C   C173      1.0  0.45497  0.25571  0.22302  1.0000
  C   C174      1.0  0.44135  0.28183  0.22930  1.0000
  C   C175      1.0  0.43442  0.29891  0.19543  1.0000
  H   H261      1.0  0.45916  0.25624  0.11812  1.0000
  H   H262      1.0  0.47282  0.22681  0.17817  1.0000
  C   C176      1.0  0.54985  0.32230  0.11254  1.0000
  H   H263      1.0  0.49295  0.23736  0.38308  1.0000
  C   C177      1.0  0.56477  0.56224  0.36757  1.0000
  C   C178      1.0  0.56647  0.54011  0.33855  1.0000
  H   H264      1.0  0.52114  0.14649  0.29770  1.0000
  C   C179      1.0  0.51553  0.31102  0.16376  1.0000
  H   H265      1.0  0.47726  0.20485  0.50321  1.0000
  H   H266      1.0  0.43647  0.28896  0.26037  1.0000
  Fe  Fe37      1.0  0.45944  0.32159  0.50461  1.0000
  H   H267      1.0  0.54901  0.30069  0.09886  1.0000
  H   H268      1.0  0.45581  0.19503  0.46001  1.0000
  C   C180      1.0  0.50177  0.43140  0.38331  1.0000
  C   C181      1.0  0.56017  0.54524  0.29707  1.0000
  H   H269      1.0  0.49937  0.37400  0.44479  1.0000
  C   C182      1.0  0.35930  0.31769  0.52498  1.0000
  C   C183      1.0  0.36417  0.28576  0.15046  1.0000
  H   H270      1.0  0.38185  0.27785  0.22882  1.0000
  H   H271      1.0  0.35525  0.25387  0.24286  1.0000
  H   H272      1.0  0.56958  0.55820  0.39971  1.0000
  C   C184      1.0  0.52984  0.12592  0.30519  1.0000
  C   C185      1.0  0.51273  0.10522  0.32144  1.0000
  H   H273      1.0  0.49081  0.10990  0.32639  1.0000
  H   H274      1.0  0.53118  0.36542  0.38535  1.0000
  H   H275      1.0  0.48073  0.36379  0.37366  1.0000
  C   C186      1.0  0.33831  0.31269  0.49575  1.0000
  H   H276      1.0  0.54100  0.36018  0.17401  1.0000
  H   H277      1.0  0.46573  0.50889  0.19185  1.0000
  H   H278      1.0  0.46271  0.24971  0.41088  1.0000
  S   S71       1.0  0.56475  0.44813  0.32778  1.0000
  C   C187      1.0  0.48011  0.38696  0.36904  1.0000
  H   H279      1.0  0.51961  0.18977  0.46513  1.0000
  H   H280      1.0  0.33830  0.23648  0.15530  1.0000
  H   H281      1.0  0.42418  0.31917  0.20046  1.0000
  S   S72       1.0  0.42984  0.30916  0.11228  1.0000
  H   H282      1.0  0.49780  0.30960  0.08575  1.0000
  H   H283      1.0  0.48053  0.33861  0.11132  1.0000
  N   N18       1.0  0.52283  0.33102  0.13099  1.0000
  N   N19       1.0  0.50266  0.40088  0.39217  1.0000
  H   H284      1.0  0.47833  0.40547  0.44762  1.0000
  H   H285      1.0  0.50253  0.47960  0.22561  1.0000
  S   S73       1.0  0.44233  0.38667  0.14348  1.0000
  S   S74       1.0  0.42531  0.41677  0.25060  1.0000
  H   H286      1.0  0.48154  0.44139  0.39279  1.0000
  H   H287      1.0  0.52379  0.45563  0.19527  1.0000
  H   H288      1.0  0.49116  0.52248  0.15721  1.0000
  S   S75       1.0  0.43358  0.28721  0.53019  1.0000
  H   H289      1.0  0.54718  0.57647  0.25258  1.0000
  S   S76       1.0  0.55125  0.37835  0.26051  1.0000
  H   H290      1.0  0.53141  0.31067  0.18893  1.0000
  C   C188      1.0  0.52498  0.35964  0.14901  1.0000
  C   C189      1.0  0.51227  0.47628  0.19474  1.0000
  C   C190      1.0  0.46002  0.40565  0.25494  1.0000
  C   C191      1.0  0.48026  0.42527  0.26486  1.0000
  C   C192      1.0  0.50842  0.41699  0.26522  1.0000
  C   C193      1.0  0.51621  0.38882  0.25782  1.0000
  C   C194      1.0  0.49591  0.36901  0.24882  1.0000
  C   C195      1.0  0.46781  0.37757  0.24646  1.0000
  H   H291      1.0  0.47418  0.44699  0.27127  1.0000
  H   H292      1.0  0.52404  0.43246  0.27117  1.0000
  H   H293      1.0  0.50187  0.34711  0.24370  1.0000
  H   H294      1.0  0.45208  0.36236  0.23889  1.0000
  H   H295      1.0  0.37941  0.24473  0.20224  1.0000
  C   C196      1.0  0.47696  0.23110  0.40578  1.0000
  H   H296      1.0  0.49131  0.26356  0.47009  1.0000
  H   H297      1.0  0.56060  0.29252  0.54447  1.0000
  C   C197      1.0  0.50095  0.33114  0.09870  1.0000
  H   H298      1.0  0.48996  0.47450  0.09490  1.0000
  C   C198      1.0  0.47648  0.50499  0.16182  1.0000
  H   H299      1.0  0.50483  0.36701  0.16270  1.0000
  Fe  Fe38      1.0  0.41283  0.35241  0.12768  1.0000
  H   H300      1.0  0.51570  0.45186  0.11874  1.0000
  Fe  Fe39      1.0  0.41685  0.41264  0.09940  1.0000
  H   H301      1.0  0.45888  0.45799  0.19633  1.0000
  C   C199      1.0  0.52990  0.38849  0.37937  1.0000
  Fe  Fe40      1.0  0.41029  0.40000  0.19011  1.0000
  H   H302      1.0  0.45534  0.45425  0.14149  1.0000
  H   H303      1.0  0.50431  0.43533  0.34974  1.0000
  H   H304      1.0  0.50611  0.34523  0.07268  1.0000
  C   C200      1.0  0.46810  0.21246  0.47351  1.0000
  H   H305      1.0  0.52799  0.49298  0.19122  1.0000
  H   H306      1.0  0.48128  0.43362  0.16865  1.0000
  C   C201      1.0  0.49883  0.39673  0.43696  1.0000
  C   C202      1.0  0.47085  0.45480  0.16720  1.0000
  C   C203      1.0  0.50518  0.47301  0.12093  1.0000
  H   H307      1.0  0.52123  0.48911  0.11574  1.0000
  H   H308      1.0  0.52646  0.20389  0.41499  1.0000
  H   H309      1.0  0.49497  0.31661  0.17784  1.0000
  H   H310      1.0  0.56680  0.32186  0.13616  1.0000
  H   H311      1.0  0.55609  0.33689  0.08769  1.0000
  H   H312      1.0  0.37682  0.26842  0.13580  1.0000
  H   H313      1.0  0.33079  0.34143  0.09073  1.0000
  C   C204      1.0  0.36684  0.26240  0.21624  1.0000
  H   H314      1.0  0.47807  0.40240  0.07999  1.0000
  S   S77       1.0  0.49755  0.30993  0.54069  1.0000
  S   S78       1.0  0.57690  0.26135  0.15852  1.0000
  S   S79       1.0  0.44453  0.35500  0.54918  1.0000
  H   H315      1.0  0.57254  0.51908  0.34833  1.0000
  H   H316      1.0  0.57733  0.32219  0.26001  1.0000
  C   C205      1.0  0.57770  0.30658  0.53522  1.0000
  H   H317      1.0  0.33420  0.22613  0.54795  1.0000
  S   S80       1.0  0.51202  0.36965  0.61526  1.0000
  S   S81       1.0  0.57660  0.39241  0.88171  1.0000
  H   H318      1.0  0.56121  0.25142  0.82925  1.0000
  C   C206      1.0  0.55497  0.30769  0.84281  1.0000
  S   S82       1.0  0.37849  0.32541  0.60405  1.0000
  C   C207      1.0  0.57590  0.33188  0.60029  1.0000
  H   H319      1.0  0.53067  0.26511  0.80304  1.0000
  H   H320      1.0  0.55787  0.58338  0.87352  1.0000
  S   S83       1.0  0.45669  0.30746  0.62170  1.0000
  C   C208      1.0  0.55657  0.57938  0.78475  1.0000
  S   S84       1.0  0.48923  0.23520  0.58006  1.0000
  H   H321      1.0  0.56320  0.33126  0.76969  1.0000
  H   H322      1.0  0.49779  0.45834  0.80054  1.0000
  C   C209      1.0  0.56250  0.24619  0.66827  1.0000
  C   C210      1.0  0.55556  0.21909  0.65496  1.0000
  C   C211      1.0  0.53281  0.21550  0.62805  1.0000
  C   C212      1.0  0.51702  0.23900  0.61490  1.0000
  C   C213      1.0  0.52379  0.26593  0.62910  1.0000
  C   C214      1.0  0.54636  0.26949  0.65586  1.0000
  C   C215      1.0  0.47930  0.45238  0.00562  1.0000
  H   H323      1.0  0.52758  0.19461  0.61730  1.0000
  H   H324      1.0  0.51175  0.28416  0.61948  1.0000
  H   H325      1.0  0.55143  0.29038  0.66669  1.0000
  Fe  Fe41      1.0  0.42178  0.31960  0.57854  1.0000
  H   H326      1.0  0.56145  0.29601  0.87107  1.0000
  N   N20       1.0  0.56514  0.29320  0.80494  1.0000
  C   C216      1.0  0.46891  0.43613  0.03767  1.0000
  H   H327      1.0  0.56380  0.29947  0.73923  1.0000
  H   H328      1.0  0.53264  0.31040  0.76603  1.0000
  H   H329      1.0  0.53208  0.44169  0.72288  1.0000
  Fe  Fe42      1.0  0.48063  0.34020  0.58824  1.0000
  C   C217      1.0  0.51349  0.36872  0.66930  1.0000
  H   H330      1.0  0.53180  0.30985  0.84281  1.0000
  Fe  Fe43      1.0  0.47065  0.27838  0.57055  1.0000
  H   H331      1.0  0.47373  0.34938  0.67613  1.0000
  H   H332      1.0  0.45538  0.43708  0.70985  1.0000
  H   H333      1.0  0.34449  0.24803  0.63705  1.0000
  C   C218      1.0  0.49175  0.35743  0.69185  1.0000
  H   H334      1.0  0.56041  0.25341  0.77384  1.0000
  C   C219      1.0  0.33179  0.22894  0.63169  1.0000
  H   H335      1.0  0.52273  0.47258  0.69398  1.0000
  H   H336      1.0  0.53100  0.47570  0.74794  1.0000
  H   H337      1.0  0.48586  0.50040  0.75986  1.0000
  C   C220      1.0  0.55386  0.26451  0.80278  1.0000
  Fe  Fe44      1.0  0.55901  0.42732  0.92153  1.0000
  S   S85       1.0  0.52152  0.43474  0.88133  1.0000
  S   S86       1.0  0.55708  0.41960  0.98984  1.0000
  S   S87       1.0  0.56484  0.43488  0.80284  1.0000
  Fe  Fe45      1.0  0.54793  0.46613  0.84922  1.0000
  S   S88       1.0  0.52669  0.50650  0.82833  1.0000
  Fe  Fe46      1.0  0.54154  0.40300  0.83856  1.0000
  S   S89       1.0  0.51605  0.36887  0.81006  1.0000
  H   H338      1.0  0.34617  0.21178  0.62049  1.0000
  C   C221      1.0  0.53862  0.55794  0.79646  1.0000
  C   C222      1.0  0.54950  0.53239  0.81180  1.0000
  H   H339      1.0  0.46634  0.46890  0.99212  1.0000
  H   H340      1.0  0.45393  0.48425  0.74460  1.0000
  H   H341      1.0  0.51234  0.58138  0.90656  1.0000
  C   C223      1.0  0.51544  0.36892  0.75594  1.0000
  H   H342      1.0  0.50038  0.42435  0.77627  1.0000
  C   C224      1.0  0.49283  0.35730  0.73509  1.0000
  C   C225      1.0  0.53627  0.38016  0.69014  1.0000
  C   C226      1.0  0.53724  0.38026  0.73345  1.0000
  H   H343      1.0  0.47930  0.44952  0.67180  1.0000
  H   H344      1.0  0.55325  0.38881  0.67281  1.0000
  H   H345      1.0  0.55517  0.38850  0.74926  1.0000
  H   H346      1.0  0.47589  0.34855  0.75238  1.0000
  S   S90       1.0  0.57737  0.19216  0.77871  1.0000
  H   H347      1.0  0.56305  0.32945  0.84536  1.0000
  C   C227      1.0  0.52324  0.42615  0.00827  1.0000
  C   C228      1.0  0.50632  0.44723  0.99065  1.0000
  H   H348      1.0  0.51416  0.45987  0.96585  1.0000
  C   C229      1.0  0.35245  0.32135  0.56663  1.0000
  N   N21       1.0  0.49083  0.45844  0.73488  1.0000
  C   C230      1.0  0.48885  0.44493  0.77569  1.0000
  C   C231      1.0  0.47627  0.48626  0.73631  1.0000
  C   C232      1.0  0.47779  0.44032  0.70319  1.0000
  C   C233      1.0  0.52045  0.46227  0.72445  1.0000
  H   H349      1.0  0.46687  0.44092  0.78412  1.0000
  H   H350      1.0  0.47725  0.49707  0.70602  1.0000
  H   H351      1.0  0.51630  0.56115  0.79375  1.0000
  H   H352      1.0  0.33438  0.26195  0.56590  1.0000
  H   H353      1.0  0.56795  0.35184  0.58622  1.0000
  H   H354      1.0  0.48815  0.41909  0.70189  1.0000
  C   C234      1.0  0.55579  0.30926  0.76834  1.0000
  H   H355      1.0  0.56801  0.20099  0.66466  1.0000
  H   H356      1.0  0.55735  0.31979  0.60912  1.0000
  C   C235      1.0  0.57833  0.52802  0.81446  1.0000
  C   C236      1.0  0.51315  0.41025  0.04093  1.0000
  H   H357      1.0  0.52630  0.39394  0.05439  1.0000
  C   C237      1.0  0.48586  0.41498  0.05529  1.0000
  H   H358      1.0  0.35431  0.78803  0.10592  1.0000
  C   C238      1.0  0.54026  0.04573  0.16868  1.0000
  S   S91       1.0  0.46752  0.79476  0.06517  1.0000
  C   C239      1.0  0.53553  0.97774  0.51974  1.0000
  H   H359      1.0  0.38547  0.80760  0.11236  1.0000
  H   H360      1.0  0.57179  0.81125  0.16704  1.0000
  C   C240      1.0  0.55100  0.59476  0.31358  1.0000
  H   H361      1.0  0.54840  0.02450  0.15884  1.0000
  H   H362      1.0  0.38676  0.84652  0.16457  1.0000
  Fe  Fe47      1.0  0.39345  0.81563  0.55070  1.0000
  C   C241      1.0  0.53441  0.67341  0.51320  1.0000
  C   C242      1.0  0.56969  0.84631  0.49936  1.0000
  N   N22       1.0  0.52407  0.04398  0.20723  1.0000
  H   H363      1.0  0.55848  0.05960  0.17290  1.0000
  C   C243      1.0  0.52367  0.07820  0.32991  1.0000
  C   C244      1.0  0.51532  0.72018  0.50120  1.0000
  H   H364      1.0  0.52729  0.05446  0.14304  1.0000
  H   H365      1.0  0.50076  0.73727  0.51202  1.0000
  C   C245      1.0  0.34166  0.84358  0.11552  1.0000
  N   N23       1.0  0.35042  0.82336  0.14781  1.0000
  H   H366      1.0  0.53131  0.92705  0.48365  1.0000
  H   H367      1.0  0.57683  0.93914  0.51603  1.0000
  H   H368      1.0  0.54471  0.80394  0.53866  1.0000
  S   S92       1.0  0.43468  0.72735  0.48197  1.0000
  H   H369      1.0  0.33024  0.86223  0.12880  1.0000
  H   H370      1.0  0.53977  0.76314  0.12809  1.0000
  H   H371      1.0  0.54567  0.97640  0.48881  1.0000
  H   H372      1.0  0.50047  0.08229  0.19541  1.0000
  Fe  Fe48      1.0  0.55212  0.72107  0.34968  1.0000
  S   S93       1.0  0.51822  0.75322  0.33821  1.0000
  S   S94       1.0  0.54911  0.69668  0.40801  1.0000
  H   H373      1.0  0.54658  0.99398  0.53817  1.0000
  H   H374      1.0  0.54484  0.61579  0.30395  1.0000
  C   C246      1.0  0.45646  0.73517  0.44049  1.0000
  C   C247      1.0  0.46884  0.76153  0.43831  1.0000
  C   C248      1.0  0.48711  0.76738  0.40610  1.0000
  C   C249      1.0  0.49343  0.74672  0.37626  1.0000
  C   C250      1.0  0.48148  0.72019  0.37873  1.0000
  C   C251      1.0  0.46281  0.71449  0.41064  1.0000
  H   H375      1.0  0.46488  0.77728  0.46190  1.0000
  H   H376      1.0  0.49695  0.78758  0.40523  1.0000
  H   H377      1.0  0.48668  0.70400  0.35605  1.0000
  H   H378      1.0  0.45357  0.69396  0.41247  1.0000
  H   H379      1.0  0.37465  0.82326  0.20379  1.0000
  C   C252      1.0  0.51378  0.07243  0.21975  1.0000
  H   H380      1.0  0.50108  0.07160  0.24845  1.0000
  C   C253      1.0  0.48641  0.68464  0.53036  1.0000
  S   S95       1.0  0.56689  0.68359  0.31188  1.0000
  H   H381      1.0  0.53533  0.65490  0.53403  1.0000
  H   H382      1.0  0.55598  0.68137  0.51044  1.0000
  H   H383      1.0  0.44577  0.81190  0.34787  1.0000
  H   H384      1.0  0.55291  0.78567  0.44890  1.0000
  H   H385      1.0  0.56041  0.04575  0.24618  1.0000
  H   H386      1.0  0.48642  0.03296  0.17518  1.0000
  N   N24       1.0  0.53638  0.95009  0.54048  1.0000
  H   H387      1.0  0.50906  0.81927  0.35141  1.0000
  H   H388      1.0  0.47059  0.87852  0.30232  1.0000
  H   H389      1.0  0.50646  0.84712  0.26840  1.0000
  C   C254      1.0  0.55747  0.58965  0.35504  1.0000
  H   H390      1.0  0.52797  0.66567  0.48206  1.0000
  N   N25       1.0  0.47578  0.83393  0.31194  1.0000
  H   H391      1.0  0.34425  0.77890  0.53776  1.0000
  C   C255      1.0  0.55162  0.80856  0.45701  1.0000
  Fe  Fe49      1.0  0.42894  0.76585  0.52200  1.0000
  C   C256      1.0  0.49458  0.83778  0.34775  1.0000
  S   S96       1.0  0.41930  0.80791  0.49409  1.0000
  Fe  Fe50      1.0  0.45466  0.82291  0.53333  1.0000
  H   H392      1.0  0.48716  0.02426  0.22899  1.0000
  H   H393      1.0  0.44324  0.80622  0.29291  1.0000
  C   C257      1.0  0.54216  0.03227  0.24013  1.0000
  H   H394      1.0  0.50742  0.85686  0.34423  1.0000
  H   H395      1.0  0.50596  0.80967  0.27674  1.0000
  H   H396      1.0  0.48260  0.84055  0.37700  1.0000
  C   C258      1.0  0.55200  0.07226  0.32361  1.0000
  H   H397      1.0  0.55806  0.83629  0.10262  1.0000
  H   H398      1.0  0.55038  0.01081  0.23193  1.0000
  C   C259      1.0  0.56571  0.94058  0.54612  1.0000
  H   H399      1.0  0.54885  0.85211  0.51214  1.0000
  C   C260      1.0  0.36772  0.83789  0.17890  1.0000
  H   H400      1.0  0.35599  0.85581  0.19372  1.0000
  Fe  Fe51      1.0  0.55021  0.95625  0.37084  1.0000
  S   S97       1.0  0.50946  0.97597  0.39034  1.0000
  H   H401      1.0  0.52986  0.81340  0.46717  1.0000
  Fe  Fe52      1.0  0.53549  0.96082  0.27976  1.0000
  S   S98       1.0  0.49331  0.97996  0.29266  1.0000
  S   S99       1.0  0.54556  0.95236  0.21287  1.0000
  Fe  Fe53      1.0  0.51582  0.00642  0.33920  1.0000
  S   S100      1.0  0.50101  0.05177  0.34512  1.0000
  Fe  Fe54      1.0  0.49143  0.94775  0.34228  1.0000
  S   S101      1.0  0.45428  0.92294  0.35910  1.0000
  S   S102      1.0  0.55868  0.98939  0.32343  1.0000
  S   S103      1.0  0.53175  0.92596  0.32543  1.0000
  C   C261      1.0  0.45790  0.85947  0.30698  1.0000
  H   H402      1.0  0.53049  0.03059  0.26955  1.0000
  Fe  Fe55      1.0  0.47109  0.83960  0.08641  1.0000
  H   H403      1.0  0.37434  0.78448  0.15242  1.0000
  H   H404      1.0  0.44482  0.86361  0.33483  1.0000
  S   S104      1.0  0.47613  0.84743  0.15462  1.0000
  C   C262      1.0  0.52551  0.92411  0.19510  1.0000
  C   C263      1.0  0.53050  0.91180  0.15617  1.0000
  C   C264      1.0  0.51495  0.88862  0.14279  1.0000
  C   C265      1.0  0.49452  0.87771  0.16845  1.0000
  C   C266      1.0  0.48922  0.89042  0.20684  1.0000
  C   C267      1.0  0.50456  0.91357  0.22009  1.0000
  H   H405      1.0  0.54664  0.91992  0.13671  1.0000
  H   H406      1.0  0.51917  0.87893  0.11311  1.0000
  H   H407      1.0  0.47293  0.88258  0.22615  1.0000
  H   H408      1.0  0.49998  0.92332  0.24961  1.0000
  C   C268      1.0  0.50018  0.02533  0.20066  1.0000
  S   S105      1.0  0.49025  0.84832  0.51110  1.0000
  H   H409      1.0  0.44366  0.85761  0.27995  1.0000
  H   H410      1.0  0.56071  0.05170  0.33099  1.0000
  H   H411      1.0  0.42186  0.89094  0.41598  1.0000
  C   C269      1.0  0.46384  0.90252  0.40189  1.0000
  C   C270      1.0  0.44365  0.88854  0.42431  1.0000
  C   C271      1.0  0.45158  0.87213  0.45841  1.0000
  C   C272      1.0  0.47974  0.86890  0.46911  1.0000
  C   C273      1.0  0.49990  0.88245  0.44623  1.0000
  C   C274      1.0  0.49190  0.89974  0.41336  1.0000
  C   C275      1.0  0.45809  0.80937  0.31892  1.0000
  H   H412      1.0  0.43579  0.86253  0.47681  1.0000
  H   H413      1.0  0.52171  0.87995  0.45416  1.0000
  H   H414      1.0  0.50758  0.91088  0.39708  1.0000
  H   H415      1.0  0.52170  0.90811  0.52909  1.0000
  H   H416      1.0  0.53131  0.08682  0.22639  1.0000
  C   C276      1.0  0.49257  0.82912  0.27420  1.0000
  H   H417      1.0  0.47086  0.78959  0.32177  1.0000
  H   H418      1.0  0.57281  0.85929  0.47136  1.0000
  N   N26       1.0  0.57199  0.81582  0.48961  1.0000
  H   H419      1.0  0.47910  0.82668  0.24631  1.0000
  S   S106      1.0  0.35250  0.83924  0.54402  1.0000
  H   H420      1.0  0.50728  0.00333  0.19295  1.0000
  H   H421      1.0  0.53655  0.72895  0.49903  1.0000
  H   H422      1.0  0.35980  0.85127  0.09787  1.0000
  S   S107      1.0  0.55705  0.61705  0.39184  1.0000
  H   H423      1.0  0.48538  0.66569  0.55018  1.0000
  H   H424      1.0  0.47133  0.70076  0.54295  1.0000
  N   N27       1.0  0.51494  0.69563  0.52890  1.0000
  H   H425      1.0  0.50859  0.71431  0.46944  1.0000
  S   S108      1.0  0.57392  0.94059  0.42632  1.0000
  H   H426      1.0  0.49937  0.93583  0.50951  1.0000
  C   C277      1.0  0.54075  0.78345  0.11132  1.0000
  H   H427      1.0  0.52805  0.79948  0.12887  1.0000
  C   C278      1.0  0.36687  0.79988  0.12891  1.0000
  C   C279      1.0  0.52157  0.92934  0.51468  1.0000
  H   H428      1.0  0.47873  0.67880  0.49893  1.0000
  Fe  Fe56      1.0  0.56835  0.66066  0.37246  1.0000
  H   H429      1.0  0.56849  0.77639  0.52117  1.0000
  H   H430      1.0  0.55516  0.82063  0.42829  1.0000
  C   C280      1.0  0.56994  0.81973  0.08493  1.0000
  H   H431      1.0  0.51371  0.98550  0.51463  1.0000
  C   C281      1.0  0.56627  0.79950  0.52719  1.0000
  H   H432      1.0  0.53044  0.78038  0.08075  1.0000
  N   N28       1.0  0.56984  0.79236  0.10636  1.0000
  H   H433      1.0  0.33100  0.79665  0.19229  1.0000
  S   S109      1.0  0.50112  0.85052  0.03684  1.0000
  C   C282      1.0  0.56097  0.60462  0.88753  1.0000
  C   C283      1.0  0.36120  0.80475  0.01811  1.0000
  H   H434      1.0  0.55206  0.66070  0.89715  1.0000
  H   H435      1.0  0.33567  0.87002  0.99292  1.0000
  C   C284      1.0  0.36108  0.83300  0.00610  1.0000
  H   H436      1.0  0.53267  0.63714  0.83425  1.0000
  H   H437      1.0  0.49977  0.63716  0.85999  1.0000
  H   H438      1.0  0.38052  0.84320  0.00004  1.0000
  H   H439      1.0  0.51090  0.96672  0.97685  1.0000
  S   S110      1.0  0.44949  0.77987  0.67319  1.0000
  S   S111      1.0  0.53288  0.78512  0.98863  1.0000
  H   H440      1.0  0.51566  0.78669  0.86156  1.0000
  H   H441      1.0  0.55259  0.95887  0.88115  1.0000
  H   H442      1.0  0.57311  0.60154  0.91655  1.0000
  H   H443      1.0  0.57426  0.61635  0.86580  1.0000
  H   H444      1.0  0.49188  0.80365  0.73676  1.0000
  S   S112      1.0  0.57071  0.72568  0.77535  1.0000
  S   S113      1.0  0.55010  0.66175  0.74953  1.0000
  H   H445      1.0  0.52673  0.59778  0.95187  1.0000
  Fe  Fe57      1.0  0.55045  0.68962  0.80605  1.0000
  S   S114      1.0  0.51185  0.69778  0.84384  1.0000
  C   C285      1.0  0.52358  0.70446  0.57083  1.0000
  C   C286      1.0  0.52647  0.76114  0.94826  1.0000
  C   C287      1.0  0.54871  0.75129  0.92386  1.0000
  C   C288      1.0  0.54412  0.73212  0.89143  1.0000
  C   C289      1.0  0.51739  0.72234  0.88374  1.0000
  C   C290      1.0  0.49506  0.73222  0.90802  1.0000
  C   C291      1.0  0.49956  0.75179  0.94010  1.0000
  C   C292      1.0  0.33588  0.79158  0.02533  1.0000
  H   H446      1.0  0.56124  0.72481  0.87240  1.0000
  H   H447      1.0  0.47428  0.72473  0.90214  1.0000
  H   H448      1.0  0.48228  0.75920  0.95898  1.0000
  H   H449      1.0  0.57734  0.95546  0.56625  1.0000
  N   N29       1.0  0.49898  0.79413  0.80080  1.0000
  S   S115      1.0  0.39260  0.78590  0.02689  1.0000
  C   C293      1.0  0.48271  0.76392  0.67162  1.0000
  C   C294      1.0  0.50308  0.77404  0.64514  1.0000
  C   C295      1.0  0.52898  0.75991  0.64181  1.0000
  C   C296      1.0  0.53464  0.73601  0.66565  1.0000
  C   C297      1.0  0.51481  0.72680  0.69366  1.0000
  C   C298      1.0  0.48879  0.74065  0.69648  1.0000
  H   H450      1.0  0.49886  0.79283  0.62733  1.0000
  H   H451      1.0  0.54449  0.76741  0.62071  1.0000
  H   H452      1.0  0.51906  0.70838  0.71219  1.0000
  H   H453      1.0  0.47306  0.73275  0.71691  1.0000
  Fe  Fe58      1.0  0.43689  0.79045  0.60810  1.0000
  H   H454      1.0  0.47404  0.76322  0.83052  1.0000
  H   H455      1.0  0.49534  0.74959  0.78929  1.0000
  H   H456      1.0  0.49597  0.61276  0.92785  1.0000
  C   C299      1.0  0.52282  0.79011  0.82936  1.0000
  S   S116      1.0  0.56848  0.94759  0.77868  1.0000
  C   C300      1.0  0.48246  0.76823  0.79952  1.0000
  H   H457      1.0  0.47340  0.81465  0.84717  1.0000
  H   H458      1.0  0.56949  0.75849  0.93009  1.0000
  S   S117      1.0  0.56628  0.71734  0.66016  1.0000
  C   C301      1.0  0.50941  0.80009  0.75896  1.0000
  C   C302      1.0  0.48127  0.81814  0.81534  1.0000
  Fe  Fe59      1.0  0.49400  0.80714  0.01188  1.0000
  H   H459      1.0  0.52227  0.81933  0.75890  1.0000
  H   H460      1.0  0.56365  0.92010  0.92713  1.0000
  H   H461      1.0  0.54020  0.96971  0.01115  1.0000
  H   H462      1.0  0.46455  0.77033  0.77762  1.0000
  H   H463      1.0  0.53636  0.80881  0.82970  1.0000
  S   S118      1.0  0.45778  0.81927  0.97142  1.0000
  H   H464      1.0  0.53598  0.77145  0.82027  1.0000
  C   C303      1.0  0.55180  0.93080  0.95255  1.0000
  C   C304      1.0  0.51649  0.60213  0.92160  1.0000
  Fe  Fe60      1.0  0.43155  0.81133  0.02709  1.0000
  C   C305      1.0  0.51961  0.62483  0.85553  1.0000
  H   H465      1.0  0.54993  0.64394  0.94641  1.0000
  H   H466      1.0  0.52248  0.78220  0.74667  1.0000
  H   H467      1.0  0.46286  0.82151  0.79475  1.0000
  H   H468      1.0  0.52385  0.68651  0.59275  1.0000
  H   H469      1.0  0.50061  0.95985  0.57822  1.0000
  H   H470      1.0  0.51917  0.65886  0.92216  1.0000
  S   S119      1.0  0.42811  0.83476  0.58771  1.0000
  H   H471      1.0  0.57061  0.83065  0.94530  1.0000
  H   H472      1.0  0.49304  0.83810  0.81602  1.0000
  H   H473      1.0  0.53357  0.96806  0.60165  1.0000
  H   H474      1.0  0.53695  0.83868  0.89213  1.0000
  Fe  Fe61      1.0  0.46319  0.86219  0.99970  1.0000
  S   S120      1.0  0.46642  0.89957  0.95813  1.0000
  C   C306      1.0  0.33569  0.84811  0.00193  1.0000
  S   S121      1.0  0.55580  0.86854  0.82215  1.0000
  H   H475      1.0  0.51447  0.60480  0.83951  1.0000
  H   H476      1.0  0.56719  0.91944  0.56071  1.0000
  C   C307      1.0  0.49002  0.89051  0.91873  1.0000
  C   C308      1.0  0.49460  0.90918  0.88635  1.0000
  C   C309      1.0  0.51526  0.90288  0.85682  1.0000
  C   C310      1.0  0.53044  0.87737  0.85885  1.0000
  C   C311      1.0  0.52534  0.85845  0.89051  1.0000
  C   C312      1.0  0.50561  0.86525  0.92082  1.0000
  H   H477      1.0  0.48227  0.92852  0.88433  1.0000
  H   H478      1.0  0.51890  0.91738  0.83192  1.0000
  H   H479      1.0  0.54491  0.71320  0.57090  1.0000
  N   N30       1.0  0.55088  0.96176  0.94755  1.0000
  C   C313      1.0  0.52278  0.95267  0.58127  1.0000
  H   H480      1.0  0.54816  0.59904  0.77286  1.0000
  H   H481      1.0  0.53977  0.99206  0.90077  1.0000
  H   H482      1.0  0.50906  0.72097  0.58365  1.0000
  H   H483      1.0  0.53048  0.92218  0.95240  1.0000
  Fe  Fe62      1.0  0.57411  0.69652  0.72087  1.0000
  N   N31       1.0  0.53407  0.61963  0.89524  1.0000
  H   H484      1.0  0.50277  0.85098  0.94601  1.0000
  H   H485      1.0  0.52308  0.93209  0.59757  1.0000
  C   C314      1.0  0.53979  0.96889  0.90614  1.0000
  S   S122      1.0  0.39994  0.77192  0.57583  1.0000
  C   C315      1.0  0.53254  0.97467  0.97946  1.0000
  H   H486      1.0  0.56165  0.92463  0.98241  1.0000
  H   H487      1.0  0.33588  0.76965  0.03425  1.0000
  C   C316      1.0  0.53905  0.64688  0.91629  1.0000
  H   H488      1.0  0.51804  0.96186  0.90209  1.0000
  H   H489      1.0  0.53125  0.99803  0.97647  1.0000
  S   S123      1.0  0.46639  0.78012  0.55653  1.0000
  H   H490      1.0  0.57655  0.76845  0.05007  1.0000
  S   S124      1.0  0.43331  0.85560  0.05193  1.0000
  H   H491      1.0  0.56020  0.81810  0.05374  1.0000
  H   H492      1.0  0.78303  0.37371  0.55091  1.0000
  H   H493      1.0  0.60992  0.35930  0.24054  1.0000
  C   C317      1.0  0.62970  0.57690  0.30473  1.0000
  H   H494      1.0  0.59321  0.29943  0.22166  1.0000
  S   S125      1.0  0.70391  0.24040  0.11859  1.0000
  H   H495      1.0  0.76888  0.42653  0.54580  1.0000
  C   C318      1.0  0.61293  0.25643  0.15252  1.0000
  C   C319      1.0  0.62821  0.27771  0.13449  1.0000
  C   C320      1.0  0.65675  0.27359  0.12733  1.0000
  C   C321      1.0  0.66996  0.24777  0.13663  1.0000
  C   C322      1.0  0.65493  0.22693  0.15644  1.0000
  C   C323      1.0  0.62641  0.23131  0.16456  1.0000
  H   H496      1.0  0.61803  0.29736  0.12559  1.0000
  H   H497      1.0  0.66819  0.29020  0.11331  1.0000
  H   H498      1.0  0.66507  0.20703  0.16420  1.0000
  H   H499      1.0  0.61466  0.21480  0.17866  1.0000
  H   H500      1.0  0.59060  0.28807  0.27426  1.0000
  H   H501      1.0  0.69237  0.42974  0.47727  1.0000
  S   S126      1.0  0.59174  0.44571  0.23468  1.0000
  C   C324      1.0  0.59458  0.30652  0.25440  1.0000
  N   N32       1.0  0.62202  0.31848  0.26380  1.0000
  S   S127      1.0  0.71992  0.31885  0.10397  1.0000
  S   S128      1.0  0.69350  0.33830  0.48208  1.0000
  H   H502      1.0  0.82337  0.24673  0.06350  1.0000
  H   H503      1.0  0.64578  0.24406  0.05726  1.0000
  H   H504      1.0  0.78988  0.26940  0.16251  1.0000
  Fe  Fe63      1.0  0.71522  0.27581  0.07705  1.0000
  H   H505      1.0  0.60557  0.34352  0.31417  1.0000
  H   H506      1.0  0.72715  0.39228  0.46243  1.0000
  H   H507      1.0  0.82755  0.36260  0.51507  1.0000
  C   C325      1.0  0.70288  0.43323  0.50762  1.0000
  C   C326      1.0  0.62260  0.32777  0.30754  1.0000
  H   H508      1.0  0.72897  0.38233  0.51558  1.0000
  H   H509      1.0  0.73660  0.44203  0.44324  1.0000
  N   N33       1.0  0.73311  0.42671  0.50522  1.0000
  H   H510      1.0  0.76874  0.44091  0.47203  1.0000
  H   H511      1.0  0.59095  0.29476  0.51245  1.0000
  C   C327      1.0  0.65283  0.18766  0.05953  1.0000
  H   H512      1.0  0.63144  0.32209  0.53638  1.0000
  H   H513      1.0  0.78797  0.28883  0.11546  1.0000
  Fe  Fe64      1.0  0.63303  0.43907  0.26589  1.0000
  S   S129      1.0  0.61842  0.40561  0.30820  1.0000
  S   S130      1.0  0.67226  0.43064  0.23011  1.0000
  S   S131      1.0  0.57934  0.14436  0.27442  1.0000
  Fe  Fe65      1.0  0.60837  0.44135  0.35175  1.0000
  S   S132      1.0  0.61377  0.43777  0.42079  1.0000
  H   H514      1.0  0.64114  0.27798  0.27650  1.0000
  S   S133      1.0  0.62674  0.47463  0.31166  1.0000
  C   C328      1.0  0.63590  0.41006  0.43771  1.0000
  C   C329      1.0  0.63683  0.40323  0.47978  1.0000
  C   C330      1.0  0.65445  0.38119  0.49380  1.0000
  C   C331      1.0  0.67100  0.36578  0.46573  1.0000
  C   C332      1.0  0.67015  0.37269  0.42379  1.0000
  C   C333      1.0  0.65287  0.39493  0.40989  1.0000
  H   H515      1.0  0.62391  0.41504  0.50150  1.0000
  H   H516      1.0  0.65514  0.37615  0.52623  1.0000
  C   C334      1.0  0.80750  0.28149  0.54299  1.0000
  H   H517      1.0  0.65303  0.40058  0.37772  1.0000
  C   C335      1.0  0.66680  0.40960  0.18595  1.0000
  C   C336      1.0  0.68918  0.40260  0.15992  1.0000
  C   C337      1.0  0.65818  0.37720  0.11417  1.0000
  C   C338      1.0  0.63581  0.38413  0.14014  1.0000
  C   C339      1.0  0.64022  0.39991  0.17630  1.0000
  H   H518      1.0  0.70981  0.40989  0.16734  1.0000
  H   H519      1.0  0.61515  0.37701  0.13256  1.0000
  H   H520      1.0  0.62304  0.40444  0.19668  1.0000
  H   H521      1.0  0.64273  0.33759  0.31577  1.0000
  H   H522      1.0  0.66669  0.19815  0.08231  1.0000
  H   H523      1.0  0.69260  0.41963  0.53055  1.0000
  H   H524      1.0  0.70229  0.38107  0.10407  1.0000
  C   C340      1.0  0.64408  0.29669  0.25658  1.0000
  H   H525      1.0  0.74279  0.46788  0.48302  1.0000
  H   H526      1.0  0.68315  0.36101  0.40202  1.0000
  H   H527      1.0  0.82571  0.22014  0.12904  1.0000
  H   H528      1.0  0.76012  0.39145  0.48892  1.0000
  C   C341      1.0  0.68492  0.38623  0.12418  1.0000
  C   C342      1.0  0.79586  0.26879  0.12933  1.0000
  H   H529      1.0  0.63289  0.18350  0.07556  1.0000
  Fe  Fe66      1.0  0.70271  0.33524  0.54996  1.0000
  H   H530      1.0  0.69863  0.45554  0.51703  1.0000
  H   H531      1.0  0.64688  0.35290  0.24354  1.0000
  H   H532      1.0  0.61960  0.30975  0.32879  1.0000
  H   H533      1.0  0.66513  0.30500  0.26329  1.0000
  H   H534      1.0  0.62689  0.33637  0.20348  1.0000
  H   H535      1.0  0.64850  0.56293  0.30830  1.0000
  C   C343      1.0  0.62664  0.34281  0.23667  1.0000
  S   S134      1.0  0.79312  0.34239  0.07927  1.0000
  H   H536      1.0  0.78449  0.25129  0.11418  1.0000
  S   S135      1.0  0.65244  0.35755  0.06901  1.0000
  H   H537      1.0  0.80419  0.30326  0.53102  1.0000
  S   S136      1.0  0.59000  0.22398  0.26499  1.0000
  H   H538      1.0  0.64403  0.28908  0.22389  1.0000
  H   H539      1.0  0.81237  0.26738  0.51618  1.0000
  C   C344      1.0  0.73758  0.39694  0.49248  1.0000
  H   H540      1.0  0.61770  0.57606  0.33404  1.0000
  H   H541      1.0  0.61645  0.56755  0.28003  1.0000
  C   C345      1.0  0.74589  0.44522  0.47452  1.0000
  C   C346      1.0  0.74606  0.43143  0.54619  1.0000
  Fe  Fe67      1.0  0.58382  0.47835  0.28382  1.0000
  H   H542      1.0  0.60881  0.35265  0.54159  1.0000
  Fe  Fe68      1.0  0.75337  0.32362  0.05679  1.0000
  C   C347      1.0  0.82765  0.36877  0.54735  1.0000
  H   H543      1.0  0.82613  0.28436  0.06429  1.0000
  N   N34       1.0  0.82637  0.26531  0.12426  1.0000
  H   H544      1.0  0.59094  0.08812  0.30175  1.0000
  S   S137      1.0  0.71955  0.28067  0.92311  1.0000
  Fe  Fe69      1.0  0.61200  0.19928  0.82409  1.0000
  S   S138      1.0  0.63424  0.15798  0.81126  1.0000
  S   S139      1.0  0.60587  0.22179  0.88461  1.0000
  Fe  Fe70      1.0  0.60520  0.21391  0.73447  1.0000
  S   S140      1.0  0.62663  0.17441  0.71210  1.0000
  C   C348      1.0  0.64293  0.36054  0.71673  1.0000
  H   H545      1.0  0.82003  0.32187  0.59813  1.0000
  H   H546      1.0  0.68746  0.30208  0.84696  1.0000
  Fe  Fe71      1.0  0.65703  0.18182  0.76314  1.0000
  S   S141      1.0  0.70257  0.17375  0.75341  1.0000
  S   S142      1.0  0.63815  0.22352  0.78082  1.0000
  H   H547      1.0  0.72711  0.25932  0.76823  1.0000
  C   C349      1.0  0.68173  0.28906  0.74394  1.0000
  Fe  Fe72      1.0  0.68196  0.33624  0.63729  1.0000
  N   N35       1.0  0.69677  0.29191  0.78363  1.0000
  C   C350      1.0  0.59625  0.54934  0.80245  1.0000
  H   H548      1.0  0.62945  0.24561  0.00753  1.0000
  H   H549      1.0  0.72349  0.26660  0.82275  1.0000
  H   H550      1.0  0.81359  0.24439  0.60487  1.0000
  N   N36       1.0  0.64827  0.20534  0.02264  1.0000
  C   C351      1.0  0.71648  0.19730  0.71797  1.0000
  C   C352      1.0  0.69971  0.21824  0.69938  1.0000
  C   C353      1.0  0.71137  0.23687  0.67110  1.0000
  C   C354      1.0  0.63340  0.23181  0.03466  1.0000
  C   C355      1.0  0.74479  0.19498  0.70818  1.0000
  H   H551      1.0  0.67772  0.21987  0.70634  1.0000
  H   H552      1.0  0.69833  0.25274  0.65625  1.0000
  C   C356      1.0  0.68786  0.26445  0.91292  1.0000
  C   C357      1.0  0.68756  0.23987  0.88875  1.0000
  C   C358      1.0  0.66236  0.22665  0.88042  1.0000
  C   C359      1.0  0.63736  0.23808  0.89599  1.0000
  C   C360      1.0  0.63759  0.26269  0.92015  1.0000
  C   C361      1.0  0.66283  0.27599  0.92838  1.0000
  H   H553      1.0  0.70689  0.23074  0.87705  1.0000
  H   H554      1.0  0.66239  0.20735  0.86235  1.0000
  H   H555      1.0  0.61824  0.27172  0.93195  1.0000
  H   H556      1.0  0.66287  0.29545  0.94605  1.0000
  C   C362      1.0  0.81485  0.33496  0.00139  1.0000
  C   C363      1.0  0.71187  0.26514  0.79294  1.0000
  H   H557      1.0  0.60956  0.44753  0.97319  1.0000
  H   H558      1.0  0.62084  0.27846  0.57249  1.0000
  H   H559      1.0  0.70621  0.33536  0.77325  1.0000
  H   H560      1.0  0.66970  0.30864  0.73642  1.0000
  H   H561      1.0  0.66675  0.27158  0.74445  1.0000
  C   C364      1.0  0.71689  0.31490  0.78071  1.0000
  S   S143      1.0  0.64202  0.33877  0.67273  1.0000
  H   H562      1.0  0.78733  0.27475  0.55611  1.0000
  H   H563      1.0  0.66112  0.41592  0.04515  1.0000
  H   H564      1.0  0.59625  0.10693  0.82936  1.0000
  C   C365      1.0  0.73972  0.23442  0.66132  1.0000
  H   H565      1.0  0.75779  0.17882  0.72245  1.0000
  H   H566      1.0  0.73260  0.31043  0.75615  1.0000
  S   S144      1.0  0.58601  0.11082  0.74063  1.0000
  H   H567      1.0  0.62957  0.34103  0.58470  1.0000
  H   H568      1.0  0.66850  0.44035  0.93719  1.0000
  Fe  Fe73      1.0  0.72980  0.29685  0.61435  1.0000
  C   C366      1.0  0.80249  0.38319  0.60921  1.0000
  H   H569      1.0  0.72839  0.31784  0.81037  1.0000
  H   H570      1.0  0.68254  0.43495  0.01030  1.0000
  H   H571      1.0  0.64208  0.17009  0.98152  1.0000
  H   H572      1.0  0.69635  0.28478  0.71800  1.0000
  H   H573      1.0  0.60370  0.27898  0.83268  1.0000
  C   C367      1.0  0.60596  0.29049  0.59263  1.0000
  C   C368      1.0  0.67662  0.29869  0.81689  1.0000
  S   S145      1.0  0.72428  0.32877  0.66515  1.0000
  S   S146      1.0  0.68614  0.30135  0.59015  1.0000
  S   S147      1.0  0.75498  0.25730  0.62621  1.0000
  H   H574      1.0  0.61734  0.29634  0.62140  1.0000
  Fe  Fe74      1.0  0.72052  0.29640  0.98878  1.0000
  H   H575      1.0  0.66179  0.28130  0.82118  1.0000
  H   H576      1.0  0.61933  0.44378  0.02615  1.0000
  H   H577      1.0  0.80300  0.29400  0.62399  1.0000
  H   H578      1.0  0.66433  0.31836  0.81009  1.0000
  H   H579      1.0  0.68727  0.19262  0.99467  1.0000
  H   H580      1.0  0.63946  0.37454  0.98110  1.0000
  H   H581      1.0  0.69735  0.24729  0.79541  1.0000
  H   H582      1.0  0.79372  0.33180  0.99085  1.0000
  C   C369      1.0  0.59593  0.29137  0.80573  1.0000
  S   S148      1.0  0.77094  0.39091  0.63463  1.0000
  S   S149      1.0  0.74703  0.32722  0.56932  1.0000
  H   H583      1.0  0.74317  0.45366  0.55690  1.0000
  S   S150      1.0  0.72479  0.34175  0.00807  1.0000
  H   H584      1.0  0.67293  0.22562  0.97689  1.0000
  Fe  Fe75      1.0  0.73829  0.35971  0.61817  1.0000
  C   C370      1.0  0.67551  0.21203  0.00449  1.0000
  C   C371      1.0  0.82783  0.38503  0.63059  1.0000
  C   C372      1.0  0.75634  0.21340  0.67977  1.0000
  C   C373      1.0  0.66840  0.41682  0.01258  1.0000
  H   H585      1.0  0.61859  0.54594  0.80469  1.0000
  H   H586      1.0  0.58713  0.33764  0.62926  1.0000
  C   C374      1.0  0.62712  0.39440  0.98650  1.0000
  C   C375      1.0  0.82009  0.34113  0.04304  1.0000
  Fe  Fe76      1.0  0.59865  0.42673  0.84946  1.0000
  S   S151      1.0  0.64291  0.41796  0.83065  1.0000
  Fe  Fe77      1.0  0.60216  0.15290  0.76120  1.0000
  H   H587      1.0  0.66660  0.10415  0.65853  1.0000
  H   H588      1.0  0.62729  0.20289  0.96399  1.0000
  C   C376      1.0  0.62779  0.44500  0.99424  1.0000
  H   H589      1.0  0.63766  0.42399  0.91834  1.0000
  C   C377      1.0  0.65513  0.42173  0.94087  1.0000
  C   C378      1.0  0.61913  0.38089  0.77633  1.0000
  C   C379      1.0  0.64324  0.39516  0.78757  1.0000
  C   C380      1.0  0.66744  0.39148  0.76389  1.0000
  C   C381      1.0  0.66726  0.37427  0.72832  1.0000
  S   S152      1.0  0.69523  0.37064  0.59519  1.0000
  H   H590      1.0  0.60049  0.38331  0.79468  1.0000
  H   H591      1.0  0.77824  0.21139  0.67220  1.0000
  H   H592      1.0  0.68096  0.39715  0.00661  1.0000
  H   H593      1.0  0.60021  0.35307  0.73186  1.0000
  C   C382      1.0  0.66226  0.11061  0.69104  1.0000
  H   H594      1.0  0.68608  0.40256  0.77243  1.0000
  C   C383      1.0  0.63137  0.18996  0.99196  1.0000
  H   H595      1.0  0.61075  0.18447  0.00478  1.0000
  H   H596      1.0  0.68579  0.37205  0.70958  1.0000
  H   H597      1.0  0.66761  0.40264  0.93154  1.0000
  N   N37       1.0  0.64464  0.41949  0.98354  1.0000
  H   H598      1.0  0.61743  0.39295  0.01759  1.0000
  H   H599      1.0  0.64024  0.46440  0.99223  1.0000
  C   C384      1.0  0.61900  0.36364  0.74095  1.0000
  H   H600      1.0  0.67289  0.13092  0.69692  1.0000
  H   H601      1.0  0.60982  0.39505  0.96355  1.0000
  S   S153      1.0  0.68401  0.28899  0.02929  1.0000
  S   S154      1.0  0.75168  0.27873  0.03434  1.0000
  N   N38       1.0  0.67168  0.08873  0.72050  1.0000
  N   N39       1.0  0.59414  0.31562  0.57153  1.0000
  C   C385      1.0  0.82282  0.29984  0.60891  1.0000
  C   C386      1.0  0.80245  0.37499  0.56760  1.0000
  H   H602      1.0  0.68883  0.22351  0.02705  1.0000
  H   H603      1.0  0.60503  0.31272  0.80750  1.0000
  H   H604      1.0  0.60416  0.28084  0.77723  1.0000
  H   H605      1.0  0.67716  0.11825  0.77054  1.0000
  H   H606      1.0  0.64330  0.10312  0.76760  1.0000
  H   H607      1.0  0.63937  0.11480  0.69347  1.0000
  C   C387      1.0  0.58543  0.57516  0.78805  1.0000
  S   S155      1.0  0.59208  0.25190  0.69857  1.0000
  H   H608      1.0  0.73686  0.41782  0.57014  1.0000
  C   C388      1.0  0.66591  0.09855  0.76313  1.0000
  S   S156      1.0  0.58421  0.46126  0.89301  1.0000
  H   H609      1.0  0.58689  0.50826  0.82587  1.0000
  H   H610      1.0  0.58943  0.27584  0.60177  1.0000
  H   H611      1.0  0.71378  0.10304  0.72180  1.0000
  H   H612      1.0  0.61299  0.22771  0.04936  1.0000
  C   C389      1.0  0.61700  0.33361  0.55790  1.0000
  H   H613      1.0  0.82794  0.39146  0.66277  1.0000
  Fe  Fe78      1.0  0.69100  0.33247  0.05335  1.0000
  H   H614      1.0  0.66295  0.16702  0.05136  1.0000
  H   H615      1.0  0.65465  0.78063  0.41615  1.0000
  Fe  Fe79      1.0  0.73000  0.79012  0.06868  1.0000
  S   S157      1.0  0.77371  0.77255  0.06258  1.0000
  H   H616      1.0  0.59153  0.82720  0.08093  1.0000
  C   C390      1.0  0.70500  0.78982  0.38374  1.0000
  H   H617      1.0  0.67408  0.60536  0.33302  1.0000
  H   H618      1.0  0.59747  0.61495  0.26625  1.0000
  S   S158      1.0  0.60048  0.72717  0.48311  1.0000
  Fe  Fe80      1.0  0.60938  0.69829  0.33061  1.0000
  S   S159      1.0  0.64557  0.69680  0.28662  1.0000
  S   S160      1.0  0.61204  0.67242  0.38826  1.0000
  Fe  Fe81      1.0  0.68065  0.80504  0.12316  1.0000
  S   S161      1.0  0.65852  0.80856  0.18430  1.0000
  C   C391      1.0  0.64777  0.72688  0.25549  1.0000
  C   C392      1.0  0.67049  0.72956  0.22892  1.0000
  C   C393      1.0  0.67356  0.75429  0.20603  1.0000
  C   C394      1.0  0.65412  0.77658  0.21012  1.0000
  C   C395      1.0  0.63127  0.77381  0.23643  1.0000
  C   C396      1.0  0.62789  0.74887  0.25865  1.0000
  H   H619      1.0  0.68596  0.71265  0.22638  1.0000
  H   H620      1.0  0.69142  0.75641  0.18615  1.0000
  H   H621      1.0  0.61619  0.79101  0.23970  1.0000
  H   H622      1.0  0.61009  0.74686  0.27858  1.0000
  H   H623      1.0  0.68043  0.76946  0.55029  1.0000
  S   S162      1.0  0.71724  0.83004  0.10234  1.0000
  C   C397      1.0  0.69266  0.74495  0.49678  1.0000
  C   C398      1.0  0.67355  0.75544  0.52601  1.0000
  C   C399      1.0  0.64534  0.74897  0.52268  1.0000
  C   C400      1.0  0.63617  0.73229  0.48976  1.0000
  C   C401      1.0  0.65534  0.72121  0.46107  1.0000
  C   C402      1.0  0.68369  0.72723  0.46491  1.0000
  C   C403      1.0  0.65482  0.79359  0.38762  1.0000
  H   H624      1.0  0.64834  0.70831  0.43562  1.0000
  H   H625      1.0  0.69845  0.71922  0.44224  1.0000
  H   H626      1.0  0.69342  0.74884  0.32694  1.0000
  H   H627      1.0  0.65567  0.81619  0.39710  1.0000
  H   H628      1.0  0.63464  0.79065  0.37126  1.0000
  H   H629      1.0  0.61617  0.81278  0.49969  1.0000
  H   H630      1.0  0.82069  0.86857  0.51284  1.0000
  H   H631      1.0  0.82003  0.85680  0.11439  1.0000
  N   N40       1.0  0.67866  0.78550  0.36093  1.0000
  H   H632      1.0  0.61630  0.64558  0.28126  1.0000
  H   H633      1.0  0.67262  0.59337  0.25830  1.0000
  C   C404      1.0  0.67671  0.75545  0.34899  1.0000
  H   H634      1.0  0.60605  0.82194  0.44795  1.0000
  H   H635      1.0  0.60771  0.77664  0.07801  1.0000
  H   H636      1.0  0.67838  0.74148  0.37633  1.0000
  H   H637      1.0  0.65838  0.80052  0.30559  1.0000
  H   H638      1.0  0.72342  0.78364  0.36469  1.0000
  H   H639      1.0  0.70725  0.81233  0.39297  1.0000
  H   H640      1.0  0.77640  0.87914  0.07562  1.0000
  H   H641      1.0  0.63051  0.75783  0.54459  1.0000
  S   S163      1.0  0.59442  0.73747  0.36390  1.0000
  Fe  Fe82      1.0  0.73164  0.86109  0.54337  1.0000
  S   S164      1.0  0.69559  0.76432  0.09443  1.0000
  C   C405      1.0  0.65310  0.60644  0.25604  1.0000
  H   H642      1.0  0.60504  0.80238  0.14466  1.0000
  H   H643      1.0  0.81103  0.89114  0.47087  1.0000
  Fe  Fe83      1.0  0.71844  0.80403  0.50929  1.0000
  C   C406      1.0  0.79855  0.82058  0.09067  1.0000
  H   H644      1.0  0.69556  0.79750  0.30228  1.0000
  H   H645      1.0  0.65903  0.62831  0.24801  1.0000
  C   C407      1.0  0.58552  0.77093  0.08169  1.0000
  H   H646      1.0  0.70602  0.77714  0.41254  1.0000
  H   H647      1.0  0.60276  0.78633  0.46573  1.0000
  S   S165      1.0  0.72623  0.75839  0.49584  1.0000
  C   C408      1.0  0.82056  0.83950  0.09231  1.0000
  C   C409      1.0  0.58314  0.79538  0.14741  1.0000
  C   C410      1.0  0.67803  0.80312  0.32346  1.0000
  H   H648      1.0  0.67959  0.82596  0.33146  1.0000
  H   H649      1.0  0.65643  0.75119  0.33381  1.0000
  C   C411      1.0  0.61153  0.62368  0.29035  1.0000
  H   H650      1.0  0.58389  0.77505  0.16432  1.0000
  S   S166      1.0  0.67680  0.81852  0.48576  1.0000
  C   C412      1.0  0.60050  0.80891  0.47497  1.0000
  H   H651      1.0  0.78122  0.82306  0.11176  1.0000
  Fe  Fe84      1.0  0.67246  0.84113  0.54589  1.0000
  H   H652      1.0  0.59971  0.62507  0.31982  1.0000
  S   S167      1.0  0.69120  0.88076  0.52256  1.0000
  Fe  Fe85      1.0  0.69872  0.85623  0.46394  1.0000
  S   S168      1.0  0.68545  0.87008  0.40070  1.0000
  S   S169      1.0  0.74129  0.84006  0.48219  1.0000
  C   C413      1.0  0.60330  0.91903  0.41653  1.0000
  C   C414      1.0  0.61423  0.90267  0.44873  1.0000
  C   C415      1.0  0.63867  0.88654  0.44294  1.0000
  C   C416      1.0  0.65288  0.88740  0.40539  1.0000
  C   C417      1.0  0.64141  0.90287  0.37251  1.0000
  C   C418      1.0  0.61644  0.91860  0.37800  1.0000
  H   H653      1.0  0.60407  0.90279  0.47846  1.0000
  H   H654      1.0  0.64675  0.87393  0.46793  1.0000
  H   H655      1.0  0.65223  0.90342  0.34329  1.0000
  H   H656      1.0  0.60797  0.93119  0.35300  1.0000
  H   H657      1.0  0.58099  0.80482  0.55265  1.0000
  H   H658      1.0  0.65977  0.64005  0.32292  1.0000
  Fe  Fe86      1.0  0.59245  0.71015  0.41957  1.0000
  S   S170      1.0  0.65412  0.81756  0.06906  1.0000
  H   H659      1.0  0.74279  0.89287  0.06053  1.0000
  N   N41       1.0  0.63718  0.60615  0.29500  1.0000
  H   H660      1.0  0.58550  0.74987  0.09649  1.0000
  C   C419      1.0  0.65430  0.61776  0.32894  1.0000
  H   H661      1.0  0.77162  0.91615  0.06594  1.0000
  H   H662      1.0  0.58553  0.85257  0.52275  1.0000
  H   H663      1.0  0.64293  0.61754  0.35887  1.0000
  H   H664      1.0  0.64064  0.59801  0.22978  1.0000
  C   C420      1.0  0.79955  0.79789  0.06276  1.0000
  H   H665      1.0  0.82119  0.85490  0.46113  1.0000
  C   C421      1.0  0.82570  0.87383  0.48037  1.0000
  H   H666      1.0  0.63989  0.89368  0.55512  1.0000
  C   C422      1.0  0.59514  0.06244  0.84309  1.0000
  C   C423      1.0  0.82080  0.82806  0.58650  1.0000
  S   S171      1.0  0.70730  0.80088  0.00985  1.0000
  C   C424      1.0  0.62024  0.76095  0.68998  1.0000
  Fe  Fe87      1.0  0.61091  0.70532  0.79544  1.0000
  H   H667      1.0  0.62958  0.70876  0.65841  1.0000
  S   S172      1.0  0.64551  0.73344  0.81592  1.0000
  H   H668      1.0  0.64574  0.84077  0.97175  1.0000
  C   C425      1.0  0.60976  0.80667  0.89640  1.0000
  S   S173      1.0  0.61609  0.67890  0.73826  1.0000
  C   C426      1.0  0.64390  0.74421  0.95613  1.0000
  C   C427      1.0  0.66604  0.75491  0.93352  1.0000
  C   C428      1.0  0.66680  0.75146  0.89035  1.0000
  C   C429      1.0  0.64560  0.73700  0.86995  1.0000
  C   C430      1.0  0.62393  0.72598  0.89282  1.0000
  C   C431      1.0  0.62310  0.72941  0.93572  1.0000
  H   H669      1.0  0.68246  0.76594  0.94912  1.0000
  H   H670      1.0  0.68379  0.75987  0.87284  1.0000
  H   H671      1.0  0.60748  0.71523  0.87741  1.0000
  H   H672      1.0  0.60593  0.72110  0.95300  1.0000
  N   N42       1.0  0.61397  0.82860  0.92845  1.0000
  S   S174      1.0  0.64007  0.75099  0.00914  1.0000
  H   H673      1.0  0.64183  0.78058  0.61934  1.0000
  N   N43       1.0  0.64546  0.75034  0.66823  1.0000
  C   C432      1.0  0.63814  0.72655  0.64068  1.0000
  H   H674      1.0  0.65826  0.72351  0.71851  1.0000
  C   C433      1.0  0.65700  0.77320  0.64330  1.0000
  H   H675      1.0  0.66236  0.04570  0.73462  1.0000
  C   C434      1.0  0.65651  0.06250  0.71220  1.0000
  C   C435      1.0  0.59155  0.82727  0.95950  1.0000
  H   H676      1.0  0.77658  0.84473  0.01679  1.0000
  H   H677      1.0  0.62661  0.80655  0.87284  1.0000
  H   H678      1.0  0.68574  0.73234  0.68382  1.0000
  H   H679      1.0  0.82299  0.77694  0.01436  1.0000
  H   H680      1.0  0.61707  0.87374  0.93205  1.0000
  H   H681      1.0  0.81006  0.91417  0.01485  1.0000
  H   H682      1.0  0.62186  0.73295  0.61773  1.0000
  H   H683      1.0  0.63355  0.06623  0.71475  1.0000
  H   H684      1.0  0.76156  0.90697  0.95207  1.0000
  H   H685      1.0  0.59362  0.96344  0.92832  1.0000
  C   C436      1.0  0.64116  0.82371  0.94905  1.0000
  H   H686      1.0  0.66220  0.79180  0.66279  1.0000
  C   C437      1.0  0.81530  0.88596  0.60236  1.0000
  C   C438      1.0  0.80313  0.89278  0.00563  1.0000
  H   H687      1.0  0.74224  0.85777  0.00483  1.0000
  H   H688      1.0  0.73478  0.90989  0.99036  1.0000
  H   H689      1.0  0.70717  0.07608  0.68384  1.0000
  C   C439      1.0  0.58422  0.05492  0.75891  1.0000
  H   H690      1.0  0.59411  0.84341  0.98428  1.0000
  H   H691      1.0  0.60980  0.78530  0.91013  1.0000
  C   C440      1.0  0.59357  0.08593  0.81688  1.0000
  H   H692      1.0  0.67643  0.86542  0.70976  1.0000
  H   H693      1.0  0.72812  0.86531  0.70285  1.0000
  H   H694      1.0  0.69482  0.89833  0.61048  1.0000
  C   C441      1.0  0.79497  0.84195  0.58078  1.0000
  Fe  Fe88      1.0  0.60587  0.94054  0.73813  1.0000
  S   S175      1.0  0.63632  0.96153  0.78048  1.0000
  S   S176      1.0  0.60569  0.95077  0.67056  1.0000
  C   C442      1.0  0.58645  0.03146  0.78484  1.0000
  S   S177      1.0  0.60839  0.92446  0.85476  1.0000
  Fe  Fe89      1.0  0.59969  0.96564  0.82301  1.0000
  H   H695      1.0  0.76389  0.93264  0.99323  1.0000
  Fe  Fe90      1.0  0.64257  0.91883  0.80848  1.0000
  S   S178      1.0  0.68294  0.89709  0.82557  1.0000
  S   S179      1.0  0.61617  0.89722  0.76161  1.0000
  C   C443      1.0  0.68462  0.89315  0.87937  1.0000
  C   C444      1.0  0.69751  0.86913  0.89644  1.0000
  C   C445      1.0  0.69772  0.86536  0.93943  1.0000
  C   C446      1.0  0.68538  0.88581  0.96540  1.0000
  C   C447      1.0  0.67308  0.91010  0.94831  1.0000
  C   C448      1.0  0.67251  0.91367  0.90539  1.0000
  H   H696      1.0  0.70364  0.90369  0.74171  1.0000
  H   H697      1.0  0.66394  0.92621  0.96831  1.0000
  H   H698      1.0  0.66322  0.93264  0.89245  1.0000
  H   H699      1.0  0.67801  0.92669  0.63875  1.0000
  Fe  Fe91      1.0  0.59203  0.64644  0.77223  1.0000
  H   H700      1.0  0.64157  0.80365  0.96642  1.0000
  C   C449      1.0  0.75765  0.91075  0.98557  1.0000
  H   H701      1.0  0.66066  0.05418  0.68051  1.0000
  H   H702      1.0  0.59916  0.06541  0.87573  1.0000
  N   N44       1.0  0.77280  0.88984  0.01138  1.0000
  H   H703      1.0  0.81322  0.90837  0.60851  1.0000
  C   C450      1.0  0.62060  0.86839  0.60125  1.0000
  C   C451      1.0  0.60441  0.86879  0.63704  1.0000
  C   C452      1.0  0.59828  0.89445  0.65723  1.0000
  C   C453      1.0  0.60842  0.91957  0.64165  1.0000
  C   C454      1.0  0.62276  0.91935  0.60418  1.0000
  C   C455      1.0  0.62875  0.89374  0.58392  1.0000
  H   H704      1.0  0.72473  0.86321  0.64749  1.0000
  C   C456      1.0  0.58790  0.08218  0.77476  1.0000
  H   H705      1.0  0.63016  0.93885  0.59161  1.0000
  S   S180      1.0  0.68588  0.88231  0.01938  1.0000
  Fe  Fe92      1.0  0.67174  0.77867  0.03866  1.0000
  H   H706      1.0  0.65551  0.89100  0.68254  1.0000
  C   C457      1.0  0.82230  0.79441  0.03617  1.0000
  H   H707      1.0  0.74412  0.89092  0.67057  1.0000
  C   C458      1.0  0.69678  0.91241  0.63797  1.0000
  H   H708      1.0  0.68206  0.92901  0.71495  1.0000
  C   C459      1.0  0.67510  0.87801  0.68093  1.0000
  C   C460      1.0  0.70197  0.08344  0.71571  1.0000
  S   S181      1.0  0.59045  0.67130  0.83132  1.0000
  N   N45       1.0  0.69961  0.89596  0.67637  1.0000
  S   S182      1.0  0.71233  0.82340  0.57206  1.0000
  H   H709      1.0  0.71937  0.92951  0.70966  1.0000
  C   C461      1.0  0.79224  0.87092  0.58859  1.0000
  H   H710      1.0  0.59754  0.84924  0.65009  1.0000
  H   H711      1.0  0.71535  0.92552  0.63273  1.0000
  C   C462      1.0  0.59164  0.03516  0.82705  1.0000
  C   C463      1.0  0.72522  0.87802  0.67437  1.0000
  Fe  Fe93      1.0  0.69175  0.83873  0.04531  1.0000
  C   C464      1.0  0.76474  0.86106  0.99904  1.0000
  H   H712      1.0  0.70693  0.85322  0.87637  1.0000
  H   H713      1.0  0.80928  0.88898  0.97290  1.0000
  S   S183      1.0  0.63244  0.83616  0.58048  1.0000
  H   H714      1.0  0.61115  0.74419  0.70919  1.0000
  C   C465      1.0  0.70127  0.91543  0.71220  1.0000
  H   H715      1.0  0.60375  0.76807  0.66782  1.0000
  H   H716      1.0  0.65848  0.82244  0.92632  1.0000
  H   H717      1.0  0.76867  0.85685  0.96567  1.0000
  H   H718      1.0  0.70751  0.84667  0.95222  1.0000
  H   H719      1.0  0.70983  0.06713  0.73764  1.0000
  H   H720      1.0  0.59318  0.86118  0.89335  1.0000
  S   S184      1.0  0.60850  0.60177  0.77507  1.0000
  H   H721      1.0  0.67301  0.86314  0.65429  1.0000
  C   C466      1.0  0.61350  0.85666  0.90895  1.0000
  H   H722      1.0  0.67633  0.76606  0.62698  1.0000
  H   H723      1.0  0.62492  0.77893  0.71100  1.0000
  H   H724      1.0  0.59144  0.80618  0.97450  1.0000
  S   S185      1.0  0.59366  0.00577  0.85979  1.0000
  Fe  Fe94      1.0  0.58128  0.90578  0.80579  1.0000
  H   H725      1.0  0.58953  0.80991  0.87997  1.0000
  H   H726      1.0  0.58366  0.01053  0.77217  1.0000
  H   H727      1.0  0.63010  0.85809  0.88512  1.0000
  S   S186      1.0  0.76046  0.88869  0.57926  1.0000
  H   H728      1.0  0.58615  0.89471  0.68529  1.0000
  H   H729      1.0  0.67229  0.75800  0.72049  1.0000
  H   H730      1.0  0.58838  0.96796  0.98299  1.0000
  H   H731      1.0  0.81526  0.87745  0.02470  1.0000
  H   H732      1.0  0.82290  0.80564  0.58023  1.0000
  H   H733      1.0  0.65656  0.71828  0.62318  1.0000
  H   H734      1.0  0.77727  0.83021  0.57007  1.0000
  C   C467      1.0  0.66641  0.74065  0.69897  1.0000
  H   H735      1.0  0.57942  0.99602  0.94795  1.0000
  H   H736      1.0  0.67229  0.08244  0.78629  1.0000
  H   H737      1.0  0.57971  0.05191  0.72639  1.0000
  C   C468      1.0  0.57931  0.97273  0.95208  1.0000
  C   C469      1.0  0.76562  0.89476  0.05529  1.0000
  H   H738      1.0  0.04683  0.36136  0.42414  1.0000
  S   S187      1.0  0.91294  0.25114  0.12044  1.0000
  H   H739      1.0  0.96289  0.11233  0.25629  1.0000
  C   C470      1.0  0.99782  0.33513  0.42802  1.0000
  H   H740      1.0  0.98452  0.14227  0.26434  1.0000
  Fe  Fe95      1.0  0.01553  0.20379  0.28274  1.0000
  S   S188      1.0  0.99554  0.18108  0.33482  1.0000
  S   S189      1.0  0.01049  0.18889  0.21720  1.0000
  Fe  Fe96      1.0  0.04797  0.24191  0.33933  1.0000
  S   S190      1.0  0.03153  0.22222  0.39623  1.0000
  Fe  Fe97      1.0  0.03822  0.18112  0.36306  1.0000
  H   H741      1.0  0.03492  0.55303  0.44577  1.0000
  Fe  Fe98      1.0  0.99048  0.22415  0.36331  1.0000
  S   S191      1.0  0.95253  0.24055  0.39678  1.0000
  S   S192      1.0  0.05880  0.20053  0.30880  1.0000
  S   S193      1.0  0.00649  0.24723  0.30839  1.0000
  C   C471      1.0  0.06696  0.08903  0.37240  1.0000
  C   C472      1.0  0.99069  0.23958  0.50822  1.0000
  C   C473      1.0  0.98129  0.23147  0.46891  1.0000
  C   C474      1.0  0.96095  0.24778  0.44846  1.0000
  C   C475      1.0  0.94864  0.27115  0.46854  1.0000
  C   C476      1.0  0.95778  0.27908  0.50809  1.0000
  C   C477      1.0  0.01554  0.41577  0.54107  1.0000
  H   H742      1.0  0.98977  0.21256  0.45437  1.0000
  H   H743      1.0  0.93263  0.28360  0.45301  1.0000
  N   N46       1.0  0.02535  0.32417  0.44197  1.0000
  H   H744      1.0  0.94833  0.29726  0.52324  1.0000
  C   C478      1.0  0.02868  0.32991  0.48669  1.0000
  H   H745      1.0  0.01101  0.28220  0.45136  1.0000
  C   C479      1.0  0.93864  0.23238  0.14835  1.0000
  C   C480      1.0  0.95617  0.21278  0.12813  1.0000
  C   C481      1.0  0.97801  0.19928  0.14963  1.0000
  C   C482      1.0  0.98221  0.20511  0.19159  1.0000
  C   C483      1.0  0.96413  0.22398  0.21229  1.0000
  C   C484      1.0  0.94229  0.23758  0.19067  1.0000
  H   H746      1.0  0.95261  0.20761  0.09602  1.0000
  H   H747      1.0  0.99165  0.18435  0.13365  1.0000
  H   H748      1.0  0.96695  0.22822  0.24487  1.0000
  H   H749      1.0  0.92864  0.25255  0.20654  1.0000
  C   C485      1.0  0.97934  0.26374  0.52745  1.0000
  C   C486      1.0  0.04760  0.33812  0.41894  1.0000
  S   S194      1.0  0.88391  0.36043  0.54327  1.0000
  H   H750      1.0  0.05801  0.29655  0.17616  1.0000
  H   H751      1.0  0.03051  0.12425  0.20643  1.0000
  C   C487      1.0  0.06117  0.27321  0.17622  1.0000
  N   N47       1.0  0.05360  0.26053  0.13591  1.0000
  H   H752      1.0  0.01012  0.25769  0.15120  1.0000
  H   H753      1.0  0.02428  0.28840  0.40072  1.0000
  H   H754      1.0  0.01252  0.31920  0.50504  1.0000
  H   H755      1.0  0.85152  0.35000  0.08877  1.0000
  H   H756      1.0  0.99585  0.35837  0.43260  1.0000
  H   H757      1.0  0.98058  0.32530  0.44528  1.0000
  H   H758      1.0  0.01322  0.11573  0.31643  1.0000
  C   C488      1.0  0.07821  0.55783  0.30888  1.0000
  H   H759      1.0  0.99438  0.33069  0.39455  1.0000
  C   C489      1.0  0.02379  0.26656  0.12708  1.0000
  H   H760      1.0  0.00368  0.50156  0.41149  1.0000
  H   H761      1.0  0.85882  0.23523  0.14009  1.0000
  C   C490      1.0  0.05304  0.50725  0.48669  1.0000
  H   H762      1.0  0.98085  0.39144  0.08040  1.0000
  H   H763      1.0  0.86348  0.28745  0.14059  1.0000
  H   H764      1.0  0.04847  0.26467  0.20174  1.0000
  H   H765      1.0  0.01926  0.28966  0.12544  1.0000
  C   C491      1.0  0.00963  0.09649  0.29727  1.0000
  N   N48       1.0  0.00699  0.10325  0.25291  1.0000
  Fe  Fe99      1.0  0.06683  0.44179  0.37881  1.0000
  C   C492      1.0  0.05862  0.22969  0.13722  1.0000
  S   S195      1.0  0.05996  0.47616  0.33238  1.0000
  C   C493      1.0  0.07086  0.27261  0.10310  1.0000
  H   H766      1.0  0.98017  0.12825  0.21343  1.0000
  C   C494      1.0  0.03241  0.11733  0.23911  1.0000
  H   H767      1.0  0.83338  0.30970  0.13092  1.0000
  H   H768      1.0  0.04830  0.40912  0.10166  1.0000
  H   H769      1.0  0.06592  0.26340  0.07221  1.0000
  H   H770      1.0  0.04795  0.28442  0.44341  1.0000
  H   H771      1.0  0.83131  0.23852  0.17716  1.0000
  H   H772      1.0  0.07082  0.45513  0.11220  1.0000
  H   H773      1.0  0.98266  0.50163  0.48082  1.0000
  C   C495      1.0  0.98251  0.12225  0.24648  1.0000
  H   H774      1.0  0.97288  0.40794  0.52470  1.0000
  H   H775      1.0  0.04602  0.21989  0.16180  1.0000
  C   C496      1.0  0.00397  0.49859  0.49397  1.0000
  H   H776      1.0  0.02680  0.35293  0.49375  1.0000
  H   H777      1.0  0.01745  0.25729  0.09685  1.0000
  H   H778      1.0  0.05297  0.21946  0.10733  1.0000
  H   H779      1.0  0.04941  0.32232  0.49818  1.0000
  H   H780      1.0  0.98935  0.33961  0.08184  1.0000
  H   H781      1.0  0.07483  0.39197  0.13252  1.0000
  H   H782      1.0  0.03650  0.13653  0.25810  1.0000
  C   C497      1.0  0.02726  0.29345  0.43412  1.0000
  S   S196      1.0  0.05444  0.14302  0.39701  1.0000
  H   H783      1.0  0.05912  0.42492  0.54739  1.0000
  H   H784      1.0  0.04562  0.33422  0.38506  1.0000
  C   C498      1.0  0.83592  0.23861  0.14350  1.0000
  C   C499      1.0  0.02459  0.49922  0.42618  1.0000
  H   H785      1.0  0.99834  0.54688  0.45077  1.0000
  S   S197      1.0  0.02983  0.41851  0.40192  1.0000
  H   H786      1.0  0.85628  0.26246  0.07500  1.0000
  H   H787      1.0  0.05434  0.51688  0.51810  1.0000
  H   H788      1.0  0.00388  0.50748  0.52592  1.0000
  H   H789      1.0  0.03976  0.50932  0.40547  1.0000
  C   C500      1.0  0.01909  0.54254  0.46514  1.0000
  C   C501      1.0  0.02475  0.41838  0.45555  1.0000
  C   C502      1.0  0.99819  0.41296  0.47070  1.0000
  C   C503      1.0  0.99358  0.41174  0.51331  1.0000
  C   C504      1.0  0.04201  0.42196  0.52603  1.0000
  C   C505      1.0  0.04667  0.42308  0.48322  1.0000
  H   H790      1.0  0.98106  0.40973  0.44942  1.0000
  C   C506      1.0  0.85639  0.28893  0.55528  1.0000
  H   H791      1.0  0.00695  0.22731  0.52341  1.0000
  H   H792      1.0  0.06736  0.42673  0.47177  1.0000
  H   H793      1.0  0.02999  0.47632  0.42689  1.0000
  H   H794      1.0  0.01930  0.55292  0.49613  1.0000
  H   H795      1.0  0.06958  0.51671  0.46756  1.0000
  N   N49       1.0  0.02515  0.51191  0.46804  1.0000
  H   H796      1.0  0.07151  0.39950  0.25726  1.0000
  H   H797      1.0  0.05823  0.48435  0.48964  1.0000
  H   H798      1.0  0.00801  0.47542  0.49641  1.0000
  C   C507      1.0  0.83333  0.26463  0.07980  1.0000
  Fe  Fe100     1.0  0.93014  0.26209  0.05844  1.0000
  H   H799      1.0  0.05106  0.10303  0.24137  1.0000
  C   C508      1.0  0.84043  0.28921  0.14441  1.0000
  H   H800      1.0  0.06793  0.37961  0.08082  1.0000
  C   C509      1.0  0.06942  0.39888  0.10058  1.0000
  H   H801      1.0  0.86318  0.27401  0.53032  1.0000
  C   C510      1.0  0.07424  0.57691  0.27635  1.0000
  H   H802      1.0  0.06863  0.33018  0.42859  1.0000
  H   H803      1.0  0.06742  0.29584  0.10087  1.0000
  H   H804      1.0  0.07211  0.56908  0.24499  1.0000
  C   C511      1.0  0.06942  0.11768  0.36366  1.0000
  H   H805      1.0  0.85417  0.31013  0.54114  1.0000
  S   S198      1.0  0.96358  0.35171  0.55229  1.0000
  H   H806      1.0  0.83604  0.29026  0.17810  1.0000
  C   C512      1.0  0.00085  0.35237  0.06065  1.0000
  C   C513      1.0  0.99610  0.38165  0.05994  1.0000
  C   C514      1.0  0.84743  0.34510  0.05662  1.0000
  H   H807      1.0  0.07805  0.18918  0.43708  1.0000
  S   S199      1.0  0.07696  0.27724  0.35149  1.0000
  H   H808      1.0  0.88388  0.42748  0.95857  1.0000
  C   C515      1.0  0.07285  0.24810  0.68055  1.0000
  S   S200      1.0  0.96163  0.28633  0.95530  1.0000
  H   H809      1.0  0.93500  0.26074  0.81243  1.0000
  C   C516      1.0  0.07160  0.24646  0.89885  1.0000
  Fe  Fe101     1.0  0.94801  0.24324  0.97276  1.0000
  S   S201      1.0  0.95171  0.20570  0.93042  1.0000
  Fe  Fe102     1.0  0.92207  0.30095  0.98568  1.0000
  C   C517      1.0  0.92799  0.31177  0.84935  1.0000
  H   H810      1.0  0.02740  0.29571  0.94113  1.0000
  S   S202      1.0  0.01006  0.41214  0.59433  1.0000
  S   S203      1.0  0.92848  0.31656  0.62123  1.0000
  C   C518      1.0  0.07469  0.56955  0.85587  1.0000
  C   C519      1.0  0.00936  0.22255  0.82272  1.0000
  C   C520      1.0  0.99185  0.24410  0.83808  1.0000
  C   C521      1.0  0.97406  0.23878  0.87109  1.0000
  C   C522      1.0  0.97330  0.21191  0.88822  1.0000
  C   C523      1.0  0.99003  0.19007  0.87172  1.0000
  C   C524      1.0  0.00828  0.19545  0.83920  1.0000
  H   H811      1.0  0.99258  0.26503  0.82517  1.0000
  H   H812      1.0  0.96072  0.25531  0.88314  1.0000
  H   H813      1.0  0.98931  0.16914  0.88466  1.0000
  H   H814      1.0  0.02142  0.17856  0.82690  1.0000
  N   N50       1.0  0.90611  0.29332  0.83287  1.0000
  H   H815      1.0  0.89098  0.32440  0.78977  1.0000
  H   H816      1.0  0.01918  0.25327  0.70279  1.0000
  C   C525      1.0  0.06832  0.29638  0.88534  1.0000
  S   S204      1.0  0.06131  0.44921  0.94804  1.0000
  S   S205      1.0  0.07015  0.52363  0.90518  1.0000
  Fe  Fe103     1.0  0.97995  0.28776  0.01900  1.0000
  H   H817      1.0  0.94580  0.29939  0.86237  1.0000
  C   C526      1.0  0.03977  0.44172  0.68461  1.0000
  H   H818      1.0  0.05348  0.42776  0.76231  1.0000
  H   H819      1.0  0.91179  0.26265  0.88111  1.0000
  H   H820      1.0  0.00274  0.40020  0.68598  1.0000
  H   H821      1.0  0.86632  0.29797  0.80253  1.0000
  S   S206      1.0  0.90685  0.25770  0.99868  1.0000
  H   H822      1.0  0.87403  0.32547  0.83919  1.0000
  C   C527      1.0  0.06630  0.58716  0.82332  1.0000
  C   C528      1.0  0.04483  0.20708  0.67000  1.0000
  H   H823      1.0  0.87883  0.26148  0.85498  1.0000
  S   S207      1.0  0.03363  0.23009  0.78462  1.0000
  S   S208      1.0  0.99322  0.27539  0.57457  1.0000
  C   C529      1.0  0.01005  0.39797  0.03128  1.0000
  H   H824      1.0  0.02093  0.41252  0.77546  1.0000
  C   C530      1.0  0.88331  0.31104  0.81531  1.0000
  C   C531      1.0  0.03224  0.55302  0.80212  1.0000
  H   H825      1.0  0.93642  0.32529  0.82473  1.0000
  C   C532      1.0  0.91800  0.27469  0.80018  1.0000
  C   C533      1.0  0.89510  0.27593  0.86650  1.0000
  Fe  Fe104     1.0  0.97145  0.31551  0.59474  1.0000
  H   H826      1.0  0.03553  0.22967  0.59542  1.0000
  H   H827      1.0  0.05906  0.24157  0.87075  1.0000
  H   H828      1.0  0.91979  0.32595  0.87427  1.0000
  H   H829      1.0  0.88553  0.28925  0.89139  1.0000
  N   N51       1.0  0.06376  0.27440  0.91650  1.0000
  S   S209      1.0  0.89259  0.33093  0.95357  1.0000
  H   H830      1.0  0.92587  0.45575  0.94632  1.0000
  H   H831      1.0  0.89074  0.34466  0.03985  1.0000
  C   C534      1.0  0.86448  0.33598  0.98733  1.0000
  H   H832      1.0  0.92697  0.28711  0.77465  1.0000
  H   H833      1.0  0.90195  0.26088  0.78646  1.0000
  C   C535      1.0  0.83707  0.33283  0.97334  1.0000
  H   H834      1.0  0.04746  0.42207  0.66880  1.0000
  H   H835      1.0  0.95979  0.43981  0.95243  1.0000
  H   H836      1.0  0.05602  0.29243  0.85669  1.0000
  H   H837      1.0  0.93883  0.44648  0.99699  1.0000
  Fe  Fe105     1.0  0.04681  0.48336  0.90531  1.0000
  H   H838      1.0  0.98486  0.43325  0.67772  1.0000
  S   S210      1.0  0.99004  0.34190  0.64481  1.0000
  H   H839      1.0  0.89682  0.41776  0.00887  1.0000
  H   H840      1.0  0.02699  0.19766  0.65323  1.0000
  H   H841      1.0  0.06958  0.24781  0.71460  1.0000
  H   H842      1.0  0.00451  0.24536  0.65297  1.0000
  S   S211      1.0  0.93902  0.33929  0.73559  1.0000
  C   C536      1.0  0.85296  0.37002  0.56894  1.0000
  H   H843      1.0  0.91358  0.41837  0.89631  1.0000
  Fe  Fe106     1.0  0.99826  0.45071  0.87364  1.0000
  S   S212      1.0  0.00218  0.48225  0.92524  1.0000
  S   S213      1.0  0.95979  0.45205  0.83419  1.0000
  C   C537      1.0  0.93806  0.43961  0.96399  1.0000
  H   H844      1.0  0.83833  0.23606  0.56486  1.0000
  N   N52       1.0  0.02038  0.43536  0.71842  1.0000
  Fe  Fe107     1.0  0.01627  0.44515  0.96277  1.0000
  S   S214      1.0  0.00129  0.43376  0.02559  1.0000
  C   C538      1.0  0.92589  0.40300  0.91526  1.0000
  C   C539      1.0  0.04489  0.57900  0.79671  1.0000
  S   S215      1.0  0.00835  0.41348  0.91291  1.0000
  C   C540      1.0  0.89734  0.41198  0.97546  1.0000
  S   S216      1.0  0.93611  0.38571  0.63286  1.0000
  H   H845      1.0  0.91674  0.38185  0.91071  1.0000
  Fe  Fe108     1.0  0.94628  0.34617  0.66813  1.0000
  H   H846      1.0  0.02835  0.47376  0.75209  1.0000
  H   H847      1.0  0.02977  0.51611  0.84001  1.0000
  C   C541      1.0  0.83319  0.25137  0.59015  1.0000
  S   S217      1.0  0.04192  0.45464  0.85016  1.0000
  H   H848      1.0  0.97931  0.35314  0.79760  1.0000
  H   H849      1.0  0.87252  0.37903  0.62746  1.0000
  H   H850      1.0  0.96509  0.38944  0.97161  1.0000
  C   C542      1.0  0.94326  0.39070  0.98307  1.0000
  C   C543      1.0  0.95401  0.42056  0.80717  1.0000
  C   C544      1.0  0.93254  0.41952  0.77783  1.0000
  C   C545      1.0  0.92810  0.39463  0.75527  1.0000
  C   C546      1.0  0.94478  0.37063  0.76275  1.0000
  C   C547      1.0  0.96614  0.37160  0.79221  1.0000
  C   C548      1.0  0.97092  0.39663  0.81410  1.0000
  H   H851      1.0  0.91951  0.43806  0.77222  1.0000
  H   H852      1.0  0.91160  0.39392  0.73240  1.0000
  H   H853      1.0  0.02049  0.27030  0.90121  1.0000
  H   H854      1.0  0.98788  0.39737  0.83596  1.0000
  N   N53       1.0  0.92614  0.41131  0.95942  1.0000
  C   C549      1.0  0.04030  0.53565  0.83506  1.0000
  H   H855      1.0  0.99968  0.47609  0.71620  1.0000
  H   H856      1.0  0.99588  0.45791  0.76402  1.0000
  H   H857      1.0  0.05007  0.34643  0.98547  1.0000
  C   C550      1.0  0.85305  0.37802  0.61065  1.0000
  H   H858      1.0  0.94426  0.39660  0.01641  1.0000
  H   H859      1.0  0.98107  0.41529  0.72583  1.0000
  H   H860      1.0  0.93473  0.36914  0.98089  1.0000
  H   H861      1.0  0.02513  0.27602  0.65974  1.0000
  C   C551      1.0  0.02990  0.38522  0.00515  1.0000
  C   C552      1.0  0.03522  0.35615  0.00662  1.0000
  H   H862      1.0  0.01558  0.54677  0.78161  1.0000
  Fe  Fe109     1.0  0.97845  0.37865  0.60469  1.0000
  H   H863      1.0  0.04098  0.39758  0.98316  1.0000
  H   H864      1.0  0.02984  0.25874  0.95217  1.0000
  H   H865      1.0  0.04197  0.39685  0.73527  1.0000
  C   C553      1.0  0.03484  0.41733  0.74918  1.0000
  Fe  Fe110     1.0  0.92196  0.35556  0.58345  1.0000
  Fe  Fe111     1.0  0.05255  0.42012  0.89495  1.0000
  S   S218      1.0  0.02312  0.30297  0.02988  1.0000
  H   H866      1.0  0.94731  0.40209  0.90224  1.0000
  C   C554      1.0  0.99619  0.42038  0.70132  1.0000
  C   C555      1.0  0.01069  0.46195  0.73851  1.0000
  H   H867      1.0  0.02936  0.45492  0.66051  1.0000
  S   S219      1.0  0.94161  0.30699  0.04804  1.0000
  H   H868      1.0  0.85009  0.24980  0.61372  1.0000
  H   H869      1.0  0.88761  0.39103  0.97215  1.0000
  Fe  Fe112     1.0  0.06625  0.19563  0.78408  1.0000
  C   C556      1.0  0.02012  0.33963  0.03354  1.0000
  S   S220      1.0  0.97013  0.24337  0.03378  1.0000
  H   H870      1.0  0.06207  0.31775  0.89722  1.0000
  N   N54       1.0  0.04860  0.23675  0.65816  1.0000
  H   H871      1.0  0.05821  0.45321  0.69623  1.0000
  C   C557      1.0  0.05345  0.23816  0.61318  1.0000
  H   H872      1.0  0.07255  0.22585  0.60413  1.0000
  C   C558      1.0  0.03405  0.27477  0.92822  1.0000
  S   S221      1.0  0.06318  0.15488  0.74905  1.0000
  H   H873      1.0  0.06826  0.22933  0.92140  1.0000
  H   H874      1.0  0.04058  0.20537  0.70361  1.0000
  C   C559      1.0  0.02328  0.25359  0.66895  1.0000
  C   C560      1.0  0.86963  0.34208  0.02894  1.0000
  C   C561      1.0  0.06138  0.54403  0.86214  1.0000
  H   H875      1.0  0.06379  0.19383  0.66321  1.0000
  S   S222      1.0  0.07120  0.09651  0.83770  1.0000
  H   H876      1.0  0.05593  0.26034  0.60306  1.0000
  H   H877      1.0  0.83945  0.29987  0.63297  1.0000
  H   H878      1.0  0.87360  0.29003  0.57838  1.0000
  H   H879      1.0  0.07788  0.26373  0.97767  1.0000
  H   H880      1.0  0.06144  0.43685  0.04108  1.0000
  H   H881      1.0  0.83305  0.32794  0.94118  1.0000
  H   H882      1.0  0.01512  0.58542  0.87411  1.0000
  H   H883      1.0  0.07663  0.27031  0.67184  1.0000
  H   H884      1.0  0.07535  0.30074  0.96801  1.0000
  S   S223      1.0  0.07849  0.38078  0.88415  1.0000
  N   N55       1.0  0.82999  0.28040  0.57434  1.0000
  C   C562      1.0  0.89215  0.73129  0.14734  1.0000
  C   C563      1.0  0.00352  0.07690  0.22881  1.0000
  H   H885      1.0  0.00544  0.76802  0.46726  1.0000
  H   H886      1.0  0.06624  0.78037  0.50116  1.0000
  H   H887      1.0  0.06667  0.93364  0.38956  1.0000
  C   C564      1.0  0.88040  0.74542  0.07787  1.0000
  H   H888      1.0  0.91473  0.72959  0.13941  1.0000
  H   H889      1.0  0.99838  0.75647  0.54139  1.0000
  C   C565      1.0  0.85991  0.90736  0.50232  1.0000
  H   H890      1.0  0.85807  0.86971  0.41252  1.0000
  H   H891      1.0  0.87098  0.72474  0.07068  1.0000
  H   H892      1.0  0.91276  0.77996  0.12323  1.0000
  N   N56       1.0  0.03589  0.74789  0.50687  1.0000
  H   H893      1.0  0.88190  0.91416  0.50005  1.0000
  S   S224      1.0  0.01282  0.87269  0.08732  1.0000
  C   C566      1.0  0.99203  0.75226  0.11387  1.0000
  C   C567      1.0  0.00612  0.72805  0.12823  1.0000
  C   C568      1.0  0.03313  0.73009  0.14492  1.0000
  C   C569      1.0  0.04607  0.75624  0.14624  1.0000
  C   C570      1.0  0.03162  0.78034  0.13276  1.0000
  C   C571      1.0  0.00454  0.77843  0.11750  1.0000
  H   H894      1.0  0.99649  0.70772  0.12572  1.0000
  H   H895      1.0  0.04430  0.71133  0.15524  1.0000
  C   C572      1.0  0.05790  0.72559  0.50386  1.0000
  H   H896      1.0  0.99354  0.79738  0.10831  1.0000
  H   H897      1.0  0.02460  0.90411  0.38490  1.0000
  H   H898      1.0  0.98475  0.06544  0.23876  1.0000
  H   H899      1.0  0.05612  0.77338  0.55294  1.0000
  S   S225      1.0  0.94261  0.83055  0.10067  1.0000
  H   H900      1.0  0.88033  0.79743  0.11045  1.0000
  H   H901      1.0  0.84757  0.90597  0.42126  1.0000
  H   H902      1.0  0.02746  0.08160  0.30289  1.0000
  N   N57       1.0  0.87756  0.75295  0.12213  1.0000
  H   H903      1.0  0.06694  0.88214  0.47586  1.0000
  C   C573      1.0  0.07470  0.87382  0.44564  1.0000
  C   C574      1.0  0.07611  0.61601  0.32476  1.0000
  S   S226      1.0  0.05684  0.71245  0.25253  1.0000
  C   C575      1.0  0.04826  0.77466  0.52058  1.0000
  C   C576      1.0  0.84772  0.75441  0.13327  1.0000
  H   H904      1.0  0.06822  0.85153  0.44255  1.0000
  H   H905      1.0  0.89080  0.73645  0.18090  1.0000
  H   H906      1.0  0.02181  0.06220  0.23276  1.0000
  H   H907      1.0  0.83638  0.77114  0.11568  1.0000
  H   H908      1.0  0.06656  0.89134  0.34459  1.0000
  H   H909      1.0  0.83726  0.73420  0.12636  1.0000
  H   H910      1.0  0.06327  0.85567  0.20517  1.0000
  H   H911      1.0  0.88322  0.71010  0.14230  1.0000
  H   H912      1.0  0.84479  0.75936  0.16666  1.0000
  H   H913      1.0  0.01367  0.73182  0.45409  1.0000
  C   C577      1.0  0.07340  0.60603  0.28417  1.0000
  C   C578      1.0  0.07182  0.84243  0.17936  1.0000
  H   H914      1.0  0.87020  0.85382  0.52358  1.0000
  C   C579      1.0  0.07397  0.92019  0.41560  1.0000
  C   C580      1.0  0.02257  0.75178  0.46597  1.0000
  N   N58       1.0  0.06406  0.89109  0.41094  1.0000
  C   C581      1.0  0.89007  0.78066  0.13001  1.0000
  H   H915      1.0  0.84624  0.92545  0.49279  1.0000
  S   S227      1.0  0.06481  0.74881  0.36191  1.0000
  S   S228      1.0  0.93809  0.90312  0.46786  1.0000
  C   C582      1.0  0.84345  0.83586  0.06592  1.0000
  Fe  Fe113     1.0  0.04345  0.98091  0.34761  1.0000
  S   S229      1.0  0.02928  0.01320  0.30151  1.0000
  S   S230      1.0  0.03394  0.98354  0.41518  1.0000
  H   H916      1.0  0.06609  0.93039  0.44457  1.0000
  H   H917      1.0  0.03780  0.75872  0.44257  1.0000
  H   H918      1.0  0.05932  0.84755  0.15121  1.0000
  H   H919      1.0  0.04922  0.70500  0.49429  1.0000
  H   H920      1.0  0.04131  0.80059  0.13371  1.0000
  Fe  Fe114     1.0  0.02559  0.97610  0.25834  1.0000
  S   S231      1.0  0.98881  0.97110  0.21618  1.0000
  H   H921      1.0  0.03280  0.79248  0.51945  1.0000
  S   S232      1.0  0.03575  0.94366  0.30641  1.0000
  S   S233      1.0  0.94195  0.84111  0.54208  1.0000
  Fe  Fe115     1.0  0.94406  0.88774  0.53281  1.0000
  C   C583      1.0  0.86118  0.88841  0.43288  1.0000
  H   H922      1.0  0.87005  0.83893  0.47249  1.0000
  C   C584      1.0  0.99483  0.94304  0.18122  1.0000
  C   C585      1.0  0.02113  0.92979  0.17919  1.0000
  C   C586      1.0  0.02647  0.90844  0.14996  1.0000
  C   C587      1.0  0.00526  0.89941  0.12365  1.0000
  C   C588      1.0  0.97863  0.91195  0.12632  1.0000
  C   C589      1.0  0.97351  0.93405  0.15480  1.0000
  H   H923      1.0  0.03747  0.93606  0.19994  1.0000
  H   H924      1.0  0.04703  0.89887  0.14793  1.0000
  H   H925      1.0  0.06754  0.85689  0.36700  1.0000
  H   H926      1.0  0.95307  0.94411  0.15647  1.0000
  C   C590      1.0  0.96343  0.92707  0.45342  1.0000
  C   C591      1.0  0.98018  0.93984  0.48329  1.0000
  C   C592      1.0  0.00141  0.95774  0.47133  1.0000
  C   C593      1.0  0.00583  0.96303  0.42947  1.0000
  C   C594      1.0  0.98852  0.95102  0.39959  1.0000
  C   C595      1.0  0.96733  0.93300  0.41158  1.0000
  H   H927      1.0  0.97661  0.93623  0.51563  1.0000
  H   H928      1.0  0.01454  0.96734  0.49451  1.0000
  H   H929      1.0  0.99143  0.95556  0.36727  1.0000
  H   H930      1.0  0.95418  0.92343  0.38838  1.0000
  C   C596      1.0  0.87358  0.85863  0.49045  1.0000
  C   C597      1.0  0.03326  0.89142  0.41093  1.0000
  N   N59       1.0  0.85507  0.88206  0.47648  1.0000
  H   H931      1.0  0.88766  0.78745  0.16282  1.0000
  H   H932      1.0  0.06891  0.72255  0.53382  1.0000
  S   S234      1.0  0.95984  0.75018  0.08840  1.0000
  H   H933      1.0  0.00128  0.08119  0.19520  1.0000
  H   H934      1.0  0.96211  0.90498  0.10610  1.0000
  H   H935      1.0  0.88322  0.89486  0.42912  1.0000
  H   H936      1.0  0.02503  0.86978  0.40777  1.0000
  Fe  Fe116     1.0  0.95206  0.79280  0.06063  1.0000
  H   H937      1.0  0.85569  0.90326  0.53547  1.0000
  H   H938      1.0  0.89590  0.86387  0.48703  1.0000
  H   H939      1.0  0.02470  0.90085  0.44001  1.0000
  H   H940      1.0  0.90267  0.74400  0.06846  1.0000
  C   C598      1.0  0.01470  0.73958  0.53715  1.0000
  H   H941      1.0  0.00418  0.71997  0.52733  1.0000
  S   S235      1.0  0.06925  0.97839  0.23436  1.0000
  H   H942      1.0  0.05499  0.73839  0.06313  1.0000
  S   S236      1.0  0.87040  0.86012  0.06781  1.0000
  H   H943      1.0  0.07482  0.63840  0.33114  1.0000
  S   S237      1.0  0.06998  0.62945  0.24259  1.0000
  Fe  Fe117     1.0  0.97469  0.85184  0.06285  1.0000
  H   H944      1.0  0.06821  0.82000  0.18723  1.0000
  H   H945      1.0  0.07409  0.73097  0.48096  1.0000
  H   H946      1.0  0.05664  0.08265  0.40036  1.0000
  C   C599      1.0  0.07435  0.87896  0.37147  1.0000
  Fe  Fe118     1.0  0.07403  0.01232  0.28214  1.0000
  H   H947      1.0  0.87001  0.76145  0.05788  1.0000
  H   H948      1.0  0.07709  0.78506  0.07782  1.0000
  H   H949      1.0  0.07352  0.04647  0.35020  1.0000
  H   H950      1.0  0.99061  0.08640  0.30910  1.0000
  C   C600      1.0  0.07650  0.06854  0.34397  1.0000
  H   H951      1.0  0.05451  0.61505  0.90181  1.0000
  Fe  Fe119     1.0  0.04053  0.64759  0.76837  1.0000
  H   H952      1.0  0.86116  0.81116  0.01604  1.0000
  C   C601      1.0  0.98624  0.81724  0.73416  1.0000
  Fe  Fe120     1.0  0.01315  0.70275  0.74318  1.0000
  S   S238      1.0  0.04329  0.72918  0.77871  1.0000
  S   S239      1.0  0.97620  0.72053  0.70878  1.0000
  H   H953      1.0  0.03065  0.90813  0.01737  1.0000
  Fe  Fe121     1.0  0.03876  0.69730  0.82871  1.0000
  S   S240      1.0  0.03287  0.70782  0.89619  1.0000
  S   S241      1.0  0.00552  0.67363  0.79546  1.0000
  H   H954      1.0  0.05303  0.95528  0.64508  1.0000
  H   H955      1.0  0.00343  0.61556  0.84530  1.0000
  S   S242      1.0  0.91984  0.80288  0.01238  1.0000
  S   S243      1.0  0.96901  0.82498  0.91709  1.0000
  H   H956      1.0  0.92747  0.79128  0.77593  1.0000
  H   H957      1.0  0.95931  0.79597  0.61006  1.0000
  N   N60       1.0  0.96879  0.80676  0.76789  1.0000
  C   C602      1.0  0.01600  0.74076  0.90271  1.0000
  C   C603      1.0  0.02267  0.76351  0.87770  1.0000
  C   C604      1.0  0.00864  0.78963  0.88277  1.0000
  C   C605      1.0  0.98755  0.79282  0.91219  1.0000
  C   C606      1.0  0.98156  0.77034  0.93811  1.0000
  C   C607      1.0  0.99598  0.74444  0.93367  1.0000
  H   H958      1.0  0.03898  0.76112  0.85497  1.0000
  H   H959      1.0  0.01416  0.80734  0.86395  1.0000
  H   H960      1.0  0.96536  0.77266  0.96107  1.0000
  H   H961      1.0  0.99099  0.72704  0.95347  1.0000
  C   C608      1.0  0.00322  0.78865  0.62120  1.0000
  C   C609      1.0  0.97492  0.78319  0.62581  1.0000
  C   C610      1.0  0.96666  0.76122  0.65124  1.0000
  C   C611      1.0  0.98670  0.74511  0.67262  1.0000
  C   C612      1.0  0.01501  0.74996  0.66689  1.0000
  C   C613      1.0  0.02326  0.77144  0.64057  1.0000
  H   H962      1.0  0.06912  0.81182  0.67173  1.0000
  H   H963      1.0  0.94473  0.75725  0.65524  1.0000
  H   H964      1.0  0.03047  0.73736  0.68316  1.0000
  H   H965      1.0  0.04510  0.77503  0.63579  1.0000
  H   H966      1.0  0.04055  0.64405  0.87250  1.0000
  H   H967      1.0  0.97660  0.83628  0.71964  1.0000
  H   H968      1.0  0.98898  0.60000  0.95593  1.0000
  Fe  Fe122     1.0  0.91370  0.85266  0.59481  1.0000
  H   H969      1.0  0.04928  0.80207  0.04931  1.0000
  S   S244      1.0  0.98639  0.81317  0.02668  1.0000
  C   C614      1.0  0.04248  0.87882  0.92244  1.0000
  H   H970      1.0  0.05249  0.93361  0.93715  1.0000
  C   C615      1.0  0.01020  0.60765  0.94924  1.0000
  H   H971      1.0  0.93056  0.81708  0.73581  1.0000
  S   S245      1.0  0.07628  0.93183  0.84316  1.0000
  H   H972      1.0  0.02422  0.73562  0.56807  1.0000
  H   H973      1.0  0.98928  0.80105  0.70947  1.0000
  H   H974      1.0  0.94342  0.78160  0.72774  1.0000
  H   H975      1.0  0.99141  0.66058  0.88386  1.0000
  H   H976      1.0  0.00724  0.82295  0.74568  1.0000
  N   N61       1.0  0.01065  0.62348  0.91014  1.0000
  C   C616      1.0  0.98266  0.78175  0.78643  1.0000
  Fe  Fe123     1.0  0.91279  0.84265  0.04978  1.0000
  H   H977      1.0  0.04044  0.78661  0.97559  1.0000
  Fe  Fe124     1.0  0.95359  0.82731  0.98223  1.0000
  H   H978      1.0  0.03282  0.88047  0.89115  1.0000
  H   H979      1.0  0.95499  0.84844  0.78667  1.0000
  C   C617      1.0  0.84410  0.81352  0.03748  1.0000
  S   S246      1.0  0.04587  0.67511  0.71331  1.0000
  C   C618      1.0  0.03922  0.63303  0.90255  1.0000
  H   H980      1.0  0.95204  0.82194  0.82582  1.0000
  S   S247      1.0  0.03224  0.60163  0.75828  1.0000
  H   H981      1.0  0.02795  0.75664  0.03488  1.0000
  C   C619      1.0  0.96509  0.82909  0.79973  1.0000
  C   C620      1.0  0.94131  0.79890  0.75115  1.0000
  H   H982      1.0  0.98543  0.83532  0.81319  1.0000
  H   H983      1.0  0.99648  0.86827  0.96607  1.0000
  S   S248      1.0  0.87650  0.82561  0.60323  1.0000
  H   H984      1.0  0.01967  0.94213  0.96104  1.0000
  H   H985      1.0  0.02075  0.93041  0.90796  1.0000
  S   S249      1.0  0.01354  0.81781  0.59315  1.0000
  N   N62       1.0  0.02821  0.89775  0.95255  1.0000
  H   H986      1.0  0.04613  0.64810  0.92689  1.0000
  H   H987      1.0  0.01083  0.00223  0.74039  1.0000
  H   H988      1.0  0.99360  0.97412  0.71380  1.0000
  H   H989      1.0  0.00408  0.78651  0.79707  1.0000
  H   H990      1.0  0.06357  0.90064  0.99338  1.0000
  Fe  Fe125     1.0  0.97657  0.84715  0.58737  1.0000
  S   S250      1.0  0.91295  0.89904  0.58215  1.0000
  C   C621      1.0  0.84403  0.84316  0.59935  1.0000
  H   H991      1.0  0.98474  0.76414  0.76374  1.0000
  C   C622      1.0  0.03286  0.96448  0.65632  1.0000
  H   H992      1.0  0.97080  0.77387  0.81327  1.0000
  C   C623      1.0  0.00903  0.99105  0.71012  1.0000
  S   S251      1.0  0.03684  0.86642  0.79948  1.0000
  C   C624      1.0  0.04743  0.95942  0.72741  1.0000
  H   H993      1.0  0.04058  0.87246  0.00470  1.0000
  H   H994      1.0  0.96965  0.64197  0.91881  1.0000
  S   S252      1.0  0.94823  0.85448  0.64129  1.0000
  C   C625      1.0  0.04136  0.89458  0.99370  1.0000
  S   S253      1.0  0.95740  0.93092  0.67535  1.0000
  C   C626      1.0  0.03032  0.92729  0.93903  1.0000
  H   H995      1.0  0.98704  0.90441  0.97707  1.0000
  H   H996      1.0  0.01798  0.94694  0.65891  1.0000
  C   C627      1.0  0.00184  0.60493  0.87575  1.0000
  H   H997      1.0  0.05066  0.97004  0.75784  1.0000
  C   C628      1.0  0.01588  0.88562  0.76507  1.0000
  C   C629      1.0  0.01769  0.88000  0.72269  1.0000
  C   C630      1.0  0.99961  0.89392  0.69522  1.0000
  C   C631      1.0  0.98012  0.91396  0.70997  1.0000
  C   C632      1.0  0.97889  0.92025  0.75227  1.0000
  C   C633      1.0  0.99663  0.90587  0.77992  1.0000
  H   H998      1.0  0.03312  0.94173  0.73217  1.0000
  C   C634      1.0  0.99861  0.89027  0.95511  1.0000
  H   H999      1.0  0.96376  0.93570  0.76369  1.0000
  H   H1000     1.0  0.99519  0.91018  0.81274  1.0000
  H   H1001     1.0  0.04765  0.72848  0.01055  1.0000
  Fe  Fe126     1.0  0.95044  0.89993  0.62387  1.0000
  C   C635      1.0  0.99143  0.64826  0.91296  1.0000
  C   C636      1.0  0.84126  0.87210  0.60748  1.0000
  H   H1002     1.0  0.97994  0.59830  0.87934  1.0000
  H   H1003     1.0  0.85902  0.88374  0.61815  1.0000
  H   H1004     1.0  0.98804  0.89158  0.92446  1.0000
  H   H1005     1.0  0.06795  0.95011  0.71781  1.0000
  S   S254      1.0  0.94414  0.86806  0.01562  1.0000
  H   H1006     1.0  0.03260  0.86446  0.71100  1.0000
  H   H1007     1.0  0.99771  0.66295  0.93820  1.0000
  S   S255      1.0  0.98172  0.89278  0.57343  1.0000
  H   H1008     1.0  0.00082  0.88916  0.66253  1.0000
  H   H1009     1.0  0.02448  0.97890  0.63208  1.0000
  H   H1010     1.0  0.00008  0.00626  0.68740  1.0000
  N   N63       1.0  0.03632  0.97938  0.69629  1.0000
  H   H1011     1.0  0.04143  0.85635  0.93179  1.0000
  H   H1012     1.0  0.06478  0.88415  0.91944  1.0000
  H   H1013     1.0  0.02459  0.58880  0.94791  1.0000
  H   H1014     1.0  0.07645  0.60695  0.81875  1.0000
  C   C637      1.0  0.06177  0.77679  0.97590  1.0000
  H   H1015     1.0  0.06174  0.75883  0.95342  1.0000
  H   H1016     1.0  0.01686  0.62098  0.97583  1.0000
  C   C638      1.0  0.04919  0.74678  0.03218  1.0000
  H   H1017     1.0  0.04881  0.01772  0.66731  1.0000
  C   C639      1.0  0.05599  0.00261  0.69142  1.0000
  H   H1018     1.0  0.05841  0.01473  0.72079  1.0000
  H   H1019     1.0  0.06812  0.03981  0.86642  1.0000
  H   H1020     1.0  0.07108  0.83538  0.74029  1.0000
  H   H1021     1.0  0.07648  0.79256  0.96416  1.0000
  H   H1022     1.0  0.07482  0.73581  0.60201  1.0000
  N   N64       1.0  0.06971  0.76719  0.01774  1.0000
  C   C640      1.0  0.07023  0.79164  0.04638  1.0000
  H   H1023     1.0  0.07509  0.71699  0.67249  1.0000
  S   S256      1.0  0.07344  0.66850  0.80661  1.0000
  Fe  Fe127     1.0  0.07570  0.69870  0.75383  1.0000
  Fe  Fe128     1.0  0.07586  0.88978  0.81136  1.0000
  H   H1024     1.0  0.07717  0.99448  0.68268  1.0000
