data_image0
_chemical_formula_structural       H2NHFeS2CSFeHFeSCS2HSCH2NCHC4H5CFeHC2H6CHSHC2HNH3C2SH2SCH2CHNCH2C2H3CH4CH4C2H2SFeS2FeSCH2FeC6H7FeC2SHCH2CH2CHC3H5SCHCHCH4SH2FeS2FeS2FeSFeS3FeSFeSFeSFeS3CH5CH4C2H2CHC7H4C5H2C4NH3CH4NH4SNH2C3H4C5H9CH4C2H3CNH3CHCH5CH2FeS2FeHSFeSHS2CH2CH2CHC2HCH3C2H9CH2NHSCH2CHCSCH2CHCH2CH2CHCHC2H2NSH3SHCHCSFeSCFeSCFeSFeSC3FeHCH2C6HCH4C2HSH3C5SH2CH2NH3CH2CH4CH3NH5C2NHFeS2FeSFeSFeS2FeS2FeSFeS3CHNHCHC3HCH5C6H5C4H3CNHSH2FeHCH2CH6CHCH2CHNC2H2SHCH6SC4H4CNCH3C2HCHC2Fe2S2FeS2FeS2FeS2FeSFeS3C6HCHCHC4H4C6H7CFeH3CH8SH3CH3NH3CHCH2CH3C2NH2C2H3SHCHCHCNCSH2C2H3C2HCH5CHCHCFeS2FeSFeS2HSC2HCH2SHC3H6C2H2CSH3C2H4NC4H9C2SFeH2C4SFeS4CFeSNSCH3C7H4C2H5FeHFeHCH2NCSC2HCH2CH8CHCH4NHCFeSFeSFeSFeS3FeS2FeS2FeSFeS3C2H2C2H3C6H6C2HCH3C2H4C2H2CH2C2H3CHCHC2HCNH3C4HCNH4CH7NCH6NH2C2H3CH3CH3CHSFeCHFeS2HFeS3HCHC2H2CHSH2C3HC2H4CNCSH2CHSNSH4CH5C4H7C2HFeC2HSH3C3SHFeS2HFe2CS2CHC6H5C2H8SHCHSFeH2NHCNH3C2HC3H4CH6CHSHFeSFeSFeSFeS4FeSC2SC4H3C4H3CFeCNH3C2H3CH2C3HCSHC2HFeH2CH3CHCH2CSH3FeCSHCHSCSH2NC3HCH2CH4CH2CH2NCH5CHNC2H2CH2NHCHCH2SC2HCHNCHCH4SFeS2FeSFeSFeS2FeS2FeSFeS3C2H2C7H4C6H7C2H2CSNC2HCHC2H2SH3NC4H12C2HCHCH5CNHFeH5CH3CHFeHC2H4CHCH3CS2HFeS2Fe2S3FeSC2HC2SH2C3H2S2H4SCH6FeSH3FeCHCH2FeC3H2FeH5SH2S2CHC6H2SC3H2CH4NH2CH2NHCSHCHC3H2C3H5CHNH7CHFeSFeS2FeSFeS3FeS2FeS2FeSFeS3C3H2C2H2C6H4C6H4C3H2SH3CNHC2SH3CHCHC2HCH6CH3CH2NH2CH3CHNH2CH2CH4C2H5CH4CHCH2CH2CHFeS2FeS2FeSFeS3HFeS2FeS2Fe2S3CH3C6HCH2C6H5CH3CNCH6CHCH2NH3SC2H2CH2NC4H3CH4CH3CH3CH2CH6CHNCH4CHCNSH5CHCH2C2H7NC2SFeSFeS2Fe2S2HCFeH2SC2H3C3HCH2SHNSCH2CH5C2FeCHSHCHCHCSH2SHCSH3FeHSNCHCH2C6H3C2H2C2H3C2H5CHSHC2H5FeS2FeS2FeSFeS3Fe2S2FeS3CHC2H2C7H4C6H4CH3SCH2FeCNC4H12CHNSCNH9CHCH3CHC2HCNC4H5CHC2H4NHCH2CH2SFeSFeS2FeS2Fe2S2H2CH2NC2HCH3C4H7FeHCHCHCH2C2HSH4C2HSHSFeHCHFeHSC2NHSH3CHCHCNH2C4HCH5SHCH4CHCH3CHCH2CHC2SH2CH3CHCH2NC
_chemical_formula_sum              "H1024 N64 Fe128 S256 C640"
_cell_length_a       40.3517
_cell_length_b       40.0382
_cell_length_c       66.3305
_cell_angle_alpha    89.8288
_cell_angle_beta     89.8128
_cell_angle_gamma    90.5356

_space_group_name_H-M_alt    "P 1"
_space_group_IT_number       1

loop_
  _space_group_symop_operation_xyz
  'x, y, z'

loop_
  _atom_site_type_symbol
  _atom_site_label
  _atom_site_symmetry_multiplicity
  _atom_site_fract_x
  _atom_site_fract_y
  _atom_site_fract_z
  _atom_site_occupancy
  H   H1        1.0  0.22186  0.45614  0.20864  1.0000
  H   H2        1.0  0.28013  0.38873  0.05254  1.0000
  N   N1        1.0  0.19403  0.43600  0.07867  1.0000
  H   H3        1.0  0.14921  0.42121  0.14298  1.0000
  Fe  Fe1       1.0  0.28342  0.35260  0.09567  1.0000
  S   S1        1.0  0.25979  0.35410  0.12637  1.0000
  S   S2        1.0  0.24946  0.33059  0.07189  1.0000
  C   C1        1.0  0.24360  0.34991  0.04818  1.0000
  S   S3        1.0  0.33219  0.37667  0.14430  1.0000
  Fe  Fe2       1.0  0.30591  0.32856  0.13707  1.0000
  H   H4        1.0  0.29399  0.22853  0.09553  1.0000
  Fe  Fe3       1.0  0.28811  0.40191  0.13033  1.0000
  S   S4        1.0  0.26820  0.45002  0.14320  1.0000
  C   C2        1.0  0.25071  0.21365  0.12510  1.0000
  S   S5        1.0  0.30893  0.40253  0.09876  1.0000
  S   S6        1.0  0.30263  0.28451  0.15849  1.0000
  H   H5        1.0  0.22323  0.43790  0.05150  1.0000
  S   S7        1.0  0.32767  0.32403  0.10625  1.0000
  C   C3        1.0  0.37273  0.04043  0.25355  1.0000
  H   H6        1.0  0.14574  0.45839  0.07892  1.0000
  H   H7        1.0  0.20884  0.40472  0.10340  1.0000
  N   N2        1.0  0.24736  0.24007  0.10962  1.0000
  C   C4        1.0  0.15758  0.47389  0.14753  1.0000
  H   H8        1.0  0.20369  0.48066  0.24116  1.0000
  C   C5        1.0  0.21537  0.49131  0.14815  1.0000
  C   C6        1.0  0.22550  0.45835  0.14484  1.0000
  C   C7        1.0  0.20156  0.43307  0.14297  1.0000
  C   C8        1.0  0.16768  0.44087  0.14427  1.0000
  H   H9        1.0  0.19950  0.48937  0.08103  1.0000
  H   H10       1.0  0.49362  0.21562  0.13801  1.0000
  H   H11       1.0  0.20914  0.40749  0.14084  1.0000
  H   H12       1.0  0.19827  0.38256  0.08076  1.0000
  H   H13       1.0  0.27908  0.26990  0.09049  1.0000
  C   C9        1.0  0.21013  0.40576  0.08667  1.0000
  Fe  Fe4       1.0  0.39557  0.11155  0.16515  1.0000
  H   H14       1.0  0.22612  0.20534  0.13098  1.0000
  C   C10       1.0  0.25573  0.39365  0.02371  1.0000
  C   C11       1.0  0.21053  0.46601  0.08705  1.0000
  H   H15       1.0  0.20205  0.21987  0.09754  1.0000
  H   H16       1.0  0.18608  0.41332  0.04963  1.0000
  H   H17       1.0  0.18364  0.43263  0.20789  1.0000
  H   H18       1.0  0.22461  0.24710  0.08069  1.0000
  H   H19       1.0  0.14219  0.48782  0.18905  1.0000
  H   H20       1.0  0.37083  0.31108  0.17002  1.0000
  C   C12       1.0  0.22738  0.22751  0.09256  1.0000
  H   H21       1.0  0.23915  0.20550  0.08537  1.0000
  S   S8        1.0  0.41969  0.03021  0.19350  1.0000
  H   H22       1.0  0.22840  0.28995  0.10740  1.0000
  C   C13       1.0  0.41803  0.31293  0.14160  1.0000
  C   C14       1.0  0.32566  0.22221  0.16824  1.0000
  H   H23       1.0  0.26549  0.22270  0.13822  1.0000
  N   N3        1.0  0.42294  0.31629  0.16358  1.0000
  H   H24       1.0  0.20565  0.26289  0.12425  1.0000
  H   H25       1.0  0.18386  0.45814  0.04972  1.0000
  H   H26       1.0  0.12956  0.50700  0.21205  1.0000
  C   C15       1.0  0.23091  0.26934  0.11860  1.0000
  C   C16       1.0  0.26160  0.37845  0.04251  1.0000
  S   S9        1.0  0.11497  0.48279  0.14944  1.0000
  H   H27       1.0  0.34337  0.17286  0.17585  1.0000
  H   H28       1.0  0.24528  0.27934  0.13160  1.0000
  S   S10       1.0  0.35664  0.07718  0.17863  1.0000
  C   C17       1.0  0.28059  0.24999  0.10223  1.0000
  H   H29       1.0  0.15563  0.43539  0.10128  1.0000
  H   H30       1.0  0.46348  0.15874  0.16264  1.0000
  C   C18       1.0  0.07753  0.48512  0.26244  1.0000
  H   H31       1.0  0.23752  0.46649  0.08345  1.0000
  N   N4        1.0  0.17786  0.48529  0.21296  1.0000
  C   C19       1.0  0.15865  0.43578  0.08457  1.0000
  H   H32       1.0  0.39748  0.30248  0.19099  1.0000
  H   H33       1.0  0.20819  0.46685  0.10376  1.0000
  C   C20       1.0  0.19687  0.43640  0.05643  1.0000
  C   C21       1.0  0.34568  0.19390  0.16564  1.0000
  H   H34       1.0  0.29607  0.25984  0.11472  1.0000
  H   H35       1.0  0.26357  0.19136  0.11898  1.0000
  H   H36       1.0  0.30795  0.22283  0.18053  1.0000
  C   C22       1.0  0.32843  0.24958  0.15504  1.0000
  H   H37       1.0  0.23678  0.40496  0.08234  1.0000
  H   H38       1.0  0.38898  0.21967  0.12432  1.0000
  H   H39       1.0  0.19550  0.45869  0.18700  1.0000
  H   H40       1.0  0.20586  0.31456  0.03914  1.0000
  C   C23       1.0  0.14329  0.48553  0.20573  1.0000
  H   H41       1.0  0.48730  0.21560  0.16485  1.0000
  H   H42       1.0  0.31083  0.02855  0.15214  1.0000
  H   H43       1.0  0.47974  0.49027  0.20188  1.0000
  H   H44       1.0  0.12963  0.46230  0.21004  1.0000
  C   C24       1.0  0.36851  0.19288  0.14976  1.0000
  C   C25       1.0  0.35150  0.24860  0.13930  1.0000
  H   H45       1.0  0.46430  0.48881  0.22731  1.0000
  H   H46       1.0  0.35412  0.26954  0.12913  1.0000
  S   S11       1.0  0.40597  0.37767  0.10575  1.0000
  Fe  Fe5       1.0  0.45294  0.06837  0.17866  1.0000
  S   S12       1.0  0.42712  0.11175  0.19290  1.0000
  S   S13       1.0  0.50497  0.44790  0.16719  1.0000
  Fe  Fe6       1.0  0.39110  0.07359  0.20531  1.0000
  S   S14       1.0  0.42336  0.06974  0.15025  1.0000
  C   C26       1.0  0.21988  0.33665  0.03489  1.0000
  H   H47       1.0  0.45417  0.27325  0.16554  1.0000
  H   H48       1.0  0.49318  0.06114  0.13784  1.0000
  Fe  Fe7       1.0  0.35116  0.37399  0.11260  1.0000
  C   C27       1.0  0.43305  0.39804  0.12271  1.0000
  C   C28       1.0  0.46701  0.39080  0.12200  1.0000
  C   C29       1.0  0.48917  0.40566  0.13571  1.0000
  C   C30       1.0  0.47766  0.42857  0.14991  1.0000
  C   C31       1.0  0.44373  0.43613  0.15049  1.0000
  C   C32       1.0  0.42142  0.42067  0.13706  1.0000
  H   H49       1.0  0.47623  0.37348  0.11086  1.0000
  H   H50       1.0  0.47595  0.31208  0.16137  1.0000
  H   H51       1.0  0.43465  0.45395  0.16137  1.0000
  H   H52       1.0  0.39534  0.42665  0.13762  1.0000
  H   H53       1.0  0.50377  0.49360  0.25611  1.0000
  H   H54       1.0  0.06171  0.46443  0.25802  1.0000
  H   H55       1.0  0.45908  0.30261  0.18582  1.0000
  Fe  Fe8       1.0  0.38734  0.03539  0.16615  1.0000
  C   C33       1.0  0.17801  0.48184  0.23517  1.0000
  C   C34       1.0  0.19552  0.45693  0.20376  1.0000
  S   S15       1.0  0.39405  0.15811  0.14552  1.0000
  H   H56       1.0  0.16451  0.45887  0.24019  1.0000
  C   C35       1.0  0.50505  0.20882  0.15270  1.0000
  H   H57       1.0  0.14541  0.41350  0.07846  1.0000
  H   H58       1.0  0.41688  0.28629  0.13692  1.0000
  C   C36       1.0  0.39502  0.29995  0.17436  1.0000
  H   H59       1.0  0.48706  0.12569  0.15185  1.0000
  H   H60       1.0  0.39457  0.32486  0.13667  1.0000
  C   C37       1.0  0.45441  0.30029  0.16934  1.0000
  H   H61       1.0  0.23379  0.51100  0.14952  1.0000
  C   C38       1.0  0.08754  0.50887  0.24799  1.0000
  C   C39       1.0  0.18156  0.49909  0.14940  1.0000
  C   C40       1.0  0.42436  0.35205  0.16897  1.0000
  H   H62       1.0  0.39351  0.27278  0.17092  1.0000
  H   H63       1.0  0.43848  0.32523  0.13293  1.0000
  H   H64       1.0  0.40168  0.36535  0.16399  1.0000
  H   H65       1.0  0.44596  0.36475  0.16171  1.0000
  H   H66       1.0  0.42687  0.35566  0.18551  1.0000
  S   S16       1.0  0.37132  0.07560  0.23741  1.0000
  C   C41       1.0  0.37138  0.22035  0.13666  1.0000
  H   H67       1.0  0.34015  0.01997  0.21435  1.0000
  C   C42       1.0  0.48221  0.15295  0.15084  1.0000
  H   H68       1.0  0.29752  0.02477  0.20751  1.0000
  C   C43       1.0  0.48389  0.49990  0.21745  1.0000
  H   H69       1.0  0.47044  0.15770  0.13596  1.0000
  H   H70       1.0  0.50295  0.44244  0.23521  1.0000
  H   H71       1.0  0.07946  0.50616  0.23260  1.0000
  H   H72       1.0  0.16573  0.50344  0.24253  1.0000
  S   S17       1.0  0.50897  0.06881  0.18055  1.0000
  H   H73       1.0  0.51041  0.16986  0.18585  1.0000
  H   H74       1.0  0.25161  0.01529  0.14559  1.0000
  Fe  Fe9       1.0  0.19622  0.13076  0.41326  1.0000
  S   S18       1.0  0.16851  0.09315  0.43168  1.0000
  S   S19       1.0  0.23527  0.11568  0.39042  1.0000
  Fe  Fe10      1.0  0.15627  0.18816  0.43085  1.0000
  S   S20       1.0  0.12526  0.15383  0.45057  1.0000
  S   S21       1.0  0.15000  0.24426  0.43305  1.0000
  Fe  Fe11      1.0  0.17393  0.12912  0.45737  1.0000
  S   S22       1.0  0.19024  0.10492  0.48673  1.0000
  Fe  Fe12      1.0  0.12281  0.12123  0.42297  1.0000
  S   S23       1.0  0.08257  0.08722  0.41044  1.0000
  S   S24       1.0  0.20511  0.16522  0.43942  1.0000
  S   S25       1.0  0.15038  0.15721  0.40291  1.0000
  Fe  Fe13      1.0  0.12571  0.45817  0.37172  1.0000
  S   S26       1.0  0.13619  0.42796  0.34373  1.0000
  Fe  Fe14      1.0  0.05307  0.43648  0.37370  1.0000
  S   S27       1.0  0.05724  0.40506  0.34604  1.0000
  Fe  Fe15      1.0  0.10559  0.38759  0.35870  1.0000
  S   S28       1.0  0.11583  0.33224  0.35635  1.0000
  Fe  Fe16      1.0  0.08716  0.44768  0.33273  1.0000
  S   S29       1.0  0.07319  0.45747  0.29998  1.0000
  S   S30       1.0  0.09907  0.41569  0.38740  1.0000
  S   S31       1.0  0.07888  0.48092  0.35964  1.0000
  C   C44       1.0  0.08778  0.48776  0.28259  1.0000
  H   H75       1.0  0.34525  0.06446  0.27727  1.0000
  H   H76       1.0  0.04582  0.26627  0.42651  1.0000
  H   H77       1.0  0.31107  0.03016  0.36499  1.0000
  H   H78       1.0  0.25364  0.13485  0.46782  1.0000
  H   H79       1.0  0.41326  0.03491  0.30839  1.0000
  C   C45       1.0  0.12026  0.04160  0.35951  1.0000
  H   H80       1.0  0.50228  0.03968  0.29350  1.0000
  H   H81       1.0  0.21136  0.17445  0.49129  1.0000
  H   H82       1.0  0.29723  0.14101  0.47185  1.0000
  H   H83       1.0  0.17315  0.05903  0.33645  1.0000
  C   C46       1.0  0.03435  0.13497  0.40408  1.0000
  C   C47       1.0  0.04325  0.10139  0.40266  1.0000
  H   H84       1.0  0.06502  0.33755  0.39164  1.0000
  H   H85       1.0  0.26549  0.11854  0.43190  1.0000
  C   C48       1.0  0.15947  0.04807  0.38656  1.0000
  H   H86       1.0  0.05175  0.15300  0.41016  1.0000
  C   C49       1.0  0.05616  0.46694  0.43767  1.0000
  C   C50       1.0  0.14335  0.26850  0.41120  1.0000
  C   C51       1.0  0.14311  0.30348  0.41275  1.0000
  C   C52       1.0  0.13537  0.32344  0.39595  1.0000
  C   C53       1.0  0.12803  0.30848  0.37745  1.0000
  C   C54       1.0  0.12888  0.27356  0.37581  1.0000
  C   C55       1.0  0.13648  0.25362  0.39262  1.0000
  H   H87       1.0  0.14857  0.31514  0.42707  1.0000
  H   H88       1.0  0.13510  0.35033  0.39731  1.0000
  H   H89       1.0  0.12328  0.26186  0.36152  1.0000
  H   H90       1.0  0.13654  0.22676  0.39124  1.0000
  C   C56       1.0  0.31439  0.07684  0.46499  1.0000
  C   C57       1.0  0.25581  0.06989  0.45899  1.0000
  C   C58       1.0  0.24482  0.05202  0.40540  1.0000
  C   C59       1.0  0.25360  0.07578  0.39082  1.0000
  C   C60       1.0  0.27752  0.06774  0.37623  1.0000
  H   H91       1.0  0.31168  0.06686  0.48061  1.0000
  H   H92       1.0  0.22656  0.05785  0.41674  1.0000
  C   C61       1.0  0.07973  0.50360  0.41244  1.0000
  C   C62       1.0  0.25980  0.02050  0.40540  1.0000
  C   C63       1.0  0.23705  0.17662  0.51986  1.0000
  C   C64       1.0  0.29261  0.03615  0.37624  1.0000
  N   N5        1.0  0.03005  0.30240  0.40443  1.0000
  H   H93       1.0  0.11296  0.04918  0.34401  1.0000
  H   H94       1.0  0.05630  0.45862  0.45368  1.0000
  H   H95       1.0  0.02710  0.05215  0.39370  1.0000
  C   C65       1.0  0.27695  0.12202  0.47208  1.0000
  H   H96       1.0  0.07663  0.29671  0.41962  1.0000
  H   H97       1.0  0.32881  0.51007  0.35755  1.0000
  H   H98       1.0  0.36177  0.50216  0.40982  1.0000
  H   H99       1.0  0.23259  0.08167  0.45359  1.0000
  N   N6        1.0  0.15090  0.05897  0.36596  1.0000
  H   H100      1.0  0.30871  0.12549  0.43668  1.0000
  H   H101      1.0  0.26052  0.04773  0.44935  1.0000
  H   H102      1.0  0.09911  0.04758  0.36977  1.0000
  H   H103      1.0  0.13866  0.10457  0.35052  1.0000
  S   S32       1.0  0.15974  0.48352  0.39437  1.0000
  N   N7        1.0  0.28391  0.09383  0.45841  1.0000
  H   H104      1.0  0.30270  0.49528  0.40016  1.0000
  H   H105      1.0  0.34701  0.48186  0.37542  1.0000
  C   C66       1.0  0.04436  0.32066  0.38701  1.0000
  C   C67       1.0  0.21114  0.12660  0.50617  1.0000
  C   C68       1.0  0.11448  0.48091  0.43855  1.0000
  H   H106      1.0  0.12065  0.45883  0.42909  1.0000
  H   H107      1.0  0.05458  0.30328  0.37552  1.0000
  H   H108      1.0  0.13874  0.05241  0.39732  1.0000
  H   H109      1.0  0.12501  0.10241  0.37625  1.0000
  C   C69       1.0  0.43633  0.03543  0.29912  1.0000
  C   C70       1.0  0.34653  0.50839  0.37034  1.0000
  C   C71       1.0  0.35724  0.04170  0.27254  1.0000
  C   C72       1.0  0.05579  0.28131  0.41369  1.0000
  C   C73       1.0  0.28843  0.10654  0.43762  1.0000
  H   H110      1.0  0.28452  0.08604  0.36491  1.0000
  H   H111      1.0  0.47950  0.05128  0.32801  1.0000
  H   H112      1.0  0.32033  0.05542  0.45495  1.0000
  H   H113      1.0  0.11664  0.47331  0.45462  1.0000
  H   H114      1.0  0.33609  0.09421  0.46479  1.0000
  H   H115      1.0  0.44512  0.06182  0.29826  1.0000
  H   H116      1.0  0.16815  0.10933  0.37052  1.0000
  H   H117      1.0  0.29469  0.08607  0.42698  1.0000
  H   H118      1.0  0.06654  0.26359  0.40257  1.0000
  C   C74       1.0  0.14544  0.09541  0.36579  1.0000
  H   H119      1.0  0.06086  0.44467  0.42807  1.0000
  H   H120      1.0  0.25070  0.06090  0.47461  1.0000
  H   H121      1.0  0.05470  0.51262  0.40813  1.0000
  H   H122      1.0  0.27372  0.11337  0.48795  1.0000
  C   C75       1.0  0.47066  0.02489  0.32811  1.0000
  C   C76       1.0  0.21907  0.16056  0.50446  1.0000
  H   H123      1.0  0.08540  0.48216  0.40251  1.0000
  H   H124      1.0  0.18133  0.06211  0.39223  1.0000
  H   H125      1.0  0.03817  0.34345  0.42470  1.0000
  C   C77       1.0  0.17852  0.05095  0.35215  1.0000
  N   N8        1.0  0.08106  0.49356  0.43387  1.0000
  H   H126      1.0  0.20191  0.06377  0.35690  1.0000
  H   H127      1.0  0.03065  0.47547  0.43401  1.0000
  H   H128      1.0  0.24307  0.20289  0.51841  1.0000
  C   C78       1.0  0.02044  0.07819  0.39476  1.0000
  H   H129      1.0  0.44908  0.02310  0.33861  1.0000
  C   C79       1.0  0.01787  0.32659  0.41948  1.0000
  H   H130      1.0  0.02561  0.33632  0.37934  1.0000
  H   H131      1.0  0.18354  0.02366  0.35196  1.0000
  H   H132      1.0  0.13399  0.50016  0.43541  1.0000
  H   H133      1.0  0.42948  0.02772  0.28357  1.0000
  H   H134      1.0  0.16542  0.02101  0.38717  1.0000
  C   C80       1.0  0.10833  0.51448  0.28817  1.0000
  H   H135      1.0  0.37168  0.51485  0.36443  1.0000
  H   H136      1.0  0.30558  0.26465  0.60490  1.0000
  Fe  Fe17      1.0  0.28557  0.11045  0.62171  1.0000
  S   S33       1.0  0.31432  0.10981  0.59249  1.0000
  S   S34       1.0  0.26895  0.06091  0.63532  1.0000
  Fe  Fe18      1.0  0.29716  0.18521  0.62760  1.0000
  H   H137      1.0  0.26452  0.25459  0.55525  1.0000
  S   S35       1.0  0.28209  0.23118  0.64509  1.0000
  Fe  Fe19      1.0  0.28782  0.15754  0.58527  1.0000
  S   S36       1.0  0.26979  0.18036  0.55592  1.0000
  H   H138      1.0  0.22466  0.30513  0.59551  1.0000
  S   S37       1.0  0.25598  0.15556  0.61315  1.0000
  S   S38       1.0  0.32415  0.13990  0.63880  1.0000
  C   C81       1.0  0.31155  0.26309  0.64981  1.0000
  H   H139      1.0  0.22069  0.29034  0.57005  1.0000
  H   H140      1.0  0.31981  0.50718  0.69029  1.0000
  C   C82       1.0  0.16837  0.06697  0.63817  1.0000
  H   H141      1.0  0.43417  0.50471  0.65599  1.0000
  H   H142      1.0  0.26365  0.22178  0.59652  1.0000
  C   C83       1.0  0.30159  0.29245  0.65958  1.0000
  H   H143      1.0  0.43472  0.34043  0.69213  1.0000
  C   C84       1.0  0.20195  0.07501  0.63479  1.0000
  C   C85       1.0  0.22648  0.05169  0.63918  1.0000
  H   H144      1.0  0.34539  0.06965  0.63526  1.0000
  C   C86       1.0  0.50780  0.30017  0.68588  1.0000
  H   H145      1.0  0.20881  0.09922  0.62874  1.0000
  H   H146      1.0  0.22802  0.23206  0.58204  1.0000
  H   H147      1.0  0.31345  0.48759  0.71429  1.0000
  C   C87       1.0  0.23922  0.12499  0.53880  1.0000
  C   C88       1.0  0.24714  0.15894  0.53709  1.0000
  H   H148      1.0  0.14957  0.08519  0.63474  1.0000
  H   H149      1.0  0.24681  0.11114  0.55201  1.0000
  H   H150      1.0  0.25115  0.32184  0.57602  1.0000
  H   H151      1.0  0.06497  0.51243  0.63962  1.0000
  H   H152      1.0  0.19549  0.08736  0.70339  1.0000
  H   H153      1.0  0.40764  0.49457  0.62291  1.0000
  H   H154      1.0  0.49684  0.33047  0.65089  1.0000
  H   H155      1.0  0.30017  0.24431  0.56981  1.0000
  H   H156      1.0  0.10387  0.49460  0.64690  1.0000
  C   C89       1.0  0.24589  0.24205  0.59334  1.0000
  H   H157      1.0  0.29492  0.28639  0.56096  1.0000
  H   H158      1.0  0.07251  0.06424  0.75327  1.0000
  N   N9        1.0  0.26332  0.27228  0.58586  1.0000
  H   H159      1.0  0.27618  0.29487  0.66460  1.0000
  S   S39       1.0  0.32742  0.18957  0.59942  1.0000
  C   C90       1.0  0.23886  0.29862  0.58166  1.0000
  H   H160      1.0  0.23229  0.24689  0.60766  1.0000
  H   H161      1.0  0.15574  0.51198  0.62918  1.0000
  C   C91       1.0  0.19041  0.06085  0.69934  1.0000
  H   H162      1.0  0.27406  0.29012  0.61572  1.0000
  C   C92       1.0  0.47455  0.32759  0.66071  1.0000
  S   S40       1.0  0.49510  0.05437  0.66577  1.0000
  C   C93       1.0  0.17006  0.04917  0.73297  1.0000
  H   H163      1.0  0.47178  0.16728  0.60946  1.0000
  H   H164      1.0  0.30069  0.30689  0.59630  1.0000
  C   C94       1.0  0.28154  0.26421  0.56715  1.0000
  H   H165      1.0  0.39442  0.02125  0.59863  1.0000
  C   C95       1.0  0.28452  0.51039  0.65415  1.0000
  H   H166      1.0  0.08573  0.48407  0.62297  1.0000
  H   H167      1.0  0.49745  0.27529  0.68166  1.0000
  C   C96       1.0  0.28694  0.28412  0.60131  1.0000
  H   H168      1.0  0.02575  0.05111  0.65031  1.0000
  H   H169      1.0  0.28956  0.48576  0.66007  1.0000
  C   C97       1.0  0.48410  0.19159  0.61265  1.0000
  H   H170      1.0  0.21530  0.08260  0.52477  1.0000
  C   C98       1.0  0.15905  0.03560  0.64596  1.0000
  H   H171      1.0  0.31653  0.34118  0.67057  1.0000
  C   C99       1.0  0.51062  0.43418  0.66016  1.0000
  C   C100      1.0  0.32435  0.31872  0.66296  1.0000
  H   H172      1.0  0.48955  0.14907  0.64387  1.0000
  H   H173      1.0  0.49131  0.20269  0.59785  1.0000
  N   N10       1.0  0.48356  0.32698  0.68229  1.0000
  S   S41       1.0  0.33997  0.43316  0.68511  1.0000
  H   H174      1.0  0.46118  0.30439  0.65616  1.0000
  H   H175      1.0  0.17333  0.07560  0.73780  1.0000
  H   H176      1.0  0.41167  0.49628  0.74261  1.0000
  S   S42       1.0  0.11668  0.02722  0.65070  1.0000
  H   H177      1.0  0.44131  0.29655  0.69056  1.0000
  C   C101      1.0  0.08360  0.04188  0.75936  1.0000
  H   H178      1.0  0.35227  0.23767  0.63578  1.0000
  C   C102      1.0  0.21717  0.02032  0.64702  1.0000
  S   S43       1.0  0.40600  0.13386  0.60383  1.0000
  Fe  Fe20      1.0  0.37495  0.44627  0.71060  1.0000
  S   S44       1.0  0.40021  0.48832  0.69424  1.0000
  C   C103      1.0  0.35723  0.31566  0.65656  1.0000
  Fe  Fe21      1.0  0.38052  0.39860  0.67456  1.0000
  S   S45       1.0  0.40417  0.43843  0.65530  1.0000
  C   C104      1.0  0.49841  0.35952  0.68795  1.0000
  Fe  Fe22      1.0  0.43498  0.44961  0.68229  1.0000
  S   S46       1.0  0.48993  0.45882  0.67821  1.0000
  Fe  Fe23      1.0  0.36748  0.47388  0.66838  1.0000
  S   S47       1.0  0.41320  0.40864  0.70137  1.0000
  C   C105      1.0  0.36711  0.28633  0.64675  1.0000
  C   C106      1.0  0.50222  0.17365  0.64565  1.0000
  C   C107      1.0  0.35430  0.04536  0.64125  1.0000
  Fe  Fe24      1.0  0.35111  0.14176  0.60916  1.0000
  H   H179      1.0  0.39248  0.28384  0.64171  1.0000
  C   C108      1.0  0.49293  0.41252  0.64760  1.0000
  H   H180      1.0  0.47997  0.48639  0.60870  1.0000
  H   H181      1.0  0.46637  0.41052  0.64887  1.0000
  C   C109      1.0  0.43030  0.11194  0.62136  1.0000
  C   C110      1.0  0.46161  0.10051  0.61539  1.0000
  C   C111      1.0  0.48199  0.08354  0.62908  1.0000
  C   C112      1.0  0.47087  0.07728  0.64871  1.0000
  C   C113      1.0  0.43933  0.08819  0.65459  1.0000
  C   C114      1.0  0.41924  0.10588  0.64103  1.0000
  H   H182      1.0  0.47011  0.10471  0.60009  1.0000
  C   C115      1.0  0.30464  0.50796  0.70429  1.0000
  H   H183      1.0  0.43066  0.08335  0.66979  1.0000
  H   H184      1.0  0.39530  0.11486  0.64582  1.0000
  H   H185      1.0  0.37616  0.05059  0.65096  1.0000
  H   H186      1.0  0.49567  0.37644  0.62363  1.0000
  C   C116      1.0  0.47409  0.49100  0.62485  1.0000
  C   C117      1.0  0.36853  0.48191  0.75983  1.0000
  H   H187      1.0  0.37988  0.06199  0.60537  1.0000
  S   S48       1.0  0.38716  0.34741  0.66049  1.0000
  H   H188      1.0  0.45919  0.32018  0.71098  1.0000
  H   H189      1.0  0.33417  0.03510  0.65106  1.0000
  H   H190      1.0  0.04612  0.01827  0.59947  1.0000
  C   C118      1.0  0.45350  0.32068  0.69458  1.0000
  C   C119      1.0  0.22133  0.10890  0.52336  1.0000
  C   C120      1.0  0.38820  0.03758  0.61161  1.0000
  C   C121      1.0  0.04593  0.02191  0.61609  1.0000
  C   C122      1.0  0.39783  0.50000  0.75640  1.0000
  S   S49       1.0  0.35281  0.45325  0.74186  1.0000
  H   H191      1.0  0.23154  0.50558  0.65783  1.0000
  H   H192      1.0  0.18508  0.06024  0.68289  1.0000
  C   C123      1.0  0.34438  0.26014  0.64335  1.0000
  H   H193      1.0  0.50600  0.07460  0.62433  1.0000
  H   H194      1.0  0.50603  0.35993  0.70405  1.0000
  N   N11       1.0  0.16247  0.04679  0.71122  1.0000
  H   H195      1.0  0.13497  0.09256  0.71058  1.0000
  H   H196      1.0  0.45778  0.34877  0.65727  1.0000
  H   H197      1.0  0.05956  0.04555  0.61945  1.0000
  C   C124      1.0  0.50962  0.39298  0.63338  1.0000
  H   H198      1.0  0.32219  0.03849  0.60615  1.0000
  H   H199      1.0  0.49798  0.49311  0.63316  1.0000
  C   C125      1.0  0.13204  0.06566  0.70673  1.0000
  H   H200      1.0  0.46504  0.20790  0.61958  1.0000
  H   H201      1.0  0.48055  0.38027  0.68580  1.0000
  H   H202      1.0  0.41157  0.04236  0.62006  1.0000
  H   H203      1.0  0.13736  0.50235  0.60513  1.0000
  C   C126      1.0  0.08975  0.50474  0.63389  1.0000
  H   H204      1.0  0.12556  0.06405  0.69042  1.0000
  H   H205      1.0  0.21357  0.04653  0.70177  1.0000
  H   H206      1.0  0.14982  0.03813  0.74235  1.0000
  N   N12       1.0  0.36254  0.02219  0.62472  1.0000
  H   H207      1.0  0.46111  0.46836  0.63073  1.0000
  H   H208      1.0  0.11047  0.05571  0.71541  1.0000
  H   H209      1.0  0.48458  0.19050  0.65340  1.0000
  H   H210      1.0  0.19309  0.03548  0.73679  1.0000
  H   H211      1.0  0.27855  0.50193  0.70018  1.0000
  C   C127      1.0  0.01291  0.02735  0.64631  1.0000
  C   C128      1.0  0.33245  0.01517  0.61274  1.0000
  N   N13       1.0  0.01177  0.02232  0.62425  1.0000
  H   H212      1.0  0.42537  0.51255  0.60045  1.0000
  Fe  Fe25      1.0  0.05087  0.06999  0.86296  1.0000
  S   S50       1.0  0.05273  0.11029  0.83960  1.0000
  S   S51       1.0  0.13271  0.11178  0.84521  1.0000
  Fe  Fe26      1.0  0.08903  0.13601  0.85997  1.0000
  S   S52       1.0  0.08615  0.19236  0.86286  1.0000
  Fe  Fe27      1.0  0.09593  0.08254  0.82681  1.0000
  S   S53       1.0  0.08388  0.09776  0.88461  1.0000
  Fe  Fe28      1.0  0.19404  0.38759  0.91620  1.0000
  S   S54       1.0  0.17401  0.42057  0.94058  1.0000
  S   S55       1.0  0.23020  0.40323  0.89159  1.0000
  Fe  Fe29      1.0  0.16496  0.32415  0.93524  1.0000
  S   S56       1.0  0.14426  0.35229  0.96169  1.0000
  S   S57       1.0  0.15910  0.26768  0.93438  1.0000
  Fe  Fe30      1.0  0.12778  0.38908  0.93812  1.0000
  S   S58       1.0  0.07491  0.40612  0.94203  1.0000
  Fe  Fe31      1.0  0.19226  0.38110  0.96200  1.0000
  S   S59       1.0  0.22507  0.40105  0.98725  1.0000
  S   S60       1.0  0.14592  0.35932  0.91167  1.0000
  S   S61       1.0  0.21465  0.34966  0.93764  1.0000
  C   C129      1.0  0.23196  0.38043  0.01043  1.0000
  H   H213      1.0  0.32954  0.45835  0.93577  1.0000
  N   N14       1.0  0.20089  0.15615  0.88913  1.0000
  H   H214      1.0  0.19571  0.34143  0.00593  1.0000
  C   C130      1.0  0.03983  0.34124  0.91155  1.0000
  H   H215      1.0  0.03858  0.04562  0.80443  1.0000
  C   C131      1.0  0.04935  0.44726  0.88818  1.0000
  C   C132      1.0  0.06819  0.43358  0.90395  1.0000
  C   C133      1.0  0.05270  0.42413  0.92200  1.0000
  H   H216      1.0  0.30212  0.41914  0.91226  1.0000
  C   C134      1.0  0.21573  0.13095  0.87567  1.0000
  H   H217      1.0  0.06142  0.45490  0.87430  1.0000
  H   H218      1.0  0.09469  0.43070  0.90222  1.0000
  H   H219      1.0  0.29627  0.40177  0.97580  1.0000
  H   H220      1.0  0.02121  0.37959  0.88030  1.0000
  H   H221      1.0  0.22690  0.02881  0.90666  1.0000
  C   C135      1.0  0.10399  0.21364  0.88346  1.0000
  C   C136      1.0  0.11246  0.24757  0.88139  1.0000
  C   C137      1.0  0.12848  0.26477  0.89711  1.0000
  C   C138      1.0  0.13597  0.24816  0.91508  1.0000
  C   C139      1.0  0.12643  0.21454  0.91740  1.0000
  C   C140      1.0  0.11047  0.19730  0.90165  1.0000
  H   H222      1.0  0.10749  0.26037  0.86734  1.0000
  H   H223      1.0  0.13591  0.29057  0.89509  1.0000
  H   H224      1.0  0.13164  0.20175  0.93142  1.0000
  H   H225      1.0  0.10331  0.17138  0.90355  1.0000
  H   H226      1.0  0.32413  0.38485  0.92329  1.0000
  C   C141      1.0  0.28805  0.48362  0.87759  1.0000
  C   C142      1.0  0.27399  0.45130  0.87825  1.0000
  C   C143      1.0  0.24592  0.44448  0.89023  1.0000
  C   C144      1.0  0.23161  0.47031  0.90126  1.0000
  H   H227      1.0  0.05207  0.31935  0.91863  1.0000
  H   H228      1.0  0.28500  0.43145  0.86953  1.0000
  H   H229      1.0  0.20977  0.46544  0.91033  1.0000
  C   C145      1.0  0.32814  0.43859  0.94764  1.0000
  N   N15       1.0  0.48286  0.51257  0.83958  1.0000
  H   H230      1.0  0.05989  0.35867  0.90650  1.0000
  S   S62       1.0  0.09626  0.07998  0.79262  1.0000
  H   H231      1.0  0.21641  0.19023  0.91232  1.0000
  H   H232      1.0  0.05839  0.33163  0.87322  1.0000
  Fe  Fe32      1.0  0.12550  0.07138  0.86857  1.0000
  H   H233      1.0  0.24630  0.42080  0.94223  1.0000
  C   C146      1.0  0.21410  0.35180  0.01605  1.0000
  H   H234      1.0  0.27972  0.38369  0.92173  1.0000
  H   H235      1.0  0.26971  0.41576  0.01943  1.0000
  C   C147      1.0  0.17551  0.13987  0.90203  1.0000
  H   H236      1.0  0.30967  0.48863  0.86835  1.0000
  H   H237      1.0  0.16413  0.17287  0.86794  1.0000
  H   H238      1.0  0.35169  0.42438  0.94710  1.0000
  H   H239      1.0  0.20340  0.19421  0.86612  1.0000
  H   H240      1.0  0.45192  0.46858  0.83727  1.0000
  H   H241      1.0  0.15459  0.12980  0.89291  1.0000
  C   C148      1.0  0.09662  0.04225  0.77896  1.0000
  H   H242      1.0  0.17582  0.20314  0.88653  1.0000
  C   C149      1.0  0.26855  0.43639  0.94555  1.0000
  H   H243      1.0  0.19666  0.11923  0.86581  1.0000
  H   H244      1.0  0.27619  0.37373  0.95880  1.0000
  C   C150      1.0  0.22693  0.17106  0.90199  1.0000
  H   H245      1.0  0.24650  0.18361  0.89277  1.0000
  N   N16       1.0  0.29911  0.41642  0.94459  1.0000
  C   C151      1.0  0.18543  0.18268  0.87688  1.0000
  C   C152      1.0  0.29817  0.39050  0.96051  1.0000
  H   H246      1.0  0.26912  0.45720  0.93442  1.0000
  H   H247      1.0  0.23516  0.14211  0.86574  1.0000
  S   S63       1.0  0.09204  0.04013  0.84895  1.0000
  H   H248      1.0  0.22713  0.11024  0.88441  1.0000
  C   C153      1.0  0.30150  0.40030  0.92462  1.0000
  H   H249      1.0  0.23902  0.15175  0.91150  1.0000
  H   H250      1.0  0.18592  0.11846  0.91061  1.0000
  H   H251      1.0  0.16508  0.15756  0.91318  1.0000
  H   H252      1.0  0.32685  0.45137  0.96250  1.0000
  H   H253      1.0  0.05074  0.29194  0.88511  1.0000
  H   H254      1.0  0.34883  0.51336  0.80631  1.0000
  S   S64       1.0  0.17069  0.05676  0.88680  1.0000
  C   C154      1.0  0.01835  0.42798  0.92409  1.0000
  C   C155      1.0  0.18592  0.01551  0.88742  1.0000
  C   C156      1.0  0.45334  0.49479  0.83172  1.0000
  C   C157      1.0  0.48124  0.51371  0.86185  1.0000
  H   H255      1.0  0.02308  0.30686  0.86591  1.0000
  H   H256      1.0  0.26475  0.44738  0.96077  1.0000
  H   H257      1.0  0.32064  0.37467  0.96016  1.0000
  H   H258      1.0  0.02562  0.35426  0.92357  1.0000
  C   C158      1.0  0.24547  0.50263  0.90048  1.0000
  N   N17       1.0  0.01825  0.33126  0.89459  1.0000
  C   C159      1.0  0.27375  0.50939  0.88871  1.0000
  H   H259      1.0  0.47966  0.48826  0.86856  1.0000
  H   H260      1.0  0.45322  0.49430  0.81492  1.0000
  H   H261      1.0  0.43008  0.50735  0.83638  1.0000
  C   C160      1.0  0.03847  0.31464  0.87901  1.0000
  C   C161      1.0  0.36254  0.50979  0.79245  1.0000
  H   H262      1.0  0.32829  0.47298  0.78069  1.0000
  C   C162      1.0  0.35095  0.48693  0.77789  1.0000
  H   H263      1.0  0.01235  0.09662  0.89840  1.0000
  C   C163      1.0  0.01354  0.03820  0.80990  1.0000
  C   C164      1.0  0.01489  0.45067  0.89020  1.0000
  Fe  Fe33      1.0  0.10051  0.56802  0.20366  1.0000
  Fe  Fe34      1.0  0.10079  0.60764  0.16390  1.0000
  S   S65       1.0  0.06680  0.57020  0.14898  1.0000
  S   S66       1.0  0.11341  0.65118  0.14315  1.0000
  Fe  Fe35      1.0  0.03802  0.57111  0.17795  1.0000
  S   S67       1.0  0.07008  0.61073  0.19207  1.0000
  S   S68       1.0  0.13482  0.56870  0.17676  1.0000
  Fe  Fe36      1.0  0.19069  0.85243  0.09407  1.0000
  S   S69       1.0  0.22115  0.85566  0.12237  1.0000
  S   S70       1.0  0.21607  0.82921  0.06690  1.0000
  Fe  Fe37      1.0  0.12799  0.87650  0.11599  1.0000
  S   S71       1.0  0.15417  0.88148  0.14559  1.0000
  S   S72       1.0  0.07296  0.88522  0.11187  1.0000
  Fe  Fe38      1.0  0.19557  0.90452  0.12731  1.0000
  S   S73       1.0  0.21758  0.95498  0.13550  1.0000
  Fe  Fe39      1.0  0.17686  0.83213  0.13779  1.0000
  S   S74       1.0  0.18310  0.79042  0.16068  1.0000
  S   S75       1.0  0.16783  0.90290  0.09791  1.0000
  S   S76       1.0  0.14822  0.82560  0.10921  1.0000
  C   C165      1.0  0.25952  0.96261  0.14128  1.0000
  C   C166      1.0  0.26971  0.99550  0.14542  1.0000
  C   C167      1.0  0.30321  0.00308  0.14910  1.0000
  C   C168      1.0  0.32677  0.97776  0.14860  1.0000
  C   C169      1.0  0.31662  0.94483  0.14445  1.0000
  C   C170      1.0  0.28304  0.93719  0.14093  1.0000
  H   H264      1.0  0.24360  0.98333  0.06369  1.0000
  C   C171      1.0  0.28482  0.95979  0.20045  1.0000
  H   H265      1.0  0.27542  0.91173  0.13792  1.0000
  C   C172      1.0  0.23927  0.95996  0.07245  1.0000
  H   H266      1.0  0.29104  0.95892  0.18413  1.0000
  C   C173      1.0  0.21590  0.76164  0.10948  1.0000
  C   C174      1.0  0.04922  0.90248  0.13167  1.0000
  C   C175      1.0  0.06330  0.91034  0.15032  1.0000
  C   C176      1.0  0.04338  0.92236  0.16611  1.0000
  H   H267      1.0  0.25065  0.72332  0.08426  1.0000
  H   H268      1.0  0.22281  0.69488  0.11315  1.0000
  H   H269      1.0  0.08951  0.90718  0.15264  1.0000
  H   H270      1.0  0.05454  0.92829  0.18049  1.0000
  C   C177      1.0  0.12905  0.69047  0.15072  1.0000
  C   C178      1.0  0.12065  0.71869  0.13929  1.0000
  C   C179      1.0  0.13587  0.74976  0.14295  1.0000
  C   C180      1.0  0.16035  0.75275  0.15771  1.0000
  C   C181      1.0  0.16811  0.72477  0.16956  1.0000
  C   C182      1.0  0.15237  0.69371  0.16617  1.0000
  H   H271      1.0  0.10255  0.71635  0.12736  1.0000
  H   H272      1.0  0.12891  0.77126  0.13418  1.0000
  H   H273      1.0  0.18692  0.72691  0.18109  1.0000
  H   H274      1.0  0.15926  0.67204  0.17493  1.0000
  H   H275      1.0  0.31140  0.92105  0.06068  1.0000
  H   H276      1.0  0.15182  0.74962  0.10059  1.0000
  H   H277      1.0  0.25048  0.91846  0.10308  1.0000
  C   C183      1.0  0.22408  0.85126  0.04420  1.0000
  Fe  Fe40      1.0  0.09888  0.53154  0.16374  1.0000
  H   H278      1.0  0.19377  0.89346  0.05143  1.0000
  H   H279      1.0  0.26203  0.97504  0.20199  1.0000
  H   H280      1.0  0.33828  0.92711  0.21407  1.0000
  C   C184      1.0  0.21047  0.88266  0.04052  1.0000
  H   H281      1.0  0.29904  0.94805  0.23971  1.0000
  H   H282      1.0  0.33479  0.92512  0.14415  1.0000
  H   H283      1.0  0.17201  0.77008  0.07970  1.0000
  H   H284      1.0  0.39839  0.95964  0.25522  1.0000
  H   H285      1.0  0.28662  0.89887  0.09284  1.0000
  H   H286      1.0  0.05925  0.58813  0.26041  1.0000
  H   H287      1.0  0.23993  0.75425  0.11625  1.0000
  H   H288      1.0  0.22594  0.96675  0.08662  1.0000
  S   S77       1.0  0.36889  0.98599  0.15356  1.0000
  H   H289      1.0  0.02068  0.52893  0.24213  1.0000
  H   H290      1.0  0.24739  0.89453  0.08037  1.0000
  H   H291      1.0  0.04592  0.55881  0.22863  1.0000
  C   C185      1.0  0.28728  0.93344  0.05781  1.0000
  H   H292      1.0  0.29219  0.95566  0.04809  1.0000
  H   H293      1.0  0.22222  0.94380  0.06356  1.0000
  H   H294      1.0  0.32337  0.98516  0.24330  1.0000
  N   N18       1.0  0.27070  0.94276  0.07687  1.0000
  H   H295      1.0  0.28064  0.98857  0.23672  1.0000
  H   H296      1.0  0.35000  0.95312  0.19301  1.0000
  H   H297      1.0  0.21649  0.71116  0.06843  1.0000
  C   C186      1.0  0.22568  0.73079  0.07892  1.0000
  H   H298      1.0  0.18211  0.70703  0.12066  1.0000
  C   C187      1.0  0.29261  0.96533  0.08852  1.0000
  H   H299      1.0  0.27187  0.91568  0.04890  1.0000
  H   H300      1.0  0.28013  0.97423  0.10246  1.0000
  C   C188      1.0  0.03361  0.58194  0.26561  1.0000
  H   H301      1.0  0.21994  0.78566  0.10134  1.0000
  H   H302      1.0  0.22884  0.75432  0.07002  1.0000
  H   H303      1.0  0.15925  0.72705  0.07776  1.0000
  C   C189      1.0  0.16999  0.74602  0.08814  1.0000
  C   C190      1.0  0.31949  0.00849  0.20562  1.0000
  N   N19       1.0  0.31255  0.97388  0.21232  1.0000
  H   H304      1.0  0.48023  0.52741  0.21702  1.0000
  H   H305      1.0  0.19856  0.76669  0.12211  1.0000
  C   C191      1.0  0.34245  0.95343  0.20920  1.0000
  C   C192      1.0  0.10756  0.53594  0.25357  1.0000
  H   H306      1.0  0.18756  0.68382  0.09788  1.0000
  H   H307      1.0  0.19471  0.52043  0.19050  1.0000
  H   H308      1.0  0.31578  0.95266  0.09325  1.0000
  S   S78       1.0  0.11988  0.56685  0.23583  1.0000
  H   H309      1.0  0.17408  0.52468  0.15150  1.0000
  C   C193      1.0  0.38705  0.98261  0.26017  1.0000
  H   H310      1.0  0.03594  0.61926  0.23213  1.0000
  C   C194      1.0  0.26355  0.91230  0.08880  1.0000
  H   H311      1.0  0.29978  0.98788  0.07962  1.0000
  C   C195      1.0  0.21828  0.89998  0.02258  1.0000
  N   N20       1.0  0.20255  0.73554  0.09597  1.0000
  C   C196      1.0  0.19865  0.70390  0.10734  1.0000
  S   S79       1.0  0.06656  0.52854  0.19141  1.0000
  H   H312      1.0  0.36390  0.96344  0.21786  1.0000
  H   H313      1.0  0.25541  0.81264  0.03227  1.0000
  C   C197      1.0  0.24490  0.83702  0.02960  1.0000
  C   C198      1.0  0.30345  0.97385  0.23393  1.0000
  H   H314      1.0  0.27862  0.93382  0.20527  1.0000
  H   H315      1.0  0.32690  0.00929  0.18947  1.0000
  H   H316      1.0  0.01557  0.80131  0.13247  1.0000
  C   C199      1.0  0.19446  0.51699  0.20716  1.0000
  C   C200      1.0  0.02056  0.55376  0.23455  1.0000
  H   H317      1.0  0.18151  0.53892  0.21377  1.0000
  C   C201      1.0  0.38820  0.01094  0.24761  1.0000
  H   H318      1.0  0.40065  0.00974  0.23322  1.0000
  H   H319      1.0  0.03273  0.80431  0.15739  1.0000
  H   H320      1.0  0.01148  0.98202  0.23215  1.0000
  H   H321      1.0  0.01627  0.97612  0.25889  1.0000
  H   H322      1.0  0.02273  0.84136  0.14364  1.0000
  C   C202      1.0  0.01506  0.90701  0.12891  1.0000
  H   H323      1.0  0.22061  0.51782  0.21241  1.0000
  C   C203      1.0  0.01433  0.81536  0.14690  1.0000
  H   H324      1.0  0.48177  0.79672  0.37090  1.0000
  C   C204      1.0  0.36145  0.77156  0.38086  1.0000
  Fe  Fe41      1.0  0.28938  0.62792  0.45887  1.0000
  S   S80       1.0  0.26498  0.65992  0.43542  1.0000
  S   S81       1.0  0.26237  0.60516  0.48579  1.0000
  Fe  Fe42      1.0  0.28617  0.62442  0.41282  1.0000
  S   S82       1.0  0.25889  0.60698  0.38491  1.0000
  Fe  Fe43      1.0  0.31442  0.68640  0.43314  1.0000
  S   S83       1.0  0.31488  0.74313  0.43275  1.0000
  S   S84       1.0  0.30704  0.59029  0.43618  1.0000
  H   H325      1.0  0.24434  0.73089  0.41900  1.0000
  S   S85       1.0  0.32819  0.91605  0.34629  1.0000
  C   C205      1.0  0.33097  0.80194  0.41374  1.0000
  C   C206      1.0  0.25010  0.62771  0.50748  1.0000
  H   H326      1.0  0.21816  0.57224  0.35595  1.0000
  C   C207      1.0  0.25578  0.66209  0.50922  1.0000
  H   H327      1.0  0.47570  0.83837  0.36146  1.0000
  H   H328      1.0  0.26811  0.67552  0.49713  1.0000
  S   S86       1.0  0.30180  0.97251  0.39176  1.0000
  H   H329      1.0  0.44061  0.81200  0.36677  1.0000
  C   C208      1.0  0.21395  0.56077  0.37054  1.0000
  C   C209      1.0  0.23055  0.57330  0.38755  1.0000
  C   C210      1.0  0.22499  0.55830  0.40632  1.0000
  H   H330      1.0  0.37320  0.75969  0.36810  1.0000
  H   H331      1.0  0.27200  0.77128  0.39687  1.0000
  H   H332      1.0  0.31885  0.81381  0.42638  1.0000
  H   H333      1.0  0.23745  0.56780  0.41957  1.0000
  H   H334      1.0  0.51117  0.99731  0.30063  1.0000
  H   H335      1.0  0.07461  0.51612  0.46297  1.0000
  C   C211      1.0  0.34930  0.75187  0.39690  1.0000
  C   C212      1.0  0.49878  0.84071  0.39955  1.0000
  H   H336      1.0  0.25281  0.00219  0.41671  1.0000
  H   H337      1.0  0.20561  0.74250  0.40790  1.0000
  C   C213      1.0  0.35650  0.01346  0.28528  1.0000
  S   S87       1.0  0.33374  0.65348  0.40849  1.0000
  H   H338      1.0  0.21750  0.69931  0.40869  1.0000
  H   H339      1.0  0.45278  0.88149  0.38294  1.0000
  H   H340      1.0  0.28559  0.70866  0.37097  1.0000
  C   C214      1.0  0.33368  0.76699  0.41332  1.0000
  C   C215      1.0  0.34318  0.82164  0.39771  1.0000
  H   H341      1.0  0.44930  0.81518  0.42238  1.0000
  H   H342      1.0  0.46663  0.96152  0.31609  1.0000
  H   H343      1.0  0.23463  0.78190  0.38407  1.0000
  H   H344      1.0  0.26994  0.76743  0.37002  1.0000
  N   N21       1.0  0.24354  0.72910  0.38659  1.0000
  C   C216      1.0  0.21991  0.72092  0.37032  1.0000
  C   C217      1.0  0.27191  0.70611  0.38550  1.0000
  C   C218      1.0  0.22693  0.72528  0.40638  1.0000
  C   C219      1.0  0.25548  0.76393  0.38421  1.0000
  H   H345      1.0  0.19790  0.73745  0.37080  1.0000
  H   H346      1.0  0.21086  0.69459  0.37161  1.0000
  H   H347      1.0  0.23169  0.72381  0.35520  1.0000
  H   H348      1.0  0.28985  0.71115  0.39779  1.0000
  H   H349      1.0  0.26376  0.67958  0.38703  1.0000
  H   H350      1.0  0.36112  0.57342  0.37337  1.0000
  H   H351      1.0  0.41774  0.85596  0.38966  1.0000
  H   H352      1.0  0.42552  0.97746  0.31795  1.0000
  H   H353      1.0  0.34060  0.84852  0.39808  1.0000
  C   C220      1.0  0.49231  0.94592  0.38465  1.0000
  C   C221      1.0  0.19190  0.53337  0.37228  1.0000
  S   S88       1.0  0.33743  0.65685  0.45838  1.0000
  Fe  Fe44      1.0  0.35315  0.62178  0.43369  1.0000
  H   H354      1.0  0.11637  0.51676  0.30366  1.0000
  H   H355      1.0  0.35179  0.72504  0.39646  1.0000
  C   C222      1.0  0.35818  0.80645  0.38113  1.0000
  C   C223      1.0  0.46582  0.81914  0.37212  1.0000
  C   C224      1.0  0.11813  0.53852  0.27369  1.0000
  C   C225      1.0  0.36115  0.52794  0.40356  1.0000
  S   S89       1.0  0.40293  0.59592  0.43408  1.0000
  Fe  Fe45      1.0  0.36657  0.94321  0.32749  1.0000
  S   S90       1.0  0.37644  0.98350  0.35034  1.0000
  S   S91       1.0  0.36805  0.94661  0.29329  1.0000
  S   S92       1.0  0.37332  0.82999  0.36050  1.0000
  S   S93       1.0  0.38119  0.92238  0.38441  1.0000
  C   C226      1.0  0.28376  0.01244  0.39087  1.0000
  Fe  Fe46      1.0  0.41507  0.94867  0.36255  1.0000
  S   S94       1.0  0.46880  0.96403  0.36522  1.0000
  N   N22       1.0  0.46481  0.83195  0.39299  1.0000
  S   S95       1.0  0.40735  0.91048  0.33861  1.0000
  C   C227      1.0  0.37107  0.98369  0.27898  1.0000
  H   H356      1.0  0.48640  0.63600  0.40517  1.0000
  H   H357      1.0  0.49614  0.67936  0.40168  1.0000
  H   H358      1.0  0.38670  0.53454  0.39842  1.0000
  C   C228      1.0  0.07387  0.52277  0.44667  1.0000
  C   C229      1.0  0.46586  0.57958  0.37738  1.0000
  C   C230      1.0  0.47541  0.56601  0.39588  1.0000
  C   C231      1.0  0.45592  0.57133  0.41318  1.0000
  C   C232      1.0  0.42685  0.59026  0.41210  1.0000
  C   C233      1.0  0.41733  0.60384  0.39359  1.0000
  C   C234      1.0  0.43667  0.59831  0.37627  1.0000
  H   H359      1.0  0.09830  0.52353  0.40884  1.0000
  H   H360      1.0  0.46326  0.56053  0.42745  1.0000
  H   H361      1.0  0.39517  0.61870  0.39264  1.0000
  H   H362      1.0  0.42921  0.60890  0.36197  1.0000
  C   C235      1.0  0.49716  0.92320  0.41848  1.0000
  C   C236      1.0  0.47786  0.93760  0.40320  1.0000
  H   H363      1.0  0.42498  0.79899  0.40194  1.0000
  H   H364      1.0  0.45191  0.94261  0.40586  1.0000
  H   H365      1.0  0.49754  0.55103  0.39679  1.0000
  H   H366      1.0  0.09231  0.54323  0.44408  1.0000
  H   H367      1.0  0.46584  0.78307  0.40646  1.0000
  Fe  Fe47      1.0  0.34129  0.95394  0.37022  1.0000
  H   H368      1.0  0.44350  0.87318  0.40904  1.0000
  Fe  Fe48      1.0  0.37017  0.88658  0.35929  1.0000
  H   H369      1.0  0.49910  0.85010  0.41535  1.0000
  C   C237      1.0  0.44384  0.86197  0.39370  1.0000
  H   H370      1.0  0.33018  0.58331  0.39183  1.0000
  H   H371      1.0  0.35517  0.54505  0.41624  1.0000
  N   N23       1.0  0.33692  0.53083  0.38697  1.0000
  C   C238      1.0  0.20323  0.53083  0.40803  1.0000
  S   S96       1.0  0.48952  0.57364  0.35533  1.0000
  C   C239      1.0  0.45066  0.80610  0.40654  1.0000
  C   C240      1.0  0.50316  0.65654  0.41021  1.0000
  H   H372      1.0  0.49782  0.66092  0.42646  1.0000
  C   C241      1.0  0.33655  0.56566  0.37954  1.0000
  H   H373      1.0  0.48591  0.91689  0.43284  1.0000
  H   H374      1.0  0.31775  0.56909  0.36746  1.0000
  C   C242      1.0  0.44865  0.97873  0.30885  1.0000
  H   H375      1.0  0.13382  0.55927  0.27815  1.0000
  H   H376      1.0  0.17922  0.52384  0.35912  1.0000
  H   H377      1.0  0.03492  0.55752  0.27369  1.0000
  H   H378      1.0  0.44243  0.96868  0.29367  1.0000
  H   H379      1.0  0.02631  0.60127  0.27673  1.0000
  H   H380      1.0  0.04886  0.53296  0.44340  1.0000
  H   H381      1.0  0.29535  0.53794  0.40682  1.0000
  H   H382      1.0  0.19929  0.51926  0.42261  1.0000
  C   C243      1.0  0.18657  0.51826  0.39107  1.0000
  H   H383      1.0  0.28455  0.52348  0.38225  1.0000
  C   C244      1.0  0.30349  0.52138  0.39436  1.0000
  H   H384      1.0  0.49069  0.00944  0.33477  1.0000
  H   H385      1.0  0.48562  0.00555  0.27906  1.0000
  H   H386      1.0  0.50987  0.86071  0.38988  1.0000
  H   H387      1.0  0.34386  0.01445  0.29968  1.0000
  N   N24       1.0  0.46181  0.01328  0.30768  1.0000
  H   H388      1.0  0.12331  0.01401  0.35972  1.0000
  C   C245      1.0  0.49158  0.01401  0.29464  1.0000
  Fe  Fe49      1.0  0.03091  0.95164  0.67815  1.0000
  S   S97       1.0  0.05253  0.90874  0.69526  1.0000
  Fe  Fe50      1.0  0.09916  0.97985  0.66634  1.0000
  S   S98       1.0  0.12654  0.93848  0.68192  1.0000
  Fe  Fe51      1.0  0.08744  0.90410  0.66888  1.0000
  S   S99       1.0  0.08846  0.85635  0.65062  1.0000
  Fe  Fe52      1.0  0.08940  0.94650  0.70706  1.0000
  S   S100      1.0  0.10540  0.94831  0.73989  1.0000
  S   S101      1.0  0.06336  0.94516  0.65114  1.0000
  S   S102      1.0  0.06472  0.98977  0.69217  1.0000
  Fe  Fe53      1.0  0.19053  0.61575  0.62851  1.0000
  S   S103      1.0  0.16463  0.61426  0.59851  1.0000
  S   S104      1.0  0.20319  0.56620  0.64317  1.0000
  Fe  Fe54      1.0  0.17819  0.69080  0.63343  1.0000
  S   S105      1.0  0.15024  0.69379  0.60437  1.0000
  S   S106      1.0  0.19062  0.73690  0.65170  1.0000
  Fe  Fe55      1.0  0.12627  0.64553  0.61409  1.0000
  S   S107      1.0  0.07216  0.63230  0.60911  1.0000
  Fe  Fe56      1.0  0.19147  0.66251  0.59179  1.0000
  S   S108      1.0  0.21684  0.68469  0.56410  1.0000
  S   S109      1.0  0.15096  0.64505  0.64432  1.0000
  S   S110      1.0  0.22065  0.66149  0.62065  1.0000
  C   C246      1.0  0.24471  0.55314  0.64461  1.0000
  C   C247      1.0  0.27081  0.57356  0.63792  1.0000
  H   H389      1.0  0.33756  0.99775  0.60010  1.0000
  H   H390      1.0  0.21497  0.75823  0.56110  1.0000
  C   C248      1.0  0.03655  0.61730  0.66589  1.0000
  C   C249      1.0  0.23406  0.61059  0.52335  1.0000
  H   H391      1.0  0.26568  0.59788  0.63156  1.0000
  H   H392      1.0  0.30570  0.56789  0.68611  1.0000
  H   H393      1.0  0.24829  0.74303  0.59087  1.0000
  C   C250      1.0  0.16082  0.76884  0.65326  1.0000
  C   C251      1.0  0.16868  0.79883  0.66320  1.0000
  C   C252      1.0  0.14635  0.82570  0.66313  1.0000
  C   C253      1.0  0.11622  0.82274  0.65289  1.0000
  C   C254      1.0  0.10829  0.79262  0.64318  1.0000
  C   C255      1.0  0.13028  0.76564  0.64356  1.0000
  H   H394      1.0  0.19226  0.80142  0.67078  1.0000
  H   H395      1.0  0.15268  0.84883  0.67064  1.0000
  H   H396      1.0  0.08497  0.79015  0.63529  1.0000
  H   H397      1.0  0.12379  0.74260  0.63602  1.0000
  H   H398      1.0  0.21792  0.82864  0.57943  1.0000
  H   H399      1.0  0.13651  0.99993  0.71451  1.0000
  C   C256      1.0  0.05711  0.62678  0.64968  1.0000
  C   C257      1.0  0.04589  0.62349  0.62987  1.0000
  H   H400      1.0  0.35646  0.97855  0.64334  1.0000
  C   C258      1.0  0.24544  0.67912  0.52667  1.0000
  H   H401      1.0  0.04562  0.61960  0.68116  1.0000
  H   H402      1.0  0.08167  0.63643  0.65257  1.0000
  H   H403      1.0  0.24211  0.81749  0.60111  1.0000
  C   C259      1.0  0.22378  0.62761  0.54082  1.0000
  C   C260      1.0  0.22942  0.66199  0.54253  1.0000
  H   H404      1.0  0.31237  0.00394  0.62222  1.0000
  H   H405      1.0  0.21150  0.61416  0.55291  1.0000
  H   H406      1.0  0.16429  0.76842  0.60733  1.0000
  H   H407      1.0  0.17666  0.98786  0.65617  1.0000
  C   C261      1.0  0.10018  0.98415  0.75503  1.0000
  C   C262      1.0  0.30367  0.56247  0.63943  1.0000
  H   H408      1.0  0.01981  0.59702  0.75046  1.0000
  H   H409      1.0  0.47650  0.54731  0.60268  1.0000
  C   C263      1.0  0.47137  0.55047  0.61906  1.0000
  H   H410      1.0  0.26619  0.56124  0.69784  1.0000
  H   H411      1.0  0.01417  0.58216  0.72517  1.0000
  C   C264      1.0  0.08771  0.54639  0.60753  1.0000
  C   C265      1.0  0.18162  0.78956  0.60414  1.0000
  H   H412      1.0  0.43153  0.54869  0.65182  1.0000
  H   H413      1.0  0.24993  0.70571  0.52787  1.0000
  H   H414      1.0  0.30057  0.52057  0.74396  1.0000
  C   C266      1.0  0.25167  0.52157  0.65277  1.0000
  H   H415      1.0  0.35479  0.52925  0.72701  1.0000
  C   C267      1.0  0.08498  0.01283  0.74755  1.0000
  H   H416      1.0  0.43217  0.53660  0.76817  1.0000
  C   C268      1.0  0.19508  0.76683  0.57151  1.0000
  C   C269      1.0  0.14008  0.52203  0.61680  1.0000
  H   H417      1.0  0.32373  0.57846  0.63425  1.0000
  C   C270      1.0  0.22772  0.75204  0.60061  1.0000
  N   N25       1.0  0.30747  0.54086  0.71417  1.0000
  H   H418      1.0  0.23818  0.76012  0.61535  1.0000
  H   H419      1.0  0.15437  0.54315  0.60996  1.0000
  H   H420      1.0  0.16683  0.81003  0.59737  1.0000
  C   C271      1.0  0.23131  0.80776  0.58683  1.0000
  C   C272      1.0  0.34282  0.54886  0.71765  1.0000
  C   C273      1.0  0.11260  0.55970  0.63956  1.0000
  C   C274      1.0  0.42171  0.51653  0.61690  1.0000
  H   H421      1.0  0.18070  0.78647  0.56363  1.0000
  C   C275      1.0  0.18356  0.01222  0.65034  1.0000
  N   N26       1.0  0.20893  0.77906  0.59076  1.0000
  H   H422      1.0  0.29445  0.59188  0.70791  1.0000
  H   H423      1.0  0.17815  0.74504  0.57396  1.0000
  H   H424      1.0  0.19108  0.79850  0.61895  1.0000
  H   H425      1.0  0.22962  0.58399  0.52211  1.0000
  C   C276      1.0  0.37522  0.99072  0.63332  1.0000
  H   H426      1.0  0.25220  0.80055  0.57677  1.0000
  H   H427      1.0  0.21158  0.73007  0.60380  1.0000
  H   H428      1.0  0.06345  0.55619  0.61288  1.0000
  H   H429      1.0  0.26307  0.53330  0.73168  1.0000
  H   H430      1.0  0.02347  0.55317  0.74508  1.0000
  H   H431      1.0  0.07468  0.01282  0.73257  1.0000
  H   H432      1.0  0.45658  0.57363  0.62087  1.0000
  N   N27       1.0  0.45363  0.52112  0.62749  1.0000
  C   C277      1.0  0.29281  0.56663  0.70099  1.0000
  H   H433      1.0  0.17971  0.99618  0.70876  1.0000
  H   H434      1.0  0.12385  0.58235  0.63257  1.0000
  H   H435      1.0  0.08264  0.52697  0.59598  1.0000
  H   H436      1.0  0.23600  0.00210  0.65040  1.0000
  H   H437      1.0  0.12948  0.55164  0.65186  1.0000
  H   H438      1.0  0.34596  0.57307  0.72566  1.0000
  N   N28       1.0  0.10754  0.53318  0.62443  1.0000
  H   H439      1.0  0.08877  0.56734  0.64654  1.0000
  H   H440      1.0  0.35682  0.55058  0.70318  1.0000
  C   C278      1.0  0.15730  0.01138  0.70576  1.0000
  C   C279      1.0  0.28975  0.53974  0.73371  1.0000
  H   H441      1.0  0.29124  0.56419  0.74162  1.0000
  H   H442      1.0  0.38173  0.97262  0.62127  1.0000
  H   H443      1.0  0.06067  0.00138  0.62285  1.0000
  C   C280      1.0  0.01353  0.61161  0.62643  1.0000
  H   H444      1.0  0.39795  0.99525  0.64246  1.0000
  H   H445      1.0  0.10072  0.56756  0.59984  1.0000
  H   H446      1.0  0.40536  0.53859  0.61883  1.0000
  C   C281      1.0  0.31064  0.53095  0.64762  1.0000
  H   H447      1.0  0.49558  0.55455  0.62674  1.0000
  H   H448      1.0  0.02647  0.00686  0.65390  1.0000
  H   H449      1.0  0.15117  0.00875  0.68950  1.0000
  C   C282      1.0  0.44733  0.52646  0.64920  1.0000
  H   H450      1.0  0.47084  0.52976  0.65776  1.0000
  S   S111      1.0  0.35232  0.51859  0.64983  1.0000
  Fe  Fe57      1.0  0.29888  0.83161  0.93102  1.0000
  C   C283      1.0  0.17048  0.89930  0.96440  1.0000
  H   H451      1.0  0.30994  0.78977  0.88925  1.0000
  Fe  Fe58      1.0  0.26542  0.89329  0.91342  1.0000
  S   S112      1.0  0.29023  0.92774  0.93536  1.0000
  S   S113      1.0  0.22558  0.90851  0.89129  1.0000
  H   H452      1.0  0.21288  0.63081  0.90679  1.0000
  Fe  Fe59      1.0  0.27666  0.88892  0.95869  1.0000
  S   S114      1.0  0.24951  0.90929  0.98619  1.0000
  S   S115      1.0  0.31232  0.86598  0.90537  1.0000
  S   S116      1.0  0.24967  0.85574  0.93693  1.0000
  H   H453      1.0  0.30237  0.65224  0.91162  1.0000
  C   C284      1.0  0.25041  0.68340  0.89496  1.0000
  H   H454      1.0  0.30167  0.65576  0.87471  1.0000
  C   C285      1.0  0.19850  0.94468  0.94720  1.0000
  C   C286      1.0  0.22795  0.62724  0.89289  1.0000
  H   H455      1.0  0.23669  0.68876  0.90915  1.0000
  H   H456      1.0  0.42673  0.93009  0.80123  1.0000
  C   C287      1.0  0.23946  0.88591  0.00809  1.0000
  H   H457      1.0  0.14417  0.96057  0.96818  1.0000
  S   S117      1.0  0.29009  0.55043  0.88840  1.0000
  H   H458      1.0  0.19651  0.96542  0.93610  1.0000
  H   H459      1.0  0.26883  0.84313  0.00054  1.0000
  C   C288      1.0  0.21140  0.95008  0.88956  1.0000
  C   C289      1.0  0.22726  0.97621  0.89973  1.0000
  C   C290      1.0  0.39188  0.52780  0.78902  1.0000
  H   H460      1.0  0.13668  0.96727  0.94178  1.0000
  C   C291      1.0  0.17018  0.98944  0.87711  1.0000
  C   C292      1.0  0.18294  0.95686  0.87816  1.0000
  H   H461      1.0  0.24938  0.97141  0.90836  1.0000
  H   H462      1.0  0.48376  0.54719  0.81466  1.0000
  H   H463      1.0  0.14823  0.99435  0.86831  1.0000
  H   H464      1.0  0.17064  0.93679  0.87015  1.0000
  C   C293      1.0  0.34664  0.70163  0.89839  1.0000
  N   N29       1.0  0.16735  0.92510  0.94854  1.0000
  C   C294      1.0  0.49168  0.92302  0.80806  1.0000
  S   S118      1.0  0.30833  0.77579  0.93253  1.0000
  H   H465      1.0  0.21945  0.92874  0.94234  1.0000
  H   H466      1.0  0.27318  0.69936  0.89490  1.0000
  C   C295      1.0  0.33531  0.72078  0.91471  1.0000
  H   H467      1.0  0.33703  0.71095  0.92989  1.0000
  S   S119      1.0  0.49155  0.89121  0.85885  1.0000
  N   N30       1.0  0.25869  0.64760  0.89333  1.0000
  S   S120      1.0  0.32482  0.86187  0.95489  1.0000
  H   H468      1.0  0.23487  0.69174  0.88209  1.0000
  H   H469      1.0  0.28324  0.61518  0.87243  1.0000
  H   H470      1.0  0.03261  0.99649  0.83941  1.0000
  H   H471      1.0  0.43948  0.76187  0.91786  1.0000
  C   C296      1.0  0.32026  0.76530  0.89190  1.0000
  H   H472      1.0  0.21228  0.63377  0.87970  1.0000
  H   H473      1.0  0.26535  0.64137  0.92529  1.0000
  H   H474      1.0  0.14762  0.88373  0.96574  1.0000
  H   H475      1.0  0.23362  0.60007  0.89177  1.0000
  H   H476      1.0  0.50197  0.97907  0.78660  1.0000
  C   C297      1.0  0.16079  0.90887  0.92894  1.0000
  C   C298      1.0  0.44280  0.82923  0.92051  1.0000
  C   C299      1.0  0.27889  0.63760  0.91086  1.0000
  C   C300      1.0  0.27763  0.64206  0.87455  1.0000
  H   H477      1.0  0.20543  0.95571  0.96200  1.0000
  H   H478      1.0  0.28579  0.61078  0.91005  1.0000
  H   H479      1.0  0.13734  0.89409  0.92924  1.0000
  H   H480      1.0  0.26380  0.65054  0.86102  1.0000
  H   H481      1.0  0.15892  0.92761  0.91656  1.0000
  H   H482      1.0  0.11583  0.93371  0.95484  1.0000
  H   H483      1.0  0.19152  0.88229  0.96120  1.0000
  C   C301      1.0  0.13975  0.94764  0.95358  1.0000
  C   C302      1.0  0.32206  0.75266  0.91154  1.0000
  H   H484      1.0  0.47702  0.90101  0.81341  1.0000
  Fe  Fe60      1.0  0.33600  0.89756  0.92946  1.0000
  C   C303      1.0  0.33139  0.74601  0.87556  1.0000
  C   C304      1.0  0.46215  0.95969  0.83049  1.0000
  H   H485      1.0  0.18114  0.89160  0.92471  1.0000
  S   S121      1.0  0.33713  0.59644  0.84360  1.0000
  H   H486      1.0  0.48394  0.96149  0.84071  1.0000
  H   H487      1.0  0.32957  0.75577  0.86037  1.0000
  H   H488      1.0  0.42779  0.97449  0.79704  1.0000
  C   C305      1.0  0.40280  0.80099  0.94194  1.0000
  C   C306      1.0  0.48380  0.54698  0.83146  1.0000
  C   C307      1.0  0.34432  0.71399  0.87872  1.0000
  S   S122      1.0  0.38810  0.91963  0.92894  1.0000
  H   H489      1.0  0.46166  0.56125  0.83632  1.0000
  Fe  Fe61      1.0  0.41103  0.58137  0.87985  1.0000
  S   S123      1.0  0.41568  0.61240  0.85189  1.0000
  S   S124      1.0  0.45246  0.57287  0.90218  1.0000
  H   H490      1.0  0.43850  0.85329  0.92849  1.0000
  Fe  Fe62      1.0  0.38577  0.57148  0.83706  1.0000
  Fe  Fe63      1.0  0.36697  0.63446  0.86090  1.0000
  C   C308      1.0  0.25254  0.85422  0.01159  1.0000
  S   S125      1.0  0.36441  0.60643  0.89004  1.0000
  S   S126      1.0  0.35659  0.68988  0.85776  1.0000
  C   C309      1.0  0.44289  0.95139  0.79642  1.0000
  H   H491      1.0  0.36228  0.81049  0.91099  1.0000
  C   C310      1.0  0.41610  0.91415  0.90869  1.0000
  C   C311      1.0  0.40607  0.89952  0.89057  1.0000
  C   C312      1.0  0.42951  0.89294  0.87540  1.0000
  C   C313      1.0  0.46303  0.90162  0.87801  1.0000
  C   C314      1.0  0.47296  0.91722  0.89585  1.0000
  C   C315      1.0  0.44954  0.92333  0.91116  1.0000
  H   H492      1.0  0.38027  0.89304  0.88831  1.0000
  H   H493      1.0  0.42163  0.88102  0.86159  1.0000
  H   H494      1.0  0.45916  0.52772  0.86715  1.0000
  H   H495      1.0  0.45744  0.93490  0.92509  1.0000
  H   H496      1.0  0.45037  0.83572  0.90479  1.0000
  C   C316      1.0  0.50224  0.59607  0.87704  1.0000
  C   C317      1.0  0.49327  0.58632  0.89656  1.0000
  H   H497      1.0  0.48369  0.59698  0.86538  1.0000
  H   H498      1.0  0.35725  0.67734  0.90104  1.0000
  H   H499      1.0  0.50341  0.52642  0.86835  1.0000
  H   H500      1.0  0.39688  0.75964  0.91016  1.0000
  H   H501      1.0  0.39713  0.82457  0.95011  1.0000
  H   H502      1.0  0.42680  0.78039  0.89439  1.0000
  H   H503      1.0  0.44654  0.93860  0.83623  1.0000
  H   H504      1.0  0.38001  0.78503  0.94267  1.0000
  S   S127      1.0  0.38413  0.53874  0.86484  1.0000
  H   H505      1.0  0.38044  0.84965  0.91783  1.0000
  C   C318      1.0  0.41935  0.77602  0.91037  1.0000
  H   H506      1.0  0.44776  0.98308  0.83217  1.0000
  S   S128      1.0  0.40817  0.55633  0.80687  1.0000
  Fe  Fe64      1.0  0.33754  0.56663  0.87252  1.0000
  H   H507      1.0  0.17549  0.91069  0.97941  1.0000
  H   H508      1.0  0.42265  0.78793  0.95036  1.0000
  N   N31       1.0  0.41273  0.80783  0.92084  1.0000
  H   H509      1.0  0.46407  0.81679  0.92793  1.0000
  C   C319      1.0  0.38563  0.82530  0.91050  1.0000
  N   N32       1.0  0.47251  0.95421  0.80936  1.0000
  H   H510      1.0  0.49871  0.92408  0.89799  1.0000
  H   H511      1.0  0.06043  0.99323  0.81825  1.0000
  H   H512      1.0  0.39163  0.83019  0.89437  1.0000
  C   C320      1.0  0.49336  0.98260  0.80244  1.0000
  C   C321      1.0  0.01339  0.98801  0.78981  1.0000
  H   H513      1.0  0.44997  0.94718  0.78039  1.0000
  C   C322      1.0  0.11253  0.98428  0.77482  1.0000
  C   C323      1.0  0.03497  0.98695  0.82369  1.0000
  C   C324      1.0  0.11056  0.01317  0.78682  1.0000
  H   H514      1.0  0.12427  0.96213  0.78074  1.0000
  H   H515      1.0  0.50613  0.56096  0.83666  1.0000
  H   H516      1.0  0.03284  0.95924  0.82438  1.0000
  H   H517      1.0  0.12088  0.01326  0.80186  1.0000
  C   C325      1.0  0.21449  0.00876  0.89871  1.0000
  H   H518      1.0  0.03831  0.99417  0.78347  1.0000
  H   H519      1.0  0.47987  0.00665  0.80319  1.0000
  H   H520      1.0  0.23415  0.52249  0.90902  1.0000
  H   H521      1.0  0.50029  0.91811  0.79239  1.0000
  H   H522      1.0  0.51078  0.57814  0.92683  1.0000
  H   H523      1.0  0.20787  0.92439  0.01991  1.0000
  C   C326      1.0  0.40943  0.52278  0.77094  1.0000
  H   H524      1.0  0.68473  0.29681  0.12390  1.0000
  S   S129      1.0  0.66772  0.13692  0.13201  1.0000
  H   H525      1.0  0.64485  0.32721  0.14553  1.0000
  Fe  Fe65      1.0  0.63060  0.42565  0.16333  1.0000
  S   S130      1.0  0.63946  0.38510  0.18638  1.0000
  Fe  Fe66      1.0  0.55608  0.42553  0.17088  1.0000
  S   S131      1.0  0.55970  0.38526  0.19414  1.0000
  Fe  Fe67      1.0  0.60374  0.41372  0.20582  1.0000
  S   S132      1.0  0.60556  0.41687  0.24008  1.0000
  Fe  Fe68      1.0  0.59473  0.36018  0.17278  1.0000
  S   S133      1.0  0.58707  0.30437  0.16816  1.0000
  S   S134      1.0  0.59813  0.45608  0.18385  1.0000
  S   S135      1.0  0.58789  0.39861  0.14842  1.0000
  S   S136      1.0  0.66437  0.14570  0.08234  1.0000
  Fe  Fe69      1.0  0.64767  0.10818  0.10564  1.0000
  S   S137      1.0  0.59633  0.08641  0.10149  1.0000
  C   C327      1.0  0.61608  0.28329  0.15291  1.0000
  C   C328      1.0  0.64218  0.30051  0.14350  1.0000
  S   S138      1.0  0.67408  0.44340  0.14400  1.0000
  C   C329      1.0  0.64205  0.09406  0.04222  1.0000
  C   C330      1.0  0.63542  0.23134  0.13783  1.0000
  C   C331      1.0  0.61284  0.24863  0.15011  1.0000
  C   C332      1.0  0.53328  0.07087  0.15840  1.0000
  H   H526      1.0  0.63261  0.20473  0.13564  1.0000
  H   H527      1.0  0.59282  0.23519  0.15744  1.0000
  H   H528      1.0  0.56020  0.17946  0.13868  1.0000
  C   C333      1.0  0.56727  0.07810  0.16001  1.0000
  C   C334      1.0  0.58694  0.08239  0.14264  1.0000
  C   C335      1.0  0.57278  0.07913  0.12352  1.0000
  C   C336      1.0  0.53896  0.07112  0.12190  1.0000
  H   H529      1.0  0.57836  0.08082  0.17475  1.0000
  H   H530      1.0  0.61303  0.08820  0.14407  1.0000
  H   H531      1.0  0.54322  0.13805  0.13744  1.0000
  C   C337      1.0  0.60923  0.04474  0.03557  1.0000
  Fe  Fe70      1.0  0.71078  0.11526  0.08081  1.0000
  C   C338      1.0  0.60621  0.45439  0.25405  1.0000
  N   N33       1.0  0.51295  0.17287  0.15348  1.0000
  H   H532      1.0  0.80141  0.46781  0.15956  1.0000
  H   H533      1.0  0.60899  0.01715  0.03357  1.0000
  H   H534      1.0  0.69823  0.19501  0.15142  1.0000
  C   C339      1.0  0.51923  0.06711  0.13928  1.0000
  C   C340      1.0  0.74032  0.11258  0.02943  1.0000
  H   H535      1.0  0.52788  0.06841  0.10715  1.0000
  H   H536      1.0  0.53935  0.49735  0.19535  1.0000
  H   H537      1.0  0.75021  0.20242  0.13145  1.0000
  C   C341      1.0  0.88063  0.02502  0.26207  1.0000
  H   H538      1.0  0.54722  0.49843  0.25120  1.0000
  H   H539      1.0  0.86091  0.48424  0.15608  1.0000
  C   C342      1.0  0.79562  0.49492  0.16024  1.0000
  C   C343      1.0  0.66474  0.28323  0.13124  1.0000
  C   C344      1.0  0.85327  0.51087  0.15628  1.0000
  H   H540      1.0  0.51525  0.39978  0.13503  1.0000
  C   C345      1.0  0.81867  0.50392  0.12697  1.0000
  S   S139      1.0  0.69261  0.07605  0.10268  1.0000
  H   H541      1.0  0.76986  0.16690  0.18171  1.0000
  C   C346      1.0  0.81628  0.02069  0.15920  1.0000
  C   C347      1.0  0.66999  0.51081  0.15249  1.0000
  H   H542      1.0  0.59889  0.05615  0.02165  1.0000
  Fe  Fe71      1.0  0.68807  0.17200  0.10856  1.0000
  H   H543      1.0  0.76669  0.01983  0.22774  1.0000
  H   H544      1.0  0.76737  0.16711  0.14441  1.0000
  C   C348      1.0  0.66140  0.24866  0.12830  1.0000
  H   H545      1.0  0.72384  0.47516  0.11967  1.0000
  H   H546      1.0  0.69105  0.05836  0.02553  1.0000
  H   H547      1.0  0.83885  0.01682  0.16759  1.0000
  C   C349      1.0  0.61874  0.48423  0.24596  1.0000
  H   H548      1.0  0.62797  0.48481  0.23062  1.0000
  C   C350      1.0  0.71177  0.49448  0.12830  1.0000
  H   H549      1.0  0.79352  0.50644  0.12039  1.0000
  H   H550      1.0  0.66719  0.10443  0.04533  1.0000
  C   C351      1.0  0.76409  0.19471  0.14515  1.0000
  S   S140      1.0  0.69070  0.22798  0.11304  1.0000
  H   H551      1.0  0.71630  0.15998  0.16417  1.0000
  H   H552      1.0  0.68133  0.05023  0.06165  1.0000
  H   H553      1.0  0.71020  0.15520  0.03621  1.0000
  Fe  Fe72      1.0  0.71474  0.10824  0.12683  1.0000
  C   C352      1.0  0.71375  0.18768  0.16450  1.0000
  S   S141      1.0  0.74785  0.09392  0.15295  1.0000
  H   H554      1.0  0.76588  0.25478  0.16321  1.0000
  C   C353      1.0  0.76607  0.19448  0.18147  1.0000
  H   H555      1.0  0.78910  0.20652  0.14416  1.0000
  S   S142      1.0  0.73626  0.09337  0.05336  1.0000
  C   C354      1.0  0.72454  0.14256  0.02480  1.0000
  S   S143      1.0  0.73634  0.14503  0.10482  1.0000
  H   H556      1.0  0.89106  0.04744  0.25534  1.0000
  H   H557      1.0  0.75345  0.20138  0.19579  1.0000
  N   N34       1.0  0.74644  0.20455  0.16373  1.0000
  C   C355      1.0  0.75905  0.03192  0.13644  1.0000
  C   C356      1.0  0.77017  0.05655  0.14975  1.0000
  C   C357      1.0  0.79887  0.05085  0.16115  1.0000
  H   H558      1.0  0.72801  0.24946  0.17738  1.0000
  C   C358      1.0  0.74175  0.24114  0.16374  1.0000
  H   H559      1.0  0.73697  0.03592  0.12764  1.0000
  H   H560      1.0  0.80788  0.06998  0.17128  1.0000
  C   C359      1.0  0.68581  0.48576  0.14156  1.0000
  H   H561      1.0  0.79100  0.20662  0.18138  1.0000
  H   H562      1.0  0.72716  0.24932  0.15037  1.0000
  H   H563      1.0  0.69974  0.19429  0.17836  1.0000
  H   H564      1.0  0.63995  0.04850  0.07168  1.0000
  C   C360      1.0  0.66530  0.04920  0.02270  1.0000
  H   H565      1.0  0.63286  0.10674  0.02841  1.0000
  H   H566      1.0  0.75239  0.01859  0.19114  1.0000
  C   C361      1.0  0.65553  0.04187  0.05839  1.0000
  H   H567      1.0  0.64999  0.50435  0.16272  1.0000
  H   H568      1.0  0.62561  0.10116  0.05502  1.0000
  N   N35       1.0  0.64303  0.05744  0.03969  1.0000
  C   C362      1.0  0.52786  0.16480  0.17322  1.0000
  H   H569      1.0  0.52618  0.17028  0.12204  1.0000
  H   H570      1.0  0.54623  0.44747  0.22990  1.0000
  H   H571      1.0  0.82597  0.47729  0.12555  1.0000
  H   H572      1.0  0.76977  0.49796  0.15469  1.0000
  H   H573      1.0  0.59205  0.05058  0.04827  1.0000
  C   C363      1.0  0.53667  0.16491  0.13719  1.0000
  H   H574      1.0  0.56804  0.50022  0.21598  1.0000
  N   N36       1.0  0.51738  0.49144  0.22472  1.0000
  C   C364      1.0  0.52215  0.50451  0.24536  1.0000
  C   C365      1.0  0.54246  0.50650  0.21110  1.0000
  H   H575      1.0  0.79579  0.50249  0.17637  1.0000
  H   H576      1.0  0.51744  0.44401  0.20959  1.0000
  C   C366      1.0  0.52109  0.45476  0.22488  1.0000
  H   H577      1.0  0.55099  0.17950  0.17583  1.0000
  H   H578      1.0  0.53435  0.13788  0.17423  1.0000
  N   N37       1.0  0.81943  0.51504  0.14820  1.0000
  H   H579      1.0  0.52775  0.22461  0.15456  1.0000
  C   C367      1.0  0.62070  0.51306  0.25804  1.0000
  H   H580      1.0  0.67226  0.41064  0.29987  1.0000
  C   C368      1.0  0.64144  0.44635  0.32840  1.0000
  H   H581      1.0  0.64250  0.39764  0.39009  1.0000
  H   H582      1.0  0.68718  0.39867  0.32434  1.0000
  S   S144      1.0  0.61176  0.45915  0.37832  1.0000
  C   C369      1.0  0.68786  0.41894  0.31279  1.0000
  C   C370      1.0  0.66118  0.41717  0.39075  1.0000
  H   H583      1.0  0.77283  0.43212  0.44566  1.0000
  C   C371      1.0  0.59609  0.48287  0.28601  1.0000
  H   H584      1.0  0.58721  0.48218  0.30140  1.0000
  N   N38       1.0  0.67593  0.45079  0.32122  1.0000
  C   C372      1.0  0.65256  0.45023  0.38608  1.0000
  H   H585      1.0  0.70588  0.03861  0.39140  1.0000
  C   C373      1.0  0.59473  0.45390  0.27407  1.0000
  H   H586      1.0  0.66281  0.46944  0.29190  1.0000
  H   H587      1.0  0.71384  0.42133  0.30725  1.0000
  H   H588      1.0  0.70570  0.10111  0.39102  1.0000
  H   H589      1.0  0.98226  0.29626  0.39067  1.0000
  S   S145      1.0  0.82435  0.05900  0.34302  1.0000
  Fe  Fe73      1.0  0.90214  0.10024  0.36873  1.0000
  S   S146      1.0  0.88002  0.11896  0.33995  1.0000
  S   S147      1.0  0.94017  0.13564  0.38252  1.0000
  Fe  Fe74      1.0  0.83091  0.11125  0.35488  1.0000
  S   S148      1.0  0.79288  0.15196  0.35193  1.0000
  Fe  Fe75      1.0  0.87600  0.06521  0.33053  1.0000
  S   S149      1.0  0.85278  0.09578  0.38426  1.0000
  Fe  Fe76      1.0  0.78075  0.37770  0.41568  1.0000
  S   S150      1.0  0.82766  0.38726  0.43322  1.0000
  S   S151      1.0  0.75993  0.42581  0.40278  1.0000
  Fe  Fe77      1.0  0.78303  0.30295  0.42444  1.0000
  S   S152      1.0  0.82948  0.30769  0.44264  1.0000
  S   S153      1.0  0.76223  0.25039  0.42402  1.0000
  Fe  Fe78      1.0  0.80509  0.35250  0.45635  1.0000
  S   S154      1.0  0.80764  0.36366  0.48998  1.0000
  Fe  Fe79      1.0  0.84739  0.34169  0.41781  1.0000
  S   S155      1.0  0.89695  0.33212  0.40238  1.0000
  S   S156      1.0  0.75719  0.34571  0.43980  1.0000
  S   S157      1.0  0.80205  0.33418  0.39860  1.0000
  C   C374      1.0  0.77162  0.36711  0.50509  1.0000
  C   C375      1.0  0.74008  0.36081  0.49724  1.0000
  H   H590      1.0  0.72825  0.48683  0.39256  1.0000
  H   H591      1.0  0.73747  0.35266  0.48183  1.0000
  C   C376      1.0  0.72547  0.47764  0.44932  1.0000
  C   C377      1.0  0.78686  0.17988  0.37207  1.0000
  C   C378      1.0  0.77466  0.21190  0.36806  1.0000
  C   C379      1.0  0.76842  0.23426  0.38389  1.0000
  C   C380      1.0  0.77341  0.22431  0.40387  1.0000
  C   C381      1.0  0.78557  0.19225  0.40788  1.0000
  C   C382      1.0  0.79301  0.17037  0.39200  1.0000
  H   H592      1.0  0.76978  0.21936  0.35267  1.0000
  H   H593      1.0  0.75863  0.25878  0.38070  1.0000
  H   H594      1.0  0.78930  0.18442  0.42333  1.0000
  H   H595      1.0  0.80254  0.14586  0.39524  1.0000
  C   C383      1.0  0.97724  0.41355  0.39606  1.0000
  C   C384      1.0  0.95282  0.41604  0.41111  1.0000
  C   C385      1.0  0.92738  0.39185  0.41278  1.0000
  C   C386      1.0  0.92636  0.36482  0.39949  1.0000
  C   C387      1.0  0.95048  0.36262  0.38423  1.0000
  C   C388      1.0  0.97568  0.38701  0.38243  1.0000
  H   H596      1.0  0.95365  0.43665  0.42161  1.0000
  H   H597      1.0  0.90895  0.39379  0.42459  1.0000
  H   H598      1.0  0.94949  0.34214  0.37365  1.0000
  H   H599      1.0  0.66660  0.50093  0.31096  1.0000
  H   H600      1.0  0.97139  0.07024  0.38252  1.0000
  H   H601      1.0  0.00722  0.31371  0.43294  1.0000
  H   H602      1.0  0.70924  0.39712  0.46268  1.0000
  C   C389      1.0  0.71830  0.43421  0.39657  1.0000
  C   C390      1.0  0.71179  0.36509  0.50935  1.0000
  H   H603      1.0  0.67037  0.50093  0.38378  1.0000
  H   H604      1.0  0.73413  0.47448  0.48940  1.0000
  C   C391      1.0  0.69395  0.40916  0.39605  1.0000
  S   S158      1.0  0.89171  0.05641  0.29800  1.0000
  N   N39       1.0  0.74636  0.07058  0.40050  1.0000
  C   C392      1.0  0.72562  0.10062  0.40259  1.0000
  C   C393      1.0  0.76177  0.07043  0.38027  1.0000
  H   H605      1.0  0.78916  0.09323  0.41433  1.0000
  C   C394      1.0  0.77262  0.07099  0.41600  1.0000
  H   H606      1.0  0.76201  0.07125  0.43150  1.0000
  C   C395      1.0  0.98884  0.08837  0.38843  1.0000
  C   C396      1.0  0.60979  0.51240  0.27819  1.0000
  H   H607      1.0  0.71363  0.10171  0.41771  1.0000
  H   H608      1.0  0.74058  0.12394  0.40063  1.0000
  S   S159      1.0  0.90209  0.04660  0.35842  1.0000
  H   H609      1.0  0.78081  0.45587  0.46801  1.0000
  H   H610      1.0  0.58483  0.43092  0.28040  1.0000
  H   H611      1.0  0.74289  0.06897  0.36811  1.0000
  N   N40       1.0  0.88565  0.22710  0.38297  1.0000
  C   C397      1.0  0.91408  0.21866  0.39596  1.0000
  C   C398      1.0  0.85867  0.24081  0.39550  1.0000
  C   C399      1.0  0.87385  0.19666  0.37255  1.0000
  C   C400      1.0  0.89606  0.25233  0.36786  1.0000
  H   H612      1.0  0.93512  0.20876  0.38692  1.0000
  H   H613      1.0  0.90728  0.19883  0.40709  1.0000
  H   H614      1.0  0.92306  0.24086  0.40447  1.0000
  H   H615      1.0  0.83689  0.24760  0.38616  1.0000
  H   H616      1.0  0.85007  0.22250  0.40708  1.0000
  H   H617      1.0  0.86671  0.26386  0.40356  1.0000
  H   H618      1.0  0.85258  0.20199  0.36242  1.0000
  H   H619      1.0  0.86563  0.17708  0.38347  1.0000
  H   H620      1.0  0.89381  0.18545  0.36319  1.0000
  H   H621      1.0  0.87502  0.25942  0.35795  1.0000
  H   H622      1.0  0.91625  0.24278  0.35803  1.0000
  H   H623      1.0  0.90515  0.27564  0.37521  1.0000
  C   C401      1.0  0.76412  0.43662  0.46135  1.0000
  C   C402      1.0  0.70956  0.46728  0.39212  1.0000
  H   H624      1.0  0.73348  0.47325  0.43346  1.0000
  C   C403      1.0  0.71895  0.45401  0.48270  1.0000
  H   H625      1.0  0.62475  0.43793  0.31608  1.0000
  C   C404      1.0  0.97980  0.12187  0.39000  1.0000
  H   H626      1.0  0.70301  0.48223  0.30041  1.0000
  H   H627      1.0  0.69698  0.44155  0.35043  1.0000
  H   H628      1.0  0.76771  0.41308  0.46995  1.0000
  H   H629      1.0  0.77677  0.09346  0.37754  1.0000
  H   H630      1.0  0.68869  0.48465  0.34509  1.0000
  C   C405      1.0  0.72555  0.04026  0.40309  1.0000
  N   N41       1.0  0.72911  0.44713  0.46170  1.0000
  H   H631      1.0  0.70043  0.38359  0.39947  1.0000
  Fe  Fe80      1.0  0.85025  0.04375  0.37156  1.0000
  H   H632      1.0  0.74057  0.01719  0.40186  1.0000
  H   H633      1.0  0.63972  0.42753  0.34078  1.0000
  H   H634      1.0  0.78863  0.04851  0.41486  1.0000
  H   H635      1.0  0.71593  0.41342  0.43784  1.0000
  H   H636      1.0  0.69925  0.48601  0.44883  1.0000
  C   C406      1.0  0.70798  0.42019  0.45336  1.0000
  H   H637      1.0  0.72204  0.43161  0.49250  1.0000
  H   H638      1.0  0.72347  0.46455  0.33352  1.0000
  H   H639      1.0  0.68154  0.42772  0.45254  1.0000
  C   C407      1.0  0.67678  0.47533  0.38708  1.0000
  H   H640      1.0  0.69246  0.46141  0.48359  1.0000
  Fe  Fe81      1.0  0.59974  0.51041  0.36583  1.0000
  H   H641      1.0  0.68744  0.36061  0.50304  1.0000
  C   C408      1.0  0.67718  0.47697  0.30546  1.0000
  C   C409      1.0  0.69723  0.46083  0.33828  1.0000
  H   H642      1.0  0.63131  0.47006  0.33449  1.0000
  H   H643      1.0  0.74087  0.49859  0.45523  1.0000
  H   H644      1.0  0.77859  0.04880  0.37847  1.0000
  H   H645      1.0  0.71329  0.03959  0.41814  1.0000
  C   C410      1.0  0.87664  0.02320  0.28310  1.0000
  H   H646      1.0  0.99106  0.26672  0.41031  1.0000
  C   C411      1.0  0.00268  0.14514  0.39780  1.0000
  H   H647      1.0  0.99815  0.34271  0.41310  1.0000
  H   H648      1.0  0.99584  0.17109  0.39907  1.0000
  H   H649      1.0  0.99383  0.38541  0.37045  1.0000
  C   C412      1.0  0.00226  0.28105  0.39755  1.0000
  S   S160      1.0  0.56366  0.51406  0.34006  1.0000
  S   S161      1.0  0.00976  0.44344  0.39511  1.0000
  H   H650      1.0  0.01069  0.26273  0.38605  1.0000
  Fe  Fe82      1.0  0.59919  0.12383  0.66585  1.0000
  S   S162      1.0  0.57953  0.08988  0.64169  1.0000
  S   S163      1.0  0.59535  0.18022  0.66231  1.0000
  Fe  Fe83      1.0  0.60855  0.06533  0.69569  1.0000
  Fe  Fe84      1.0  0.55029  0.06531  0.66654  1.0000
  S   S164      1.0  0.64234  0.09107  0.67329  1.0000
  S   S165      1.0  0.56725  0.10134  0.69029  1.0000
  S   S166      1.0  0.64287  0.33451  0.58923  1.0000
  Fe  Fe85      1.0  0.61943  0.37142  0.61015  1.0000
  S   S167      1.0  0.56397  0.36745  0.61471  1.0000
  C   C413      1.0  0.62548  0.20617  0.65057  1.0000
  C   C414      1.0  0.65552  0.19381  0.64323  1.0000
  H   H651      1.0  0.69467  0.23147  0.54353  1.0000
  C   C415      1.0  0.64150  0.26197  0.63891  1.0000
  C   C416      1.0  0.61874  0.24035  0.64847  1.0000
  S   S168      1.0  0.64743  0.41508  0.59705  1.0000
  H   H652      1.0  0.63577  0.28816  0.63727  1.0000
  H   H653      1.0  0.59585  0.25028  0.65433  1.0000
  C   C417      1.0  0.54526  0.43611  0.65837  1.0000
  C   C418      1.0  0.56209  0.41609  0.64429  1.0000
  C   C419      1.0  0.54423  0.39433  0.63183  1.0000
  H   H654      1.0  0.55919  0.45284  0.66801  1.0000
  H   H655      1.0  0.58885  0.41738  0.64315  1.0000
  S   S169      1.0  0.65588  0.03326  0.62794  1.0000
  S   S170      1.0  0.65559  0.36199  0.63496  1.0000
  H   H656      1.0  0.64970  0.03550  0.76650  1.0000
  H   H657      1.0  0.74742  0.30282  0.52626  1.0000
  H   H658      1.0  0.98759  0.02757  0.65306  1.0000
  H   H659      1.0  0.00513  0.07449  0.61793  1.0000
  S   S171      1.0  0.84986  0.50125  0.64640  1.0000
  C   C420      1.0  0.61342  0.02502  0.74351  1.0000
  H   H660      1.0  0.99181  0.04684  0.59817  1.0000
  H   H661      1.0  0.96729  0.05074  0.62068  1.0000
  H   H662      1.0  0.75551  0.24485  0.57007  1.0000
  H   H663      1.0  0.69674  0.04673  0.70690  1.0000
  H   H664      1.0  0.73721  0.22822  0.53566  1.0000
  H   H665      1.0  0.70930  0.25441  0.52188  1.0000
  Fe  Fe86      1.0  0.68129  0.32846  0.61305  1.0000
  S   S172      1.0  0.58938  0.02709  0.67376  1.0000
  H   H666      1.0  0.67457  0.28409  0.55900  1.0000
  H   H667      1.0  0.52070  0.36554  0.67861  1.0000
  H   H668      1.0  0.76751  0.38825  0.65634  1.0000
  Fe  Fe87      1.0  0.62047  0.05501  0.65097  1.0000
  C   C421      1.0  0.53693  0.16437  0.61655  1.0000
  H   H669      1.0  0.76097  0.31435  0.55100  1.0000
  C   C422      1.0  0.67163  0.24976  0.63172  1.0000
  H   H670      1.0  0.68870  0.30665  0.53709  1.0000
  H   H671      1.0  0.66100  0.16752  0.64483  1.0000
  Fe  Fe88      1.0  0.67439  0.37730  0.57806  1.0000
  C   C423      1.0  0.71617  0.24581  0.53729  1.0000
  C   C424      1.0  0.67866  0.21564  0.63398  1.0000
  C   C425      1.0  0.77462  0.37670  0.52538  1.0000
  H   H672      1.0  0.86447  0.48942  0.73645  1.0000
  H   H673      1.0  0.73152  0.38545  0.67226  1.0000
  Fe  Fe89      1.0  0.68576  0.40329  0.62058  1.0000
  H   H674      1.0  0.81838  0.45627  0.61876  1.0000
  H   H675      1.0  0.77435  0.29611  0.64885  1.0000
  H   H676      1.0  0.75280  0.32427  0.63265  1.0000
  H   H677      1.0  0.72607  0.29256  0.67165  1.0000
  H   H678      1.0  0.79251  0.33617  0.64256  1.0000
  S   S173      1.0  0.70347  0.44237  0.64283  1.0000
  H   H679      1.0  0.52583  0.13907  0.61443  1.0000
  H   H680      1.0  0.76281  0.34750  0.69517  1.0000
  S   S174      1.0  0.63119  0.05389  0.72623  1.0000
  S   S175      1.0  0.71505  0.36873  0.60062  1.0000
  C   C426      1.0  0.77456  0.33629  0.68159  1.0000
  H   H681      1.0  0.71295  0.24822  0.57791  1.0000
  C   C427      1.0  0.80022  0.46288  0.63008  1.0000
  C   C428      1.0  0.76785  0.44965  0.62895  1.0000
  C   C429      1.0  0.74427  0.45839  0.64344  1.0000
  C   C430      1.0  0.75327  0.48020  0.65907  1.0000
  C   C431      1.0  0.78565  0.49328  0.66024  1.0000
  C   C432      1.0  0.74469  0.37324  0.65952  1.0000
  H   H682      1.0  0.76111  0.43298  0.61681  1.0000
  H   H683      1.0  0.73517  0.48680  0.67042  1.0000
  S   S176      1.0  0.67827  0.38065  0.54390  1.0000
  C   C433      1.0  0.62812  0.02073  0.76253  1.0000
  C   C434      1.0  0.70767  0.02349  0.71323  1.0000
  C   C435      1.0  0.74630  0.38042  0.53764  1.0000
  H   H684      1.0  0.70194  0.20599  0.62850  1.0000
  H   H685      1.0  0.74885  0.38828  0.55315  1.0000
  C   C436      1.0  0.76884  0.32298  0.64626  1.0000
  H   H686      1.0  0.72846  0.37547  0.64609  1.0000
  H   H687      1.0  0.79896  0.38164  0.53157  1.0000
  H   H688      1.0  0.79820  0.35015  0.67876  1.0000
  H   H689      1.0  0.86775  0.43864  0.75804  1.0000
  N   N42       1.0  0.72505  0.27432  0.55037  1.0000
  H   H690      1.0  0.70409  0.31997  0.65533  1.0000
  H   H691      1.0  0.70794  0.33013  0.68151  1.0000
  C   C437      1.0  0.80919  0.48480  0.64568  1.0000
  H   H692      1.0  0.54542  0.17362  0.60156  1.0000
  H   H693      1.0  0.78090  0.31000  0.68536  1.0000
  N   N43       1.0  0.75235  0.33796  0.66395  1.0000
  H   H694      1.0  0.70248  0.31892  0.56163  1.0000
  C   C438      1.0  0.72130  0.31938  0.66838  1.0000
  S   S177      1.0  0.70084  0.27700  0.62019  1.0000
  H   H695      1.0  0.74058  0.28299  0.58093  1.0000
  C   C439      1.0  0.86979  0.49177  0.75237  1.0000
  H   H696      1.0  0.53872  0.23104  0.61461  1.0000
  C   C440      1.0  0.52926  0.22031  0.62906  1.0000
  C   C441      1.0  0.69644  0.29689  0.55208  1.0000
  C   C442      1.0  0.75350  0.29273  0.54147  1.0000
  H   H697      1.0  0.51507  0.29892  0.70204  1.0000
  H   H698      1.0  0.52367  0.16962  0.65591  1.0000
  C   C443      1.0  0.71474  0.37494  0.52957  1.0000
  C   C444      1.0  0.73399  0.26199  0.57066  1.0000
  C   C445      1.0  0.87165  0.46306  0.76462  1.0000
  H   H699      1.0  0.77554  0.27648  0.53972  1.0000
  H   H700      1.0  0.55081  0.21818  0.63935  1.0000
  H   H701      1.0  0.70582  0.02333  0.67213  1.0000
  H   H702      1.0  0.53087  0.30435  0.67689  1.0000
  H   H703      1.0  0.55938  0.16126  0.62610  1.0000
  C   C446      1.0  0.99318  0.04986  0.61484  1.0000
  H   H704      1.0  0.79248  0.50959  0.67252  1.0000
  N   N44       1.0  0.51310  0.18746  0.62597  1.0000
  H   H705      1.0  0.69567  0.01924  0.72820  1.0000
  H   H706      1.0  0.73448  0.02835  0.71584  1.0000
  H   H707      1.0  0.51189  0.23857  0.63581  1.0000
  H   H708      1.0  0.78116  0.45235  0.81323  1.0000
  H   H709      1.0  0.65898  0.03750  0.91264  1.0000
  H   H710      1.0  0.98673  0.37409  0.89718  1.0000
  H   H711      1.0  0.84002  0.51416  0.83465  1.0000
  C   C447      1.0  0.72742  0.15625  0.00528  1.0000
  H   H712      1.0  0.73778  0.23493  0.91521  1.0000
  Fe  Fe90      1.0  0.86508  0.44939  0.87528  1.0000
  S   S178      1.0  0.85495  0.40470  0.85569  1.0000
  Fe  Fe91      1.0  0.93935  0.44708  0.86685  1.0000
  S   S179      1.0  0.93424  0.40300  0.84633  1.0000
  S   S180      1.0  0.99158  0.46700  0.87010  1.0000
  Fe  Fe92      1.0  0.89009  0.42978  0.83385  1.0000
  S   S181      1.0  0.87759  0.42930  0.80046  1.0000
  Fe  Fe93      1.0  0.89994  0.38224  0.87003  1.0000
  S   S182      1.0  0.90974  0.33057  0.88288  1.0000
  S   S183      1.0  0.89767  0.47582  0.85258  1.0000
  S   S184      1.0  0.90758  0.42500  0.89140  1.0000
  Fe  Fe94      1.0  0.78744  0.09563  0.90283  1.0000
  S   S185      1.0  0.80804  0.09020  0.93428  1.0000
  S   S186      1.0  0.77016  0.05284  0.88303  1.0000
  Fe  Fe95      1.0  0.80301  0.17073  0.90105  1.0000
  S   S187      1.0  0.82483  0.17069  0.93187  1.0000
  S   S188      1.0  0.79729  0.21869  0.88333  1.0000
  Fe  Fe96      1.0  0.84948  0.12315  0.92244  1.0000
  S   S189      1.0  0.90451  0.12108  0.92848  1.0000
  Fe  Fe97      1.0  0.78130  0.13839  0.94070  1.0000
  S   S190      1.0  0.74890  0.15831  0.96602  1.0000
  S   S191      1.0  0.83075  0.12567  0.89077  1.0000
  S   S192      1.0  0.75778  0.14110  0.91001  1.0000
  C   C448      1.0  0.74622  0.14022  0.99033  1.0000
  C   C449      1.0  0.76200  0.11027  0.99499  1.0000
  C   C450      1.0  0.74545  0.22677  0.93056  1.0000
  H   H713      1.0  0.77653  0.09773  0.98361  1.0000
  H   H714      1.0  0.89682  0.17266  0.89787  1.0000
  C   C451      1.0  0.87814  0.46575  0.78536  1.0000
  C   C452      1.0  0.51311  0.49486  0.83325  1.0000
  H   H715      1.0  0.76364  0.51457  0.95976  1.0000
  H   H716      1.0  0.97302  0.44390  0.91001  1.0000
  C   C453      1.0  0.87756  0.30047  0.88354  1.0000
  C   C454      1.0  0.88122  0.27180  0.89555  1.0000
  C   C455      1.0  0.85663  0.24666  0.89577  1.0000
  C   C456      1.0  0.82842  0.24989  0.88376  1.0000
  C   C457      1.0  0.82457  0.27873  0.87197  1.0000
  C   C458      1.0  0.84901  0.30401  0.87188  1.0000
  H   H717      1.0  0.90309  0.26918  0.90480  1.0000
  H   H718      1.0  0.85955  0.22476  0.90514  1.0000
  H   H719      1.0  0.80272  0.28145  0.86271  1.0000
  H   H720      1.0  0.84602  0.32596  0.86254  1.0000
  C   C459      1.0  0.97379  0.06687  0.88481  1.0000
  C   C460      1.0  0.93971  0.05938  0.88486  1.0000
  C   C461      1.0  0.91809  0.07589  0.89814  1.0000
  C   C462      1.0  0.93061  0.09946  0.91173  1.0000
  C   C463      1.0  0.96471  0.10665  0.91180  1.0000
  C   C464      1.0  0.98616  0.09078  0.89821  1.0000
  H   H721      1.0  0.92996  0.04082  0.87459  1.0000
  H   H722      1.0  0.89185  0.07004  0.89807  1.0000
  H   H723      1.0  0.97456  0.12471  0.92236  1.0000
  H   H724      1.0  0.80435  0.28657  0.93842  1.0000
  C   C465      1.0  0.79128  0.26587  0.93050  1.0000
  C   C466      1.0  0.67508  0.03227  0.89998  1.0000
  C   C467      1.0  0.72860  0.03865  0.88344  1.0000
  H   H725      1.0  0.71589  0.27363  0.95288  1.0000
  H   H726      1.0  0.81095  0.49558  0.79342  1.0000
  S   S193      1.0  0.81934  0.46869  0.89136  1.0000
  H   H727      1.0  0.89090  0.19085  0.84332  1.0000
  H   H728      1.0  0.73016  0.29173  0.92954  1.0000
  H   H729      1.0  0.88880  0.49978  0.80958  1.0000
  C   C468      1.0  0.91994  0.18340  0.89117  1.0000
  N   N45       1.0  0.76182  0.25405  0.94184  1.0000
  H   H730      1.0  0.86808  0.18494  0.86636  1.0000
  C   C469      1.0  0.82262  0.49256  0.83327  1.0000
  C   C470      1.0  0.70734  0.04596  0.89949  1.0000
  S   S194      1.0  0.00038  0.04625  0.86784  1.0000
  H   H731      1.0  0.76243  0.20545  0.92849  1.0000
  H   H732      1.0  0.71598  0.06164  0.91168  1.0000
  H   H733      1.0  0.99514  0.05009  0.79978  1.0000
  C   C471      1.0  0.75890  0.09646  0.01445  1.0000
  H   H734      1.0  0.97561  0.29988  0.88950  1.0000
  C   C472      1.0  0.73840  0.28187  0.94440  1.0000
  H   H735      1.0  0.91997  0.13801  0.84795  1.0000
  C   C473      1.0  0.71711  0.01826  0.86770  1.0000
  C   C474      1.0  0.76936  0.47273  0.82206  1.0000
  H   H736      1.0  0.97622  0.32007  0.91350  1.0000
  C   C475      1.0  0.88326  0.49739  0.79373  1.0000
  H   H737      1.0  0.74996  0.30293  0.95284  1.0000
  H   H738      1.0  0.95290  0.22119  0.86406  1.0000
  H   H739      1.0  0.89206  0.22236  0.86244  1.0000
  H   H740      1.0  0.92107  0.21025  0.89530  1.0000
  H   H741      1.0  0.80937  0.24538  0.92834  1.0000
  H   H742      1.0  0.75057  0.23199  0.97074  1.0000
  C   C476      1.0  0.92025  0.14265  0.86447  1.0000
  H   H743      1.0  0.89800  0.13011  0.87111  1.0000
  H   H744      1.0  0.78968  0.22036  0.96043  1.0000
  H   H745      1.0  0.72326  0.21682  0.93869  1.0000
  C   C477      1.0  0.95163  0.19392  0.86087  1.0000
  H   H746      1.0  0.81802  0.48255  0.84870  1.0000
  H   H747      1.0  0.71512  0.17942  0.00177  1.0000
  N   N46       1.0  0.79146  0.50229  0.82337  1.0000
  H   H748      1.0  0.78465  0.26137  0.97084  1.0000
  H   H749      1.0  0.94106  0.17081  0.89871  1.0000
  C   C478      1.0  0.77214  0.24157  0.96185  1.0000
  H   H750      1.0  0.98596  0.35458  0.87300  1.0000
  H   H751      1.0  0.97407  0.18231  0.86761  1.0000
  H   H752      1.0  0.78448  0.27498  0.91518  1.0000
  C   C479      1.0  0.89175  0.19489  0.85989  1.0000
  H   H753      1.0  0.00626  0.42077  0.93805  1.0000
  N   N47       1.0  0.92087  0.17873  0.86909  1.0000
  H   H754      1.0  0.65698  0.06097  0.00838  1.0000
  H   H755      1.0  0.76361  0.46243  0.83732  1.0000
  C   C480      1.0  0.80452  0.50982  0.88934  1.0000
  H   H756      1.0  0.75676  0.49618  0.90160  1.0000
  H   H757      1.0  0.00315  0.28527  0.90890  1.0000
  C   C481      1.0  0.99224  0.30798  0.90197  1.0000
  H   H758      1.0  0.83550  0.47265  0.82466  1.0000
  H   H759      1.0  0.95330  0.19066  0.84424  1.0000
  H   H760      1.0  0.74550  0.47897  0.81465  1.0000
  H   H761      1.0  0.94238  0.12992  0.87072  1.0000
  C   C482      1.0  0.99946  0.44093  0.90820  1.0000
  C   C483      1.0  0.00245  0.36115  0.88586  1.0000
  H   H762      1.0  0.77117  0.07323  0.01793  1.0000
  H   H763      1.0  0.53584  0.50770  0.83893  1.0000
  H   H764      1.0  0.51504  0.49365  0.81651  1.0000
  H   H765      1.0  0.51326  0.46879  0.83913  1.0000
  H   H766      1.0  0.01045  0.04924  0.82516  1.0000
  C   C484      1.0  0.79884  0.51499  0.80286  1.0000
  H   H767      1.0  0.66669  0.02177  0.02031  1.0000
  H   H768      1.0  0.94675  0.55301  0.11458  1.0000
  H   H769      1.0  0.70224  0.61256  0.06966  1.0000
  H   H770      1.0  0.63139  0.53582  0.25189  1.0000
  C   C485      1.0  0.74890  0.99105  0.19264  1.0000
  H   H771      1.0  0.61075  0.59908  0.07265  1.0000
  C   C486      1.0  0.69308  0.59877  0.08321  1.0000
  H   H772      1.0  0.77614  0.74831  0.07309  1.0000
  H   H773      1.0  0.92208  0.96177  0.23111  1.0000
  C   C487      1.0  0.95697  0.82917  0.14103  1.0000
  H   H774      1.0  0.63370  0.62731  0.08848  1.0000
  H   H775      1.0  0.64976  0.58051  0.11157  1.0000
  C   C488      1.0  0.97645  0.57304  0.25597  1.0000
  H   H776      1.0  0.93121  0.82894  0.14713  1.0000
  Fe  Fe98      1.0  0.78842  0.63293  0.07482  1.0000
  S   S195      1.0  0.75619  0.65908  0.09713  1.0000
  S   S196      1.0  0.78349  0.64592  0.04160  1.0000
  Fe  Fe99      1.0  0.83492  0.60879  0.10835  1.0000
  S   S197      1.0  0.80642  0.63445  0.13301  1.0000
  S   S198      1.0  0.88010  0.57604  0.11131  1.0000
  Fe  Fe100     1.0  0.76195  0.61371  0.11668  1.0000
  S   S199      1.0  0.71703  0.59543  0.13412  1.0000
  Fe  Fe101     1.0  0.80329  0.67753  0.11125  1.0000
  S   S200      1.0  0.80426  0.73374  0.11448  1.0000
  S   S201      1.0  0.79038  0.58551  0.09315  1.0000
  S   S202      1.0  0.83553  0.65356  0.08798  1.0000
  H   H777      1.0  0.75451  0.98009  0.17759  1.0000
  Fe  Fe102     1.0  0.88336  0.86814  0.18237  1.0000
  S   S203      1.0  0.90204  0.90271  0.15817  1.0000
  S   S204      1.0  0.88731  0.81193  0.18061  1.0000
  Fe  Fe103     1.0  0.87073  0.92569  0.21210  1.0000
  S   S205      1.0  0.88895  0.96496  0.19036  1.0000
  S   S206      1.0  0.85037  0.93290  0.24371  1.0000
  Fe  Fe104     1.0  0.85965  0.93585  0.16744  1.0000
  Fe  Fe105     1.0  0.92965  0.92851  0.18304  1.0000
  S   S207      1.0  0.98463  0.93972  0.18396  1.0000
  S   S208      1.0  0.83873  0.89871  0.18968  1.0000
  S   S209      1.0  0.91369  0.89183  0.20677  1.0000
  C   C489      1.0  0.70621  0.55297  0.13711  1.0000
  H   H778      1.0  0.85645  0.72783  0.03284  1.0000
  H   H779      1.0  0.98703  0.86089  0.17158  1.0000
  H   H780      1.0  0.97545  0.54871  0.26417  1.0000
  C   C490      1.0  0.90932  0.57983  0.13100  1.0000
  C   C491      1.0  0.94047  0.56498  0.12868  1.0000
  C   C492      1.0  0.96365  0.56541  0.14448  1.0000
  C   C493      1.0  0.95550  0.57993  0.16295  1.0000
  C   C494      1.0  0.92423  0.59464  0.16535  1.0000
  C   C495      1.0  0.90135  0.59500  0.14935  1.0000
  H   H781      1.0  0.66933  0.57409  0.04829  1.0000
  C   C496      1.0  0.72191  0.52801  0.12603  1.0000
  H   H782      1.0  0.91776  0.60595  0.17960  1.0000
  H   H783      1.0  0.87742  0.60650  0.15134  1.0000
  C   C497      1.0  0.82783  0.75480  0.13291  1.0000
  C   C498      1.0  0.84798  0.73762  0.14647  1.0000
  C   C499      1.0  0.86621  0.75543  0.16104  1.0000
  C   C500      1.0  0.86434  0.79040  0.16211  1.0000
  C   C501      1.0  0.84453  0.80757  0.14838  1.0000
  C   C502      1.0  0.82634  0.78979  0.13383  1.0000
  H   H784      1.0  0.84929  0.71067  0.14586  1.0000
  H   H785      1.0  0.88149  0.74202  0.17164  1.0000
  H   H786      1.0  0.84295  0.83451  0.14908  1.0000
  H   H787      1.0  0.81076  0.80322  0.12339  1.0000
  H   H788      1.0  0.84877  0.73035  0.07888  1.0000
  C   C503      1.0  0.85901  0.96859  0.25842  1.0000
  H   H789      1.0  0.81041  0.55997  0.16505  1.0000
  H   H790      1.0  0.54067  0.53420  0.21072  1.0000
  H   H791      1.0  0.76696  0.98252  0.12464  1.0000
  C   C504      1.0  0.80447  0.99566  0.14632  1.0000
  N   N48       1.0  0.98052  0.81464  0.15559  1.0000
  C   C505      1.0  0.66210  0.56046  0.06232  1.0000
  H   H792      1.0  0.73651  0.58946  0.04043  1.0000
  H   H793      1.0  0.83955  0.69531  0.04862  1.0000
  H   H794      1.0  0.83193  0.77141  0.08011  1.0000
  H   H795      1.0  0.00400  0.90128  0.11448  1.0000
  H   H796      1.0  0.87444  0.99983  0.23358  1.0000
  H   H797      1.0  0.79933  0.79351  0.05144  1.0000
  C   C506      1.0  0.73392  0.60402  0.02678  1.0000
  H   H798      1.0  0.66684  0.54329  0.10103  1.0000
  C   C507      1.0  0.68016  0.54430  0.15024  1.0000
  H   H799      1.0  0.65590  0.01418  0.05727  1.0000
  H   H800      1.0  0.83607  0.51898  0.11743  1.0000
  N   N49       1.0  0.96758  0.96486  0.24757  1.0000
  H   H801      1.0  0.77884  0.98208  0.24030  1.0000
  H   H802      1.0  0.92756  0.95441  0.26826  1.0000
  H   H803      1.0  0.98617  0.92536  0.22888  1.0000
  S   S210      1.0  0.82343  0.95617  0.14466  1.0000
  C   C508      1.0  0.76271  0.99227  0.22814  1.0000
  C   C509      1.0  0.94527  0.97697  0.23161  1.0000
  H   H804      1.0  0.95706  0.97546  0.21645  1.0000
  H   H805      1.0  0.96350  0.85557  0.13741  1.0000
  C   C510      1.0  0.95134  0.96874  0.26745  1.0000
  H   H806      1.0  0.78211  0.92891  0.22104  1.0000
  H   H807      1.0  0.68076  0.54056  0.06487  1.0000
  N   N50       1.0  0.81855  0.74378  0.05351  1.0000
  C   C511      1.0  0.83330  0.71844  0.04012  1.0000
  C   C512      1.0  0.84240  0.75258  0.06957  1.0000
  C   C513      1.0  0.78788  0.73007  0.06269  1.0000
  C   C514      1.0  0.81054  0.77398  0.04170  1.0000
  H   H808      1.0  0.66777  0.56357  0.15875  1.0000
  H   H809      1.0  0.99222  0.91928  0.25552  1.0000
  H   H810      1.0  0.98779  0.76796  0.17104  1.0000
  C   C515      1.0  0.99876  0.98450  0.24702  1.0000
  H   H811      1.0  0.81249  0.97190  0.18888  1.0000
  H   H812      1.0  0.81023  0.01141  0.20172  1.0000
  H   H813      1.0  0.77041  0.92826  0.19492  1.0000
  H   H814      1.0  0.64318  0.62482  0.06203  1.0000
  C   C516      1.0  0.87146  0.99799  0.24974  1.0000
  H   H815      1.0  0.79312  0.70737  0.07174  1.0000
  H   H816      1.0  0.99412  0.61199  0.22415  1.0000
  H   H817      1.0  0.96887  0.92235  0.14241  1.0000
  C   C517      1.0  0.97483  0.92921  0.24405  1.0000
  H   H818      1.0  0.98756  0.55383  0.14249  1.0000
  H   H819      1.0  0.95843  0.57155  0.24329  1.0000
  H   H820      1.0  0.73649  0.98745  0.23259  1.0000
  C   C518      1.0  0.75363  0.63257  0.02385  1.0000
  H   H821      1.0  0.82802  0.56641  0.14052  1.0000
  H   H822      1.0  0.69220  0.61694  0.09588  1.0000
  C   C519      1.0  0.64979  0.56436  0.09790  1.0000
  H   H823      1.0  0.74136  0.53460  0.11549  1.0000
  H   H824      1.0  0.78503  0.55500  0.14307  1.0000
  H   H825      1.0  0.00368  0.55182  0.22135  1.0000
  H   H826      1.0  0.81577  0.71080  0.02800  1.0000
  H   H827      1.0  0.86589  0.76301  0.06327  1.0000
  H   H828      1.0  0.95495  0.83423  0.18142  1.0000
  C   C520      1.0  0.99508  0.91875  0.14476  1.0000
  H   H829      1.0  0.73937  0.93400  0.21403  1.0000
  N   N51       1.0  0.77051  0.97698  0.20845  1.0000
  C   C521      1.0  0.81026  0.55063  0.14926  1.0000
  H   H830      1.0  0.76940  0.72271  0.05105  1.0000
  H   H831      1.0  0.93838  0.00351  0.23405  1.0000
  H   H832      1.0  0.95666  0.81503  0.12662  1.0000
  H   H833      1.0  0.63783  0.54790  0.05947  1.0000
  C   C522      1.0  0.80545  0.98411  0.20329  1.0000
  H   H834      1.0  0.71185  0.57969  0.08726  1.0000
  C   C523      1.0  0.97068  0.77971  0.16003  1.0000
  N   N52       1.0  0.66019  0.58332  0.07973  1.0000
  S   S211      1.0  0.98301  0.57841  0.18364  1.0000
  H   H835      1.0  0.85519  0.52000  0.17207  1.0000
  H   H836      1.0  0.83312  0.78505  0.03455  1.0000
  H   H837      1.0  0.96776  0.59269  0.26651  1.0000
  H   H838      1.0  0.82243  0.97470  0.21509  1.0000
  H   H839      1.0  0.95179  0.91368  0.24472  1.0000
  C   C524      1.0  0.98006  0.83433  0.17441  1.0000
  H   H840      1.0  0.72224  0.98613  0.19592  1.0000
  C   C525      1.0  0.76531  0.94043  0.20969  1.0000
  H   H841      1.0  0.00218  0.63346  0.24748  1.0000
  H   H842      1.0  0.94525  0.77827  0.16659  1.0000
  C   C526      1.0  0.77606  0.00161  0.13479  1.0000
  C   C527      1.0  0.63585  0.60979  0.07553  1.0000
  H   H843      1.0  0.99766  0.82428  0.18572  1.0000
  H   H844      1.0  0.97064  0.76416  0.14615  1.0000
  H   H845      1.0  0.79253  0.76817  0.02949  1.0000
  H   H846      1.0  0.51977  0.53217  0.24583  1.0000
  H   H847      1.0  0.87185  0.52520  0.14717  1.0000
  H   H848      1.0  0.99402  0.01156  0.24947  1.0000
  H   H849      1.0  0.62448  0.55348  0.09622  1.0000
  N   N53       1.0  0.01027  0.58041  0.24848  1.0000
  C   C528      1.0  0.00917  0.92631  0.16346  1.0000
  C   C529      1.0  0.01058  0.61274  0.23764  1.0000
  S   S212      1.0  0.61524  0.82385  0.43616  1.0000
  Fe  Fe106     1.0  0.60489  0.87686  0.42729  1.0000
  S   S213      1.0  0.55354  0.89630  0.43423  1.0000
  Fe  Fe107     1.0  0.61241  0.58542  0.36692  1.0000
  S   S214      1.0  0.57603  0.55199  0.38331  1.0000
  S   S215      1.0  0.63958  0.62283  0.38677  1.0000
  Fe  Fe108     1.0  0.60084  0.54944  0.32654  1.0000
  Fe  Fe109     1.0  0.54371  0.55901  0.35618  1.0000
  S   S216      1.0  0.57861  0.59516  0.34081  1.0000
  S   S217      1.0  0.63839  0.54307  0.35126  1.0000
  H   H850      1.0  0.78771  0.99317  0.35965  1.0000
  C   C530      1.0  0.65054  0.68710  0.39949  1.0000
  Fe  Fe110     1.0  0.66500  0.84406  0.44603  1.0000
  H   H851      1.0  0.65771  0.73746  0.41056  1.0000
  H   H852      1.0  0.66371  0.67575  0.41190  1.0000
  S   S218      1.0  0.62406  0.86973  0.39614  1.0000
  C   C531      1.0  0.53086  0.91663  0.41521  1.0000
  C   C532      1.0  0.54534  0.92521  0.39671  1.0000
  H   H853      1.0  0.69213  0.77441  0.35756  1.0000
  H   H854      1.0  0.57136  0.92063  0.39413  1.0000
  H   H855      1.0  0.53757  0.94682  0.36730  1.0000
  C   C533      1.0  0.63014  0.73693  0.38284  1.0000
  C   C534      1.0  0.63668  0.66674  0.38442  1.0000
  C   C535      1.0  0.61966  0.68164  0.36848  1.0000
  H   H856      1.0  0.70576  0.80428  0.32570  1.0000
  C   C536      1.0  0.64708  0.72206  0.39881  1.0000
  H   H857      1.0  0.60909  0.66628  0.35670  1.0000
  H   H858      1.0  0.60364  0.72798  0.35517  1.0000
  S   S219      1.0  0.65319  0.89785  0.43898  1.0000
  H   H859      1.0  0.94536  0.99536  0.27059  1.0000
  N   N54       1.0  0.53833  0.64810  0.40682  1.0000
  S   S220      1.0  0.83234  0.00400  0.39368  1.0000
  C   C537      1.0  0.54376  0.64127  0.38518  1.0000
  H   H860      1.0  0.58634  0.66987  0.41204  1.0000
  H   H861      1.0  0.74689  0.91618  0.50456  1.0000
  C   C538      1.0  0.86275  0.99437  0.29170  1.0000
  H   H862      1.0  0.57325  0.61101  0.41630  1.0000
  H   H863      1.0  0.96734  0.95975  0.27992  1.0000
  H   H864      1.0  0.53127  0.59626  0.41436  1.0000
  H   H865      1.0  0.56984  0.63410  0.38217  1.0000
  H   H866      1.0  0.55491  0.68345  0.42911  1.0000
  C   C539      1.0  0.85401  0.96713  0.27937  1.0000
  C   C540      1.0  0.52616  0.94010  0.38154  1.0000
  Fe  Fe111     1.0  0.63834  0.81806  0.40562  1.0000
  C   C541      1.0  0.61659  0.71661  0.36765  1.0000
  H   H867      1.0  0.84406  0.94456  0.28619  1.0000
  S   S221      1.0  0.62589  0.78073  0.38089  1.0000
  H   H868      1.0  0.85960  0.99274  0.30788  1.0000
  C   C542      1.0  0.71497  0.82558  0.51208  1.0000
  H   H869      1.0  0.74876  0.80590  0.33271  1.0000
  C   C543      1.0  0.71155  0.78990  0.36507  1.0000
  H   H870      1.0  0.70389  0.79199  0.38114  1.0000
  C   C544      1.0  0.74063  0.84303  0.36604  1.0000
  S   S222      1.0  0.70040  0.91726  0.38406  1.0000
  H   H871      1.0  0.68454  0.86603  0.34964  1.0000
  H   H872      1.0  0.53836  0.66346  0.37566  1.0000
  S   S223      1.0  0.68911  0.83384  0.41590  1.0000
  H   H873      1.0  0.72741  0.84373  0.32643  1.0000
  C   C545      1.0  0.68300  0.84066  0.35653  1.0000
  S   S224      1.0  0.61529  0.54827  0.29336  1.0000
  H   H874      1.0  0.73519  0.77586  0.36466  1.0000
  H   H875      1.0  0.52776  0.62035  0.37983  1.0000
  H   H876      1.0  0.54322  0.62230  0.43515  1.0000
  Fe  Fe112     1.0  0.67369  0.88616  0.40803  1.0000
  H   H877      1.0  0.74608  0.92633  0.41792  1.0000
  S   S225      1.0  0.68370  0.82185  0.47546  1.0000
  N   N55       1.0  0.71501  0.82314  0.35544  1.0000
  C   C546      1.0  0.70723  0.84272  0.49418  1.0000
  H   H878      1.0  0.79794  0.95999  0.42093  1.0000
  C   C547      1.0  0.71857  0.87559  0.49164  1.0000
  H   H879      1.0  0.74348  0.86846  0.35932  1.0000
  H   H880      1.0  0.71284  0.88901  0.47793  1.0000
  C   C548      1.0  0.73737  0.94075  0.38712  1.0000
  C   C549      1.0  0.74936  0.95972  0.37073  1.0000
  C   C550      1.0  0.77866  0.97884  0.37241  1.0000
  C   C551      1.0  0.79627  0.97913  0.39053  1.0000
  C   C552      1.0  0.78440  0.95998  0.40687  1.0000
  C   C553      1.0  0.75500  0.94092  0.40522  1.0000
  H   H881      1.0  0.73592  0.95960  0.35665  1.0000
  H   H882      1.0  0.67524  0.84413  0.37241  1.0000
  H   H883      1.0  0.66280  0.82630  0.34900  1.0000
  C   C554      1.0  0.73786  0.89090  0.50676  1.0000
  C   C555      1.0  0.55967  0.67637  0.41316  1.0000
  H   H884      1.0  0.76520  0.83071  0.36561  1.0000
  H   H885      1.0  0.73400  0.84688  0.38216  1.0000
  C   C556      1.0  0.72469  0.81907  0.33410  1.0000
  C   C557      1.0  0.54685  0.61811  0.41872  1.0000
  H   H886      1.0  0.55587  0.69888  0.40357  1.0000
  H   H887      1.0  0.70633  0.80013  0.51414  1.0000
  H   H888      1.0  0.51560  0.81887  0.39893  1.0000
  C   C558      1.0  0.66046  0.96924  0.64348  1.0000
  C   C559      1.0  0.65317  0.93924  0.58125  1.0000
  H   H889      1.0  0.64182  0.96185  0.57447  1.0000
  H   H890      1.0  0.96942  0.98926  0.62624  1.0000
  H   H891      1.0  0.63707  0.97380  0.65096  1.0000
  H   H892      1.0  0.55087  0.96787  0.74850  1.0000
  H   H893      1.0  0.95974  0.60926  0.72386  1.0000
  C   C560      1.0  0.71705  0.96450  0.70853  1.0000
  H   H894      1.0  0.70569  0.95847  0.72346  1.0000
  S   S226      1.0  0.90448  0.53363  0.69193  1.0000
  H   H895      1.0  0.66463  0.91875  0.65473  1.0000
  C   C561      1.0  0.73410  0.84094  0.52723  1.0000
  C   C562      1.0  0.87369  0.52341  0.76092  1.0000
  H   H896      1.0  0.64832  0.89625  0.54996  1.0000
  H   H897      1.0  0.71329  0.94236  0.69861  1.0000
  H   H898      1.0  0.67644  0.87690  0.58122  1.0000
  H   H899      1.0  0.92879  0.59986  0.74258  1.0000
  H   H900      1.0  0.99509  0.91491  0.64528  1.0000
  Fe  Fe113     1.0  0.78406  0.87145  0.57343  1.0000
  S   S227      1.0  0.75228  0.83843  0.59314  1.0000
  S   S228      1.0  0.76978  0.89414  0.54319  1.0000
  Fe  Fe114     1.0  0.83912  0.87683  0.60575  1.0000
  S   S229      1.0  0.81039  0.84535  0.62797  1.0000
  S   S230      1.0  0.89444  0.88723  0.60801  1.0000
  Fe  Fe115     1.0  0.79940  0.81208  0.60163  1.0000
  S   S231      1.0  0.81092  0.75665  0.59999  1.0000
  Fe  Fe116     1.0  0.76599  0.87490  0.61764  1.0000
  S   S232      1.0  0.72500  0.89235  0.63864  1.0000
  S   S233      1.0  0.82990  0.84227  0.57974  1.0000
  S   S234      1.0  0.79576  0.90919  0.59758  1.0000
  Fe  Fe117     1.0  0.87201  0.56369  0.71242  1.0000
  Fe  Fe118     1.0  0.85561  0.61423  0.67871  1.0000
  S   S235      1.0  0.88785  0.58864  0.65588  1.0000
  S   S236      1.0  0.82413  0.66059  0.67578  1.0000
  Fe  Fe119     1.0  0.92476  0.58295  0.68099  1.0000
  S   S237      1.0  0.98014  0.59223  0.68334  1.0000
  S   S238      1.0  0.83030  0.56749  0.69007  1.0000
  S   S239      1.0  0.89435  0.61262  0.70269  1.0000
  C   C563      1.0  0.99497  0.99021  0.61980  1.0000
  H   H901      1.0  0.96790  0.59330  0.63991  1.0000
  C   C564      1.0  0.70604  0.93161  0.63553  1.0000
  C   C565      1.0  0.66732  0.91647  0.54861  1.0000
  H   H902      1.0  0.76289  0.56426  0.66595  1.0000
  H   H903      1.0  0.94043  0.83106  0.62178  1.0000
  C   C566      1.0  0.57241  0.98266  0.75251  1.0000
  C   C567      1.0  0.91577  0.90674  0.62802  1.0000
  C   C568      1.0  0.89973  0.92683  0.64217  1.0000
  C   C569      1.0  0.91836  0.94358  0.65704  1.0000
  C   C570      1.0  0.95287  0.93959  0.65815  1.0000
  C   C571      1.0  0.96861  0.91856  0.64443  1.0000
  C   C572      1.0  0.95024  0.90284  0.62918  1.0000
  H   H904      1.0  0.87319  0.93012  0.64132  1.0000
  H   H905      1.0  0.90602  0.95978  0.66765  1.0000
  H   H906      1.0  0.73022  0.59343  0.66124  1.0000
  H   H907      1.0  0.96292  0.88767  0.61817  1.0000
  C   C573      1.0  0.81611  0.73110  0.62146  1.0000
  C   C574      1.0  0.80458  0.74075  0.64043  1.0000
  C   C575      1.0  0.80792  0.71911  0.65703  1.0000
  C   C576      1.0  0.82362  0.68814  0.65493  1.0000
  C   C577      1.0  0.83619  0.67897  0.63609  1.0000
  C   C578      1.0  0.83187  0.70014  0.61934  1.0000
  H   H908      1.0  0.79227  0.76447  0.64220  1.0000
  H   H909      1.0  0.79801  0.72630  0.67155  1.0000
  H   H910      1.0  0.84856  0.65533  0.63429  1.0000
  H   H911      1.0  0.84091  0.69261  0.60468  1.0000
  C   C579      1.0  0.96088  0.54365  0.73276  1.0000
  H   H912      1.0  0.68743  0.90680  0.53870  1.0000
  H   H913      1.0  0.71502  0.88614  0.56898  1.0000
  H   H914      1.0  0.74009  0.82735  0.54084  1.0000
  S   S240      1.0  0.97615  0.96289  0.67578  1.0000
  C   C580      1.0  0.72047  0.95662  0.62356  1.0000
  H   H915      1.0  0.73321  0.63069  0.63100  1.0000
  H   H916      1.0  0.93380  0.53972  0.73503  1.0000
  Fe  Fe120     1.0  0.86473  0.54148  0.66865  1.0000
  C   C581      1.0  0.69513  0.89701  0.57847  1.0000
  N   N56       1.0  0.91105  0.78624  0.61996  1.0000
  C   C582      1.0  0.88458  0.79934  0.63310  1.0000
  C   C583      1.0  0.90223  0.79199  0.59861  1.0000
  C   C584      1.0  0.91470  0.75003  0.62361  1.0000
  C   C585      1.0  0.94256  0.80370  0.62451  1.0000
  H   H917      1.0  0.88180  0.82678  0.63109  1.0000
  H   H918      1.0  0.88986  0.79470  0.64931  1.0000
  H   H919      1.0  0.86021  0.78748  0.62963  1.0000
  H   H920      1.0  0.92158  0.78243  0.58821  1.0000
  H   H921      1.0  0.87839  0.77942  0.59468  1.0000
  H   H922      1.0  0.89920  0.81908  0.59534  1.0000
  H   H923      1.0  0.93457  0.73928  0.61401  1.0000
  H   H924      1.0  0.89129  0.73630  0.62017  1.0000
  H   H925      1.0  0.92096  0.74471  0.63963  1.0000
  H   H926      1.0  0.96320  0.79450  0.61492  1.0000
  H   H927      1.0  0.94982  0.80028  0.64056  1.0000
  H   H928      1.0  0.74381  0.95213  0.61605  1.0000
  C   C586      1.0  0.67491  0.99419  0.63146  1.0000
  H   H929      1.0  0.75754  0.54129  0.63137  1.0000
  N   N57       1.0  0.97354  0.57145  0.74525  1.0000
  S   S241      1.0  0.86900  0.56032  0.74664  1.0000
  C   C587      1.0  0.70487  0.98770  0.62145  1.0000
  N   N58       1.0  0.68036  0.92637  0.56855  1.0000
  H   H930      1.0  0.81162  0.56243  0.64299  1.0000
  H   H931      1.0  0.97325  0.51972  0.73647  1.0000
  H   H932      1.0  0.72663  0.94396  0.55610  1.0000
  H   H933      1.0  0.77192  0.64612  0.64049  1.0000
  H   H934      1.0  0.70632  0.90360  0.59328  1.0000
  H   H935      1.0  0.66224  0.94628  0.59651  1.0000
  H   H936      1.0  0.65589  0.93792  0.54062  1.0000
  H   H937      1.0  0.74421  0.96772  0.71077  1.0000
  H   H938      1.0  0.81408  0.59011  0.62173  1.0000
  C   C588      1.0  0.75154  0.56702  0.62614  1.0000
  H   H939      1.0  0.96499  0.54866  0.71643  1.0000
  C   C589      1.0  0.75736  0.58945  0.65974  1.0000
  H   H940      1.0  0.69563  0.97546  0.55874  1.0000
  H   H941      1.0  0.71709  0.96009  0.58052  1.0000
  H   H942      1.0  0.76966  0.63028  0.61529  1.0000
  C   C590      1.0  0.95597  0.60251  0.74001  1.0000
  H   H943      1.0  0.77007  0.60818  0.66954  1.0000
  C   C591      1.0  0.76039  0.62633  0.63095  1.0000
  C   C592      1.0  0.96785  0.56354  0.76677  1.0000
  H   H944      1.0  0.71588  0.98001  0.66962  1.0000
  C   C593      1.0  0.80461  0.58764  0.63744  1.0000
  N   N59       1.0  0.76843  0.59260  0.63855  1.0000
  C   C594      1.0  0.99271  0.60263  0.64269  1.0000
  C   C595      1.0  0.70598  0.95267  0.56587  1.0000
  C   C596      1.0  0.74588  0.87359  0.52454  1.0000
  C   C597      1.0  0.71785  0.00187  0.67986  1.0000
  H   H945      1.0  0.75924  0.56888  0.61004  1.0000
  H   H946      1.0  0.96480  0.62401  0.74917  1.0000
  H   H947      1.0  0.81800  0.60634  0.64679  1.0000
  H   H948      1.0  0.72412  0.56960  0.62682  1.0000
  H   H949      1.0  0.63324  0.92015  0.58339  1.0000
  C   C598      1.0  0.67600  0.93806  0.64550  1.0000
  H   H950      1.0  0.00858  0.96883  0.62642  1.0000
  C   C599      1.0  0.00432  0.60520  0.66248  1.0000
  C   C600      1.0  0.00938  0.57613  0.74137  1.0000
  H   H951      1.0  0.74468  0.00791  0.68142  1.0000
  H   H952      1.0  0.99306  0.98568  0.60330  1.0000
  H   H953      1.0  0.65351  0.98469  0.71165  1.0000
  H   H954      1.0  0.71619  0.00692  0.61214  1.0000
  N   N60       1.0  0.70224  0.99477  0.69964  1.0000
  H   H955      1.0  0.57403  0.00887  0.72393  1.0000
  C   C601      1.0  0.58552  0.00585  0.73853  1.0000
  H   H956      1.0  0.66108  0.96745  0.68707  1.0000
  H   H957      1.0  0.00460  0.60916  0.61114  1.0000
  C   C602      1.0  0.66627  0.98925  0.69695  1.0000
  H   H958      1.0  0.65447  0.01149  0.69005  1.0000
  H   H959      1.0  0.94090  0.56020  0.77000  1.0000
  S   S242      1.0  0.63584  0.65370  0.93263  1.0000
  Fe  Fe121     1.0  0.64138  0.62561  0.90358  1.0000
  S   S243      1.0  0.60115  0.61274  0.88090  1.0000
  Fe  Fe122     1.0  0.61574  0.88491  0.84900  1.0000
  S   S244      1.0  0.58961  0.90456  0.87631  1.0000
  S   S245      1.0  0.64912  0.83968  0.84871  1.0000
  Fe  Fe123     1.0  0.58511  0.93777  0.82069  1.0000
  S   S246      1.0  0.55791  0.96187  0.84639  1.0000
  S   S247      1.0  0.56924  0.94898  0.78848  1.0000
  Fe  Fe124     1.0  0.60525  0.95478  0.86377  1.0000
  Fe  Fe125     1.0  0.54483  0.90983  0.85644  1.0000
  S   S248      1.0  0.63373  0.93480  0.83722  1.0000
  S   S249      1.0  0.57009  0.88588  0.83009  1.0000
  H   H960      1.0  0.62632  0.99466  0.79118  1.0000
  H   H961      1.0  0.84922  0.53120  0.87679  1.0000
  C   C603      1.0  0.58178  0.75081  0.86867  1.0000
  H   H962      1.0  0.61423  0.71837  0.89839  1.0000
  H   H963      1.0  0.73338  0.01276  0.85516  1.0000
  N   N61       1.0  0.58566  0.71437  0.87119  1.0000
  C   C604      1.0  0.55976  0.60323  0.88758  1.0000
  C   C605      1.0  0.53546  0.60377  0.87248  1.0000
  H   H964      1.0  0.97721  0.58385  0.77671  1.0000
  C   C606      1.0  0.55067  0.59459  0.90728  1.0000
  H   H965      1.0  0.54235  0.61029  0.85718  1.0000
  H   H966      1.0  0.76997  0.57706  0.98578  1.0000
  H   H967      1.0  0.56923  0.59395  0.91901  1.0000
  C   C607      1.0  0.65413  0.81387  0.87004  1.0000
  C   C608      1.0  0.63999  0.82183  0.88868  1.0000
  C   C609      1.0  0.64425  0.80043  0.90532  1.0000
  C   C610      1.0  0.71708  0.88110  0.90027  1.0000
  H   H968      1.0  0.62564  0.84430  0.89026  1.0000
  H   H969      1.0  0.73804  0.87957  0.88937  1.0000
  H   H970      1.0  0.57863  0.75789  0.85255  1.0000
  H   H971      1.0  0.63774  0.71548  0.86422  1.0000
  H   H972      1.0  0.73341  0.93983  0.91698  1.0000
  H   H973      1.0  0.56001  0.76019  0.87720  1.0000
  H   H974      1.0  0.60391  0.76455  0.87428  1.0000
  Fe  Fe126     1.0  0.67898  0.62342  0.94387  1.0000
  H   H975      1.0  0.55033  0.70261  0.84801  1.0000
  C   C611      1.0  0.97622  0.99286  0.81835  1.0000
  H   H976      1.0  0.76598  0.67274  0.00337  1.0000
  C   C612      1.0  0.67247  0.78441  0.86818  1.0000
  H   H977      1.0  0.61133  0.70872  0.84291  1.0000
  C   C613      1.0  0.55541  0.69699  0.86414  1.0000
  H   H978      1.0  0.53329  0.70429  0.87310  1.0000
  H   H979      1.0  0.51613  0.98525  0.81177  1.0000
  C   C614      1.0  0.66206  0.77064  0.90333  1.0000
  C   C615      1.0  0.61442  0.70307  0.85922  1.0000
  H   H980      1.0  0.74878  0.53542  0.93762  1.0000
  S   S250      1.0  0.66565  0.74372  0.92429  1.0000
  H   H981      1.0  0.72735  0.87821  0.91572  1.0000
  H   H982      1.0  0.61805  0.67563  0.86077  1.0000
  H   H983      1.0  0.55794  0.66945  0.86560  1.0000
  H   H984      1.0  0.63322  0.80664  0.91970  1.0000
  C   C616      1.0  0.67625  0.76274  0.88472  1.0000
  C   C617      1.0  0.66371  0.01157  0.88435  1.0000
  H   H985      1.0  0.70050  0.85922  0.89739  1.0000
  S   S251      1.0  0.67815  0.66209  0.89023  1.0000
  H   H986      1.0  0.51419  0.92445  0.81759  1.0000
  S   S252      1.0  0.68071  0.59165  0.91585  1.0000
  Fe  Fe127     1.0  0.67486  0.68839  0.91988  1.0000
  H   H987      1.0  0.99469  0.99850  0.77931  1.0000
  C   C618      1.0  0.59108  0.70649  0.89271  1.0000
  H   H988      1.0  0.68366  0.77823  0.85383  1.0000
  Fe  Fe128     1.0  0.71704  0.63006  0.90460  1.0000
  H   H989      1.0  0.76910  0.51967  0.85084  1.0000
  S   S253      1.0  0.76528  0.61700  0.88885  1.0000
  C   C619      1.0  0.75610  0.53922  0.95362  1.0000
  C   C620      1.0  0.67140  0.91399  0.91266  1.0000
  N   N62       1.0  0.78307  0.56430  0.95534  1.0000
  H   H990      1.0  0.74242  0.94235  0.89043  1.0000
  S   S254      1.0  0.71753  0.66019  0.93321  1.0000
  H   H991      1.0  0.79132  0.61611  0.94783  1.0000
  H   H992      1.0  0.73468  0.55365  0.90039  1.0000
  H   H993      1.0  0.67103  0.93836  0.87550  1.0000
  C   C621      1.0  0.68466  0.00514  0.86799  1.0000
  H   H994      1.0  0.82718  0.58907  0.87594  1.0000
  C   C622      1.0  0.70886  0.61191  0.99353  1.0000
  H   H995      1.0  0.59342  0.67914  0.89523  1.0000
  C   C623      1.0  0.72832  0.64061  0.99080  1.0000
  N   N63       1.0  0.69912  0.91292  0.89806  1.0000
  H   H996      1.0  0.95635  0.00356  0.80877  1.0000
  H   H997      1.0  0.65719  0.93766  0.91115  1.0000
  C   C624      1.0  0.82416  0.53600  0.88180  1.0000
  C   C625      1.0  0.81165  0.56873  0.88136  1.0000
  C   C626      1.0  0.77949  0.57541  0.88836  1.0000
  C   C627      1.0  0.75963  0.54900  0.89532  1.0000
  H   H998      1.0  0.70583  0.91572  0.86585  1.0000
  C   C628      1.0  0.61490  0.99764  0.77655  1.0000
  H   H999      1.0  0.66913  0.89383  0.87393  1.0000
  H   H1000     1.0  0.82129  0.52830  0.94958  1.0000
  H   H1001     1.0  0.65358  0.89300  0.91022  1.0000
  H   H1002     1.0  0.74958  0.60555  0.95514  1.0000
  H   H1003     1.0  0.57033  0.71532  0.90232  1.0000
  S   S255      1.0  0.68214  0.59717  0.97435  1.0000
  H   H1004     1.0  0.81155  0.58806  0.97871  1.0000
  C   C629      1.0  0.72201  0.94130  0.90177  1.0000
  H   H1005     1.0  0.75181  0.53702  0.82824  1.0000
  H   H1006     1.0  0.72619  0.65508  0.97710  1.0000
  H   H1007     1.0  0.70892  0.96560  0.90089  1.0000
  H   H1008     1.0  0.80071  0.54512  0.98363  1.0000
  C   C630      1.0  0.81248  0.55292  0.94401  1.0000
  H   H1009     1.0  0.79165  0.55100  0.83704  1.0000
  C   C631      1.0  0.75078  0.65068  0.00579  1.0000
  H   H1010     1.0  0.01069  0.96032  0.78960  1.0000
  H   H1011     1.0  0.88356  0.55052  0.78832  1.0000
  H   H1012     1.0  0.97229  0.96533  0.81905  1.0000
  C   C632      1.0  0.77525  0.52864  0.83535  1.0000
  H   H1013     1.0  0.81600  0.53694  0.80329  1.0000
  C   C633      1.0  0.68578  0.91531  0.87742  1.0000
  H   H1014     1.0  0.69046  0.74011  0.88313  1.0000
  H   H1015     1.0  0.68041  0.91245  0.92846  1.0000
  C   C634      1.0  0.79176  0.56879  0.97680  1.0000
  H   H1016     1.0  0.73347  0.54724  0.96193  1.0000
  C   C635      1.0  0.77176  0.59641  0.94693  1.0000
  C   C636      1.0  0.51756  0.58569  0.91168  1.0000
  S   S256      1.0  0.62425  0.99232  0.88656  1.0000
  H   H1017     1.0  0.83341  0.57111  0.94518  1.0000
  H   H1018     1.0  0.76475  0.59397  0.93079  1.0000
  C   C637      1.0  0.71171  0.59366  0.01160  1.0000
  H   H1019     1.0  0.67604  0.98987  0.85565  1.0000
  H   H1020     1.0  0.97273  0.00278  0.83392  1.0000
  H   H1021     1.0  0.69705  0.57114  0.01365  1.0000
  C   C638      1.0  0.88049  0.52609  0.78161  1.0000
  H   H1022     1.0  0.80697  0.55001  0.92769  1.0000
  C   C639      1.0  0.58698  0.97848  0.77157  1.0000
  H   H1023     1.0  0.77596  0.52288  0.79492  1.0000
  H   H1024     1.0  0.98032  0.53998  0.77125  1.0000
  N   N64       1.0  0.00951  0.00148  0.81042  1.0000
  C   C640      1.0  0.77217  0.51640  0.89592  1.0000
