data_image0
_chemical_formula_structural       FeS3CSFeHC2NFeCHC4H3FeHSHFeCH5SH4FeH4NH2C2HC2HC2NH3CH5CH4C2HCH2CSHNSH2CSHC2HCSCHC3FeH2CFeHSCH4CH3CHSNFeCH2SC5NH2CH7C2H3SH3CH5SC2H3CHFeH4SC2H3SHC2HC2S2NCSFeH2CH3CH3C2H2CSH3C2HCH8C3SCH3FeC3SCNHFeH2SCHCSCFeSNHSFeHCHC2HFeCHCH4CH2C2HS2HC2HCH4SHNH4CSH3SH2CH2CHS2H3CH2CHCHCH2C2H2C2HNH2S2FeCFeCHSC2SH2C3HCH2SH2CH2FeSC2HC2HCH2NHCH3FeH2CNCHNH6CHSC2SCH6C2HCH4C2HSCH2FeSFeCFeHNCSHCH2C3HCH3C4SFeSCH3S2H2FeHSH3C2H2CH3CH2CSHCH4CH2CH2FeH3CH2CHNHSCSCSC2HC2H3CFe2SCSH2SH4C2HSH5CHCHCNC2H2C2FeSH2CHCSHFeSHSFeSC4FeSNHFeCS2CFeSH9CHC2HCH2CH4CHC4HCH5C2HSH2CNC2HCH2C2H2SCHCHCH3CHCH4SH2CFe2NHFeHCH2SCSH2NC2HSC2NSHSHC2H2FeHCHSHCH3SC2H5FeS3H2SCFeC3HCHCH2C2NHC4H4CHC2H4CHCH3FeCH2SCHCH3SC2HNH2CH4SCH2C2HSHSH3FeC2HC2HSHC2H3NC2H6C2HFeS2CH2S2HC4HFeC2NSHCH6CSC2HSC2H2FeH4CFeS2CH2CHSH3CSFeHCH2CH2SH4C2SHNCFeC3H2CFeH2CH2FeC2H2NSCSCH8FeC2NH2CSH2C2H3CSH2CFeH2S2C2HCHFeS2HCFeHSFeS2FeC4H2NHC2SC2SH6C2H2FeH3NH2CHCHFeHCH5C4HCH2SHS3H3FeSH3CHCHC2NCHCFeC6S2HSH4C2HCH5CH2SH3CHCFeHFeH3SCH2CH2CHSCH2FeC2HSC2FeSNSH6C5H2C2HSH2C2NSHCHC4HCH2SCH3FeH4SH2SC2H3CH3FeNH2SC3S2Fe2SCFeH2SH4C2H3NHC2HCH2CH4C2H5CH2Fe2C2HC3SHC2SCH2C2H2SCSCHCHNSH6CSH5SCH2FeCSHCHSNHCHC2FeS2Fe2S2C5NC2H5SCH2CHSCH4C2H2SH4CH3CH2FeCH2C2H2SCHFeHS2FeH3CH2SC2HSHC2H4C2SC3H5CSH2FeHFeH5SCH3C2HSHNH2C2SHCNSCHFeHFeHSCFeS2FeSCFe2S3HC5H3CH2CSNCHCH3CH4CH5C2HCH2CH2C3HSH5CNCHC2HSC2H4CH3S2HS2CHCH2FeHCH2CHFeHCSCH2CH2Fe2C2H3CNHSHC2FeSC2Fe2S2CSCFeH3SCSHC2HC3HCH3SHCHCHC2H6CH2CNH2CHCH2NH5CHCH2S2HSFeHC2FeCNCH3C4S2HCH8C6NFeHFeH2NHFeS2H3CHCS2HCHCH2SHSFeSHSHFeC6H3C2H2CHCNH7CSHFeH2S2FeHCFeSH2CH3S2C2SHCH2C2HNH7CH3SCHC2HCSH3SC3FeHSCSH3FeC2SHC3H6C3FeCHSH2SCS3FeSFeC6H4SCHSFeNFeSCSH2CH4SH2CH3CHCNCNH4CH4CH5CH2CH2C2HCFeHCH2SCHC2NCHC4SCH2CH2FeH4CFeH3CH2CSCH4SCH3CNHCH2SC2H2SCH3FeHCSH5C2HC2H2FeCSHNHCHSCS4HC6H3CFeNHCFe2SFeH3SH4CSCH5FeNH2CH3CHCH2CH2CNH2CH7SCSCHNHCH4S2FeCFeHCHC2H2C2HCHCSC2FeSFeS3C6H4FeH3CHS2H2CH4NHCHFeCH2CH2CH4NSHC2H4CH3CHSH2CH2C4H2SCHCHSFeH2CHSHCHCH2C2HCNCH2CH2
_chemical_formula_sum              "Fe128 S256 C640 H1024 N64"
_cell_length_a       47.5954
_cell_length_b       49.0559
_cell_length_c       26.2232
_cell_angle_alpha    89.6145
_cell_angle_beta     89.8598
_cell_angle_gamma    89.5194

_space_group_name_H-M_alt    "P 1"
_space_group_IT_number       1

loop_
  _space_group_symop_operation_xyz
  'x, y, z'

loop_
  _atom_site_type_symbol
  _atom_site_label
  _atom_site_symmetry_multiplicity
  _atom_site_fract_x
  _atom_site_fract_y
  _atom_site_fract_z
  _atom_site_occupancy
  Fe  Fe1       1.0  0.17762  0.23117  0.32708  1.0000
  S   S1        1.0  0.09714  0.11565  0.63373  1.0000
  S   S2        1.0  0.10700  0.19843  0.63465  1.0000
  S   S3        1.0  0.15750  0.26599  0.36876  1.0000
  C   C1        1.0  0.13827  0.23300  0.69305  1.0000
  S   S4        1.0  0.16491  0.18766  0.34017  1.0000
  Fe  Fe2       1.0  0.20001  0.28513  0.36458  1.0000
  H   H1        1.0  0.13753  0.24671  0.66060  1.0000
  C   C2        1.0  0.12008  0.07286  0.43600  1.0000
  C   C3        1.0  0.12539  0.20746  0.69019  1.0000
  N   N1        1.0  0.12094  0.09549  0.39846  1.0000
  Fe  Fe3       1.0  0.15157  0.28443  0.29131  1.0000
  C   C4        1.0  0.09430  0.11108  0.40095  1.0000
  H   H2        1.0  0.12383  0.14993  0.30363  1.0000
  C   C5        1.0  0.15890  0.17422  0.27946  1.0000
  C   C6        1.0  0.13602  0.15713  0.27159  1.0000
  C   C7        1.0  0.12463  0.08431  0.34659  1.0000
  C   C8        1.0  0.14460  0.11372  0.41038  1.0000
  H   H3        1.0  0.14242  0.12253  0.44925  1.0000
  H   H4        1.0  0.16510  0.10269  0.40877  1.0000
  H   H5        1.0  0.10294  0.25748  0.32678  1.0000
  Fe  Fe4       1.0  0.20964  0.26825  0.25606  1.0000
  H   H6        1.0  0.14582  0.13112  0.38291  1.0000
  S   S5        1.0  0.16790  0.24838  0.24979  1.0000
  H   H7        1.0  0.12509  0.10077  0.31718  1.0000
  Fe  Fe5       1.0  0.07084  0.10751  0.70368  1.0000
  C   C9        1.0  0.09445  0.23686  0.33438  1.0000
  H   H8        1.0  0.14453  0.07238  0.34322  1.0000
  H   H9        1.0  0.11252  0.22270  0.34102  1.0000
  H   H10       1.0  0.14002  0.06085  0.43610  1.0000
  H   H11       1.0  0.10703  0.07061  0.33621  1.0000
  H   H12       1.0  0.11649  0.08050  0.47545  1.0000
  S   S6        1.0  0.22113  0.24827  0.33047  1.0000
  H   H13       1.0  0.08212  0.23814  0.37041  1.0000
  H   H14       1.0  0.10273  0.05848  0.42758  1.0000
  H   H15       1.0  0.09071  0.11973  0.43963  1.0000
  H   H16       1.0  0.09393  0.12813  0.37274  1.0000
  Fe  Fe6       1.0  0.08319  0.15919  0.64334  1.0000
  H   H17       1.0  0.07617  0.09782  0.39234  1.0000
  H   H18       1.0  0.08168  0.18502  0.30840  1.0000
  H   H19       1.0  0.08657  0.05793  0.58178  1.0000
  H   H20       1.0  0.06775  0.24332  0.57779  1.0000
  N   N2        1.0  0.07690  0.22774  0.29155  1.0000
  H   H21       1.0  0.11751  0.16972  0.72993  1.0000
  H   H22       1.0  0.19314  0.19556  0.24372  1.0000
  C   C10       1.0  0.12670  0.18973  0.73214  1.0000
  C   C11       1.0  0.09422  0.22556  0.24484  1.0000
  H   H23       1.0  0.11222  0.21122  0.25030  1.0000
  C   C12       1.0  0.15212  0.24088  0.73783  1.0000
  C   C13       1.0  0.30368  0.29546  0.26383  1.0000
  H   H24       1.0  0.32878  0.29099  0.66844  1.0000
  C   C14       1.0  0.35102  0.29151  0.39002  1.0000
  C   C15       1.0  0.32663  0.27802  0.46685  1.0000
  N   N3        1.0  0.33531  0.26932  0.41528  1.0000
  H   H25       1.0  0.34522  0.28231  0.49117  1.0000
  H   H26       1.0  0.31584  0.25661  0.34551  1.0000
  H   H27       1.0  0.31345  0.29686  0.46524  1.0000
  C   C16       1.0  0.31009  0.26288  0.38497  1.0000
  H   H28       1.0  0.29788  0.24600  0.40258  1.0000
  H   H29       1.0  0.29570  0.28086  0.38187  1.0000
  H   H30       1.0  0.31419  0.26200  0.48664  1.0000
  H   H31       1.0  0.25990  0.28850  0.27941  1.0000
  H   H32       1.0  0.37009  0.29694  0.41214  1.0000
  C   C17       1.0  0.35361  0.24490  0.41939  1.0000
  H   H33       1.0  0.36065  0.23786  0.38111  1.0000
  H   H34       1.0  0.37284  0.24923  0.44214  1.0000
  H   H35       1.0  0.34257  0.22772  0.43847  1.0000
  H   H36       1.0  0.35803  0.28561  0.35105  1.0000
  C   C18       1.0  0.27657  0.28688  0.25158  1.0000
  C   C19       1.0  0.52011  0.05091  0.66263  1.0000
  H   H37       1.0  0.54540  0.29139  0.71380  1.0000
  C   C20       1.0  0.56008  0.11969  0.54141  1.0000
  H   H38       1.0  0.55801  0.28803  0.62369  1.0000
  H   H39       1.0  0.55212  0.12615  0.50475  1.0000
  C   C21       1.0  0.55745  0.08163  0.30619  1.0000
  S   S7        1.0  0.53803  0.16718  0.57740  1.0000
  H   H40       1.0  0.52614  0.17929  0.45921  1.0000
  N   N4        1.0  0.54569  0.16954  0.38725  1.0000
  S   S8        1.0  0.47063  0.25998  0.72826  1.0000
  H   H41       1.0  0.49850  0.05926  0.66777  1.0000
  H   H42       1.0  0.55263  0.20286  0.43863  1.0000
  C   C22       1.0  0.52528  0.18523  0.35610  1.0000
  S   S9        1.0  0.50837  0.18661  0.71425  1.0000
  H   H43       1.0  0.50381  0.18447  0.37296  1.0000
  C   C23       1.0  0.41795  0.29185  0.62285  1.0000
  C   C24       1.0  0.43257  0.28693  0.66835  1.0000
  H   H44       1.0  0.53133  0.20705  0.35279  1.0000
  C   C25       1.0  0.55518  0.13567  0.58446  1.0000
  S   S10       1.0  0.53483  0.23653  0.64534  1.0000
  C   C26       1.0  0.53694  0.14073  0.39007  1.0000
  H   H45       1.0  0.53577  0.13148  0.35149  1.0000
  C   C27       1.0  0.54678  0.18096  0.43927  1.0000
  C   C28       1.0  0.45154  0.26506  0.67190  1.0000
  C   C29       1.0  0.44096  0.25282  0.58454  1.0000
  Fe  Fe7       1.0  0.53917  0.19114  0.64986  1.0000
  H   H46       1.0  0.51595  0.13855  0.40838  1.0000
  H   H47       1.0  0.54086  0.07564  0.28055  1.0000
  C   C30       1.0  0.42230  0.27495  0.58074  1.0000
  Fe  Fe8       1.0  0.50777  0.23232  0.71490  1.0000
  H   H48       1.0  0.47024  0.23093  0.63265  1.0000
  S   S11       1.0  0.40508  0.28190  0.52296  1.0000
  C   C31       1.0  0.45573  0.24798  0.63001  1.0000
  H   H49       1.0  0.52402  0.17706  0.31660  1.0000
  H   H50       1.0  0.44433  0.23967  0.55209  1.0000
  H   H51       1.0  0.50687  0.28870  0.65058  1.0000
  H   H52       1.0  0.53313  0.06711  0.64469  1.0000
  C   C32       1.0  0.55831  0.07110  0.35597  1.0000
  H   H53       1.0  0.55208  0.12824  0.41269  1.0000
  H   H54       1.0  0.56249  0.17000  0.46342  1.0000
  H   H55       1.0  0.56035  0.13856  0.66588  1.0000
  C   C33       1.0  0.56483  0.12674  0.63219  1.0000
  H   H56       1.0  0.54543  0.08153  0.73345  1.0000
  S   S12       1.0  0.12686  0.16069  0.11867  1.0000
  N   N5        1.0  0.20415  0.23452  0.05491  1.0000
  Fe  Fe9       1.0  0.19623  0.26989  0.83681  1.0000
  C   C34       1.0  0.15299  0.22331  0.78008  1.0000
  H   H57       1.0  0.14103  0.18393  0.80941  1.0000
  H   H58       1.0  0.17695  0.18625  0.15571  1.0000
  S   S13       1.0  0.16742  0.23368  0.83860  1.0000
  C   C35       1.0  0.14144  0.16266  0.17996  1.0000
  C   C36       1.0  0.16570  0.17788  0.18789  1.0000
  C   C37       1.0  0.14031  0.19769  0.77701  1.0000
  C   C38       1.0  0.11282  0.28328  0.84146  1.0000
  C   C39       1.0  0.18758  0.24299  0.09998  1.0000
  N   N6        1.0  0.08629  0.26894  0.85264  1.0000
  H   H59       1.0  0.16486  0.23843  0.09532  1.0000
  H   H60       1.0  0.17788  0.19980  0.04115  1.0000
  C   C40       1.0  0.20044  0.20499  0.04650  1.0000
  H   H61       1.0  0.10162  0.10784  0.94502  1.0000
  H   H62       1.0  0.20819  0.19278  0.07962  1.0000
  H   H63       1.0  0.21212  0.19800  0.01209  1.0000
  H   H64       1.0  0.19491  0.23226  0.13514  1.0000
  H   H65       1.0  0.16169  0.26069  0.73977  1.0000
  H   H66       1.0  0.18961  0.26523  0.10717  1.0000
  H   H67       1.0  0.12904  0.27868  0.87085  1.0000
  C   C41       1.0  0.09132  0.23917  0.85376  1.0000
  C   C42       1.0  0.19445  0.24991  0.00947  1.0000
  H   H68       1.0  0.19708  0.27227  0.01458  1.0000
  H   H69       1.0  0.09069  0.27339  0.93370  1.0000
  H   H70       1.0  0.09812  0.23160  0.81580  1.0000
  S   S14       1.0  0.08838  0.08547  0.77245  1.0000
  H   H71       1.0  0.10806  0.23346  0.88153  1.0000
  H   H72       1.0  0.08172  0.21799  0.21209  1.0000
  H   H73       1.0  0.10988  0.13784  0.21601  1.0000
  C   C43       1.0  0.12759  0.15100  0.22184  1.0000
  H   H74       1.0  0.12179  0.27694  0.80412  1.0000
  H   H75       1.0  0.07288  0.10436  0.98863  1.0000
  H   H76       1.0  0.15715  0.29943  0.19223  1.0000
  H   H77       1.0  0.07077  0.30012  0.90290  1.0000
  H   H78       1.0  0.17190  0.24604  0.00138  1.0000
  S   S15       1.0  0.20472  0.29797  0.77065  1.0000
  C   C44       1.0  0.07245  0.13156  0.86907  1.0000
  C   C45       1.0  0.08073  0.11651  0.95563  1.0000
  H   H79       1.0  0.07192  0.22789  0.86445  1.0000
  H   H80       1.0  0.07345  0.26960  0.77421  1.0000
  H   H81       1.0  0.20669  0.24417  0.97481  1.0000
  C   C46       1.0  0.07537  0.27781  0.90269  1.0000
  H   H82       1.0  0.07737  0.07728  0.88648  1.0000
  Fe  Fe10      1.0  0.08336  0.14404  0.12789  1.0000
  H   H83       1.0  0.09326  0.12331  0.85674  1.0000
  H   H84       1.0  0.07528  0.15335  0.87912  1.0000
  H   H85       1.0  0.08399  0.13771  0.96907  1.0000
  H   H86       1.0  0.10302  0.24569  0.23361  1.0000
  S   S16       1.0  0.07760  0.09983  0.14519  1.0000
  C   C47       1.0  0.17465  0.18334  0.23767  1.0000
  C   C48       1.0  0.23421  0.24022  0.06375  1.0000
  H   H87       1.0  0.24735  0.23475  0.03011  1.0000
  H   H88       1.0  0.23765  0.26225  0.07127  1.0000
  H   H89       1.0  0.24242  0.22879  0.09748  1.0000
  S   S17       1.0  0.28617  0.28752  0.74453  1.0000
  H   H90       1.0  0.32616  0.26198  0.81436  1.0000
  C   C49       1.0  0.32530  0.29367  0.22786  1.0000
  C   C50       1.0  0.31976  0.28340  0.17933  1.0000
  H   H91       1.0  0.28849  0.26626  0.12987  1.0000
  C   C51       1.0  0.29265  0.27466  0.16709  1.0000
  C   C52       1.0  0.27106  0.27656  0.20314  1.0000
  S   S18       1.0  0.23695  0.26734  0.18671  1.0000
  S   S19       1.0  0.24156  0.26469  0.85803  1.0000
  N   N7        1.0  0.36698  0.27977  0.82386  1.0000
  C   C53       1.0  0.36684  0.27518  0.87967  1.0000
  S   S20       1.0  0.39064  0.28293  0.10698  1.0000
  Fe  Fe11      1.0  0.24962  0.29578  0.79678  1.0000
  H   H92       1.0  0.34526  0.27739  0.89577  1.0000
  H   H93       1.0  0.37455  0.25436  0.88973  1.0000
  C   C54       1.0  0.34800  0.26012  0.79929  1.0000
  H   H94       1.0  0.35511  0.23871  0.80568  1.0000
  H   H95       1.0  0.33636  0.28181  0.15146  1.0000
  H   H96       1.0  0.38040  0.29009  0.89976  1.0000
  C   C55       1.0  0.39581  0.27598  0.80376  1.0000
  H   H97       1.0  0.39648  0.27874  0.76158  1.0000
  H   H98       1.0  0.34677  0.26366  0.75732  1.0000
  H   H99       1.0  0.56406  0.19326  0.00211  1.0000
  C   C56       1.0  0.53873  0.22012  0.14136  1.0000
  C   C57       1.0  0.56252  0.11270  0.86281  1.0000
  H   H100      1.0  0.54808  0.11557  0.89427  1.0000
  H   H101      1.0  0.41066  0.29080  0.82065  1.0000
  C   C58       1.0  0.51067  0.22009  0.12599  1.0000
  S   S21       1.0  0.46043  0.24374  0.10389  1.0000
  H   H102      1.0  0.51108  0.07223  0.75574  1.0000
  H   H103      1.0  0.54765  0.20630  0.91624  1.0000
  H   H104      1.0  0.53926  0.18386  0.05043  1.0000
  C   C59       1.0  0.54298  0.08166  0.02692  1.0000
  C   C60       1.0  0.54857  0.05422  0.01613  1.0000
  H   H105      1.0  0.50876  0.15804  0.92972  1.0000
  C   C61       1.0  0.52617  0.20952  0.93222  1.0000
  H   H106      1.0  0.54182  0.05773  0.78523  1.0000
  H   H107      1.0  0.48813  0.18333  0.03072  1.0000
  H   H108      1.0  0.53141  0.09409  0.99983  1.0000
  H   H109      1.0  0.51111  0.20530  0.90086  1.0000
  H   H110      1.0  0.52403  0.23142  0.94244  1.0000
  H   H111      1.0  0.54509  0.15785  0.94746  1.0000
  H   H112      1.0  0.49438  0.28647  0.14727  1.0000
  H   H113      1.0  0.47624  0.19344  0.96845  1.0000
  C   C62       1.0  0.53261  0.06424  0.74808  1.0000
  C   C63       1.0  0.54237  0.19717  0.01636  1.0000
  C   C64       1.0  0.52352  0.16277  0.96125  1.0000
  S   S22       1.0  0.54754  0.12794  0.08296  1.0000
  C   C65       1.0  0.49274  0.19691  0.99758  1.0000
  H   H114      1.0  0.50124  0.20139  0.11315  1.0000
  H   H115      1.0  0.55083  0.20159  0.13874  1.0000
  H   H116      1.0  0.54428  0.28654  0.17581  1.0000
  Fe  Fe12      1.0  0.54654  0.19045  0.76372  1.0000
  C   C66       1.0  0.55272  0.09309  0.07222  1.0000
  C   C67       1.0  0.55102  0.24396  0.15929  1.0000
  C   C68       1.0  0.49482  0.24410  0.12726  1.0000
  S   S23       1.0  0.54334  0.23589  0.76994  1.0000
  C   C69       1.0  0.53502  0.26802  0.16162  1.0000
  N   N8        1.0  0.52117  0.19161  0.97682  1.0000
  H   H117      1.0  0.49044  0.21829  0.01124  1.0000
  Fe  Fe13      1.0  0.43712  0.28257  0.11978  1.0000
  H   H118      1.0  0.40411  0.25513  0.81206  1.0000
  H   H119      1.0  0.51890  0.14869  0.99362  1.0000
  S   S24       1.0  0.54920  0.16499  0.83529  1.0000
  C   C70       1.0  0.50684  0.26804  0.14557  1.0000
  H   H120      1.0  0.54123  0.21871  0.02935  1.0000
  C   C71       1.0  0.08277  0.05021  0.77965  1.0000
  S   S25       1.0  0.13132  0.48947  0.58933  1.0000
  C   C72       1.0  0.16902  0.36490  0.47087  1.0000
  Fe  Fe14      1.0  0.11155  0.50119  0.66408  1.0000
  S   S26       1.0  0.14706  0.40921  0.59783  1.0000
  N   N9        1.0  0.14045  0.35973  0.45133  1.0000
  H   H121      1.0  0.12962  0.33318  0.51376  1.0000
  S   S27       1.0  0.10471  0.45802  0.68867  1.0000
  Fe  Fe15      1.0  0.11999  0.44659  0.61059  1.0000
  H   H122      1.0  0.15653  0.35546  0.64051  1.0000
  C   C73       1.0  0.16049  0.37040  0.66972  1.0000
  H   H123      1.0  0.16166  0.43901  0.68733  1.0000
  C   C74       1.0  0.16275  0.41747  0.69632  1.0000
  C   C75       1.0  0.15777  0.39824  0.65845  1.0000
  H   H124      1.0  0.09669  0.36318  0.31644  1.0000
  Fe  Fe16      1.0  0.08705  0.49201  0.56009  1.0000
  C   C76       1.0  0.14161  0.33734  0.41384  1.0000
  H   H125      1.0  0.10012  0.34803  0.48080  1.0000
  C   C77       1.0  0.12189  0.35199  0.49423  1.0000
  H   H126      1.0  0.12060  0.36848  0.52325  1.0000
  H   H127      1.0  0.12042  0.33288  0.39807  1.0000
  H   H128      1.0  0.12834  0.40203  0.45379  1.0000
  H   H129      1.0  0.10755  0.38150  0.41218  1.0000
  C   C78       1.0  0.12927  0.38469  0.42656  1.0000
  H   H130      1.0  0.16892  0.38180  0.49905  1.0000
  H   H131      1.0  0.14246  0.39092  0.39346  1.0000
  C   C79       1.0  0.16720  0.36188  0.71951  1.0000
  C   C80       1.0  0.10914  0.50699  0.35124  1.0000
  H   H132      1.0  0.18373  0.37037  0.43941  1.0000
  S   S28       1.0  0.11151  0.30336  0.26478  1.0000
  S   S29       1.0  0.07710  0.44801  0.57545  1.0000
  H   H133      1.0  0.11566  0.49729  0.38792  1.0000
  C   C81       1.0  0.07705  0.37443  0.31447  1.0000
  C   C82       1.0  0.07268  0.39359  0.27520  1.0000
  H   H134      1.0  0.10578  0.45248  0.34241  1.0000
  C   C83       1.0  0.09814  0.46483  0.30947  1.0000
  H   H135      1.0  0.20771  0.37084  0.59057  1.0000
  H   H136      1.0  0.15553  0.34242  0.38102  1.0000
  H   H137      1.0  0.16839  0.34040  0.72856  1.0000
  H   H138      1.0  0.17793  0.34645  0.49007  1.0000
  S   S30       1.0  0.07766  0.51178  0.48442  1.0000
  H   H139      1.0  0.14995  0.31821  0.43140  1.0000
  N   N10       1.0  0.08668  0.49141  0.32609  1.0000
  H   H140      1.0  0.08195  0.45277  0.28944  1.0000
  H   H141      1.0  0.07025  0.47525  0.39647  1.0000
  H   H142      1.0  0.07265  0.41152  0.70846  1.0000
  H   H143      1.0  0.12808  0.50860  0.32648  1.0000
  C   C84       1.0  0.08771  0.54620  0.48407  1.0000
  S   S31       1.0  0.13094  0.52821  0.72308  1.0000
  H   H144      1.0  0.08893  0.39677  0.24731  1.0000
  H   H145      1.0  0.10550  0.54508  0.55957  1.0000
  H   H146      1.0  0.22241  0.35964  0.67978  1.0000
  S   S32       1.0  0.06804  0.50686  0.63331  1.0000
  H   H147      1.0  0.10217  0.52810  0.36014  1.0000
  H   H148      1.0  0.15873  0.54365  0.28676  1.0000
  C   C85       1.0  0.22337  0.38758  0.58980  1.0000
  H   H149      1.0  0.21196  0.40663  0.60062  1.0000
  H   H150      1.0  0.22360  0.39580  0.69000  1.0000
  C   C86       1.0  0.07623  0.50675  0.28119  1.0000
  H   H151      1.0  0.11606  0.46754  0.28254  1.0000
  S   S33       1.0  0.19236  0.30666  0.29010  1.0000
  S   S34       1.0  0.21505  0.30771  0.43331  1.0000
  H   H152      1.0  0.09324  0.51006  0.25287  1.0000
  H   H153      1.0  0.23076  0.39009  0.54975  1.0000
  H   H154      1.0  0.06788  0.52718  0.29202  1.0000
  C   C87       1.0  0.14457  0.54995  0.25662  1.0000
  H   H155      1.0  0.30796  0.30370  0.30103  1.0000
  H   H156      1.0  0.30981  0.38459  0.73074  1.0000
  C   C88       1.0  0.32454  0.31139  0.68212  1.0000
  H   H157      1.0  0.24748  0.33907  0.60627  1.0000
  C   C89       1.0  0.30445  0.31563  0.72032  1.0000
  H   H158      1.0  0.24323  0.32222  0.33919  1.0000
  C   C90       1.0  0.24576  0.32599  0.42072  1.0000
  H   H159      1.0  0.36589  0.36595  0.29060  1.0000
  H   H160      1.0  0.27902  0.35107  0.63504  1.0000
  C   C91       1.0  0.31401  0.36415  0.71726  1.0000
  C   C92       1.0  0.23615  0.37784  0.67714  1.0000
  H   H161      1.0  0.25345  0.37475  0.70502  1.0000
  H   H162      1.0  0.35440  0.33001  0.63148  1.0000
  C   C93       1.0  0.26113  0.33651  0.46135  1.0000
  C   C94       1.0  0.26191  0.35678  0.60822  1.0000
  H   H163      1.0  0.27182  0.35957  0.57012  1.0000
  N   N11       1.0  0.24704  0.38179  0.62478  1.0000
  H   H164      1.0  0.25628  0.42414  0.63667  1.0000
  H   H165      1.0  0.28503  0.40118  0.64937  1.0000
  S   S35       1.0  0.32860  0.36895  0.39014  1.0000
  S   S36       1.0  0.34863  0.33978  0.52742  1.0000
  Fe  Fe17      1.0  0.36720  0.37460  0.57059  1.0000
  C   C95       1.0  0.28624  0.35047  0.45205  1.0000
  Fe  Fe18      1.0  0.35671  0.36544  0.45828  1.0000
  C   C96       1.0  0.28002  0.34433  0.36134  1.0000
  H   H166      1.0  0.27533  0.40859  0.58494  1.0000
  S   S37       1.0  0.37115  0.40178  0.50159  1.0000
  C   C97       1.0  0.29593  0.35397  0.40206  1.0000
  C   C98       1.0  0.26671  0.40497  0.62389  1.0000
  S   S38       1.0  0.34686  0.38804  0.64389  1.0000
  H   H167      1.0  0.29798  0.35871  0.48343  1.0000
  H   H168      1.0  0.28726  0.34741  0.32260  1.0000
  C   C99       1.0  0.33292  0.36002  0.67696  1.0000
  C   C100      1.0  0.25512  0.33005  0.37069  1.0000
  C   C101      1.0  0.33888  0.33352  0.66076  1.0000
  H   H169      1.0  0.38830  0.35041  0.33709  1.0000
  C   C102      1.0  0.38829  0.36177  0.30035  1.0000
  H   H170      1.0  0.39696  0.34780  0.27083  1.0000
  H   H171      1.0  0.25379  0.33340  0.49995  1.0000
  S   S39       1.0  0.35897  0.30425  0.24488  1.0000
  H   H172      1.0  0.33790  0.31026  0.38582  1.0000
  H   H173      1.0  0.37030  0.40954  0.33671  1.0000
  C   C103      1.0  0.39293  0.40489  0.34358  1.0000
  H   H174      1.0  0.39432  0.39506  0.38175  1.0000
  H   H175      1.0  0.38151  0.40785  0.24440  1.0000
  Fe  Fe19      1.0  0.39331  0.32613  0.51916  1.0000
  S   S40       1.0  0.39975  0.34823  0.44556  1.0000
  C   C104      1.0  0.54548  0.31394  0.70874  1.0000
  C   C105      1.0  0.51006  0.35472  0.50816  1.0000
  H   H176      1.0  0.42949  0.30035  0.70046  1.0000
  C   C106      1.0  0.53264  0.39092  0.46090  1.0000
  C   C107      1.0  0.56515  0.52585  0.67235  1.0000
  H   H177      1.0  0.48163  0.46063  0.47192  1.0000
  C   C108      1.0  0.55532  0.31038  0.61878  1.0000
  H   H178      1.0  0.52280  0.44770  0.59044  1.0000
  H   H179      1.0  0.44400  0.36719  0.28560  1.0000
  N   N12       1.0  0.53583  0.32190  0.65715  1.0000
  H   H180      1.0  0.55664  0.36061  0.65919  1.0000
  C   C109      1.0  0.53462  0.36782  0.49226  1.0000
  H   H181      1.0  0.49874  0.31745  0.61091  1.0000
  H   H182      1.0  0.52898  0.35853  0.61334  1.0000
  H   H183      1.0  0.40313  0.30858  0.62051  1.0000
  Fe  Fe20      1.0  0.41397  0.38288  0.49350  1.0000
  H   H184      1.0  0.47067  0.49443  0.48950  1.0000
  H   H185      1.0  0.43613  0.36928  0.35267  1.0000
  C   C110      1.0  0.40341  0.40155  0.25382  1.0000
  N   N13       1.0  0.49972  0.47522  0.54156  1.0000
  C   C111      1.0  0.50628  0.40222  0.44906  1.0000
  H   H186      1.0  0.40445  0.42447  0.34600  1.0000
  N   N14       1.0  0.40475  0.38713  0.30342  1.0000
  H   H187      1.0  0.50927  0.49435  0.61293  1.0000
  H   H188      1.0  0.53121  0.47390  0.48252  1.0000
  H   H189      1.0  0.49217  0.31874  0.67830  1.0000
  H   H190      1.0  0.55188  0.51927  0.70361  1.0000
  H   H191      1.0  0.41677  0.42007  0.25362  1.0000
  H   H192      1.0  0.54765  0.31404  0.57932  1.0000
  C   C112      1.0  0.50720  0.31132  0.64881  1.0000
  H   H193      1.0  0.45704  0.46513  0.52278  1.0000
  S   S41       1.0  0.41174  0.35926  0.56706  1.0000
  C   C113      1.0  0.47623  0.47390  0.50489  1.0000
  C   C114      1.0  0.43434  0.38032  0.31555  1.0000
  S   S42       1.0  0.44955  0.40761  0.46188  1.0000
  C   C115      1.0  0.49181  0.49292  0.58477  1.0000
  H   H194      1.0  0.48724  0.43774  0.57801  1.0000
  H   H195      1.0  0.46485  0.35657  0.51103  1.0000
  H   H196      1.0  0.54299  0.48750  0.54213  1.0000
  H   H197      1.0  0.51371  0.43399  0.52992  1.0000
  H   H198      1.0  0.55147  0.40013  0.44582  1.0000
  H   H199      1.0  0.44739  0.39897  0.31841  1.0000
  C   C116      1.0  0.48368  0.36623  0.49700  1.0000
  C   C117      1.0  0.52475  0.48653  0.51573  1.0000
  H   H200      1.0  0.52076  0.50760  0.50127  1.0000
  C   C118      1.0  0.50612  0.44747  0.56089  1.0000
  H   H201      1.0  0.47312  0.48492  0.60542  1.0000
  H   H202      1.0  0.51136  0.33622  0.53047  1.0000
  H   H203      1.0  0.52058  0.36137  0.68000  1.0000
  H   H204      1.0  0.50493  0.42047  0.42581  1.0000
  C   C119      1.0  0.48185  0.39055  0.46902  1.0000
  C   C120      1.0  0.53544  0.35194  0.65234  1.0000
  H   H205      1.0  0.48679  0.51403  0.57170  1.0000
  S   S43       1.0  0.14004  0.46020  0.08228  1.0000
  C   C121      1.0  0.14083  0.43107  0.89355  1.0000
  H   H206      1.0  0.09624  0.37781  0.14480  1.0000
  H   H207      1.0  0.15777  0.40446  0.97837  1.0000
  Fe  Fe21      1.0  0.12549  0.41900  0.10705  1.0000
  S   S44       1.0  0.14687  0.38015  0.08445  1.0000
  Fe  Fe22      1.0  0.20050  0.33104  0.82898  1.0000
  C   C122      1.0  0.14364  0.31627  0.18145  1.0000
  Fe  Fe23      1.0  0.13002  0.47312  0.16234  1.0000
  H   H208      1.0  0.16070  0.38222  0.92439  1.0000
  N   N15       1.0  0.12534  0.40985  0.92205  1.0000
  C   C123      1.0  0.09570  0.52302  0.99895  1.0000
  S   S45       1.0  0.12102  0.43072  0.18908  1.0000
  H   H209      1.0  0.11970  0.52897  0.14261  1.0000
  C   C124      1.0  0.10935  0.39295  0.88602  1.0000
  H   H210      1.0  0.12339  0.38308  0.85747  1.0000
  H   H211      1.0  0.17276  0.42406  0.77514  1.0000
  C   C125      1.0  0.13459  0.35589  0.12818  1.0000
  C   C126      1.0  0.11643  0.52864  0.03489  1.0000
  C   C127      1.0  0.14547  0.39242  0.95049  1.0000
  H   H212      1.0  0.12364  0.51292  0.06050  1.0000
  C   C128      1.0  0.15108  0.33306  0.14019  1.0000
  H   H213      1.0  0.17009  0.32908  0.11901  1.0000
  H   H214      1.0  0.13452  0.37616  0.97250  1.0000
  H   H215      1.0  0.08262  0.37570  0.77294  1.0000
  C   C129      1.0  0.10131  0.34308  0.19413  1.0000
  C   C130      1.0  0.10569  0.42289  0.95830  1.0000
  C   C131      1.0  0.10936  0.36051  0.15434  1.0000
  C   C132      1.0  0.08669  0.54369  0.96559  1.0000
  S   S46       1.0  0.17865  0.37141  0.82063  1.0000
  Fe  Fe24      1.0  0.09411  0.46806  0.06820  1.0000
  S   S47       1.0  0.08489  0.48360  0.14678  1.0000
  C   C133      1.0  0.12232  0.54148  0.17569  1.0000
  H   H216      1.0  0.09354  0.40527  0.86459  1.0000
  H   H217      1.0  0.09784  0.37643  0.90626  1.0000
  H   H218      1.0  0.12635  0.44431  0.87097  1.0000
  S   S48       1.0  0.08114  0.49019  0.99632  1.0000
  S   S49       1.0  0.08017  0.42563  0.08729  1.0000
  H   H219      1.0  0.15280  0.44442  0.91977  1.0000
  H   H220      1.0  0.15619  0.42180  0.86649  1.0000
  Fe  Fe25      1.0  0.07647  0.44017  0.16804  1.0000
  H   H221      1.0  0.11701  0.43587  0.98602  1.0000
  S   S50       1.0  0.15547  0.50026  0.21304  1.0000
  H   H222      1.0  0.09012  0.43625  0.93848  1.0000
  H   H223      1.0  0.09377  0.40740  0.98053  1.0000
  H   H224      1.0  0.10548  0.50455  0.81764  1.0000
  C   C134      1.0  0.14050  0.53308  0.21448  1.0000
  C   C135      1.0  0.08830  0.51019  0.84461  1.0000
  H   H225      1.0  0.08860  0.53278  0.84839  1.0000
  H   H226      1.0  0.09357  0.50140  0.88270  1.0000
  C   C136      1.0  0.17131  0.38122  0.75773  1.0000
  H   H227      1.0  0.21685  0.31644  0.13983  1.0000
  H   H228      1.0  0.20308  0.36176  0.17182  1.0000
  H   H229      1.0  0.20584  0.37541  0.10845  1.0000
  C   C137      1.0  0.21797  0.37090  0.14381  1.0000
  H   H230      1.0  0.22498  0.39071  0.15954  1.0000
  H   H231      1.0  0.22019  0.32976  0.07594  1.0000
  C   C138      1.0  0.23149  0.32653  0.11266  1.0000
  S   S51       1.0  0.18862  0.30323  0.89347  1.0000
  H   H232      1.0  0.07184  0.50742  0.74797  1.0000
  C   C139      1.0  0.16920  0.40900  0.74597  1.0000
  H   H233      1.0  0.07036  0.53977  0.93831  1.0000
  H   H234      1.0  0.08202  0.34690  0.21483  1.0000
  H   H235      1.0  0.10963  0.30580  0.84018  1.0000
  H   H236      1.0  0.07714  0.46347  0.79526  1.0000
  C   C140      1.0  0.11905  0.32173  0.20916  1.0000
  H   H237      1.0  0.29280  0.30170  0.06920  1.0000
  H   H238      1.0  0.24403  0.33625  0.20978  1.0000
  C   C141      1.0  0.30292  0.30865  0.03477  1.0000
  H   H239      1.0  0.29058  0.31847  0.90864  1.0000
  H   H240      1.0  0.25021  0.36883  0.05859  1.0000
  Fe  Fe26      1.0  0.38888  0.30744  0.17890  1.0000
  H   H241      1.0  0.28465  0.34531  0.76903  1.0000
  H   H242      1.0  0.27966  0.35217  0.08800  1.0000
  H   H243      1.0  0.24894  0.31186  0.10536  1.0000
  C   C142      1.0  0.26098  0.36531  0.09577  1.0000
  H   H244      1.0  0.26877  0.38527  0.10949  1.0000
  H   H245      1.0  0.26507  0.36605  0.19890  1.0000
  C   C143      1.0  0.25748  0.34692  0.18124  1.0000
  H   H246      1.0  0.27620  0.33364  0.17438  1.0000
  N   N16       1.0  0.24200  0.35244  0.13340  1.0000
  H   H247      1.0  0.33971  0.33411  0.91167  1.0000
  S   S52       1.0  0.24614  0.33164  0.84883  1.0000
  C   C144      1.0  0.34445  0.32574  0.99176  1.0000
  S   S53       1.0  0.37992  0.33503  0.99271  1.0000
  C   C145      1.0  0.32954  0.32682  0.94596  1.0000
  S   S54       1.0  0.39225  0.34774  0.13883  1.0000
  C   C146      1.0  0.30154  0.31826  0.94437  1.0000
  C   C147      1.0  0.33111  0.31669  0.03625  1.0000
  H   H248      1.0  0.34241  0.31603  0.07193  1.0000
  C   C148      1.0  0.28797  0.30957  0.98891  1.0000
  C   C149      1.0  0.35718  0.30784  0.81257  1.0000
  H   H249      1.0  0.33487  0.31090  0.82449  1.0000
  H   H250      1.0  0.37009  0.32325  0.83256  1.0000
  H   H251      1.0  0.35837  0.31247  0.77103  1.0000
  C   C150      1.0  0.29965  0.34195  0.73877  1.0000
  Fe  Fe27      1.0  0.39842  0.32302  0.06821  1.0000
  Fe  Fe28      1.0  0.23487  0.30071  0.90846  1.0000
  S   S55       1.0  0.25228  0.30050  0.98818  1.0000
  C   C151      1.0  0.54460  0.37366  0.08616  1.0000
  S   S56       1.0  0.43488  0.30344  0.19559  1.0000
  H   H252      1.0  0.41101  0.38827  0.22240  1.0000
  H   H253      1.0  0.53478  0.54419  0.92896  1.0000
  S   S57       1.0  0.44516  0.32075  0.07503  1.0000
  H   H254      1.0  0.48719  0.42888  0.04510  1.0000
  H   H255      1.0  0.46579  0.40257  0.91783  1.0000
  H   H256      1.0  0.46113  0.41009  0.07981  1.0000
  H   H257      1.0  0.41773  0.40583  0.99536  1.0000
  C   C152      1.0  0.51127  0.39964  0.13689  1.0000
  C   C153      1.0  0.46765  0.41632  0.95122  1.0000
  H   H258      1.0  0.42976  0.37873  0.03619  1.0000
  S   S58       1.0  0.55198  0.50496  0.09899  1.0000
  H   H259      1.0  0.54582  0.41725  0.09596  1.0000
  H   H260      1.0  0.45223  0.43330  0.94603  1.0000
  H   H261      1.0  0.50561  0.38725  0.00510  1.0000
  H   H262      1.0  0.56156  0.50097  0.93884  1.0000
  H   H263      1.0  0.49483  0.33247  0.13765  1.0000
  C   C154      1.0  0.46554  0.42046  0.04279  1.0000
  H   H264      1.0  0.43139  0.37483  0.96846  1.0000
  C   C155      1.0  0.54869  0.53745  0.89881  1.0000
  H   H265      1.0  0.48229  0.36439  0.97306  1.0000
  C   C156      1.0  0.56383  0.51292  0.90437  1.0000
  N   N17       1.0  0.46276  0.40146  0.99961  1.0000
  C   C157      1.0  0.43420  0.38977  0.99981  1.0000
  C   C158      1.0  0.53522  0.39859  0.10583  1.0000
  H   H266      1.0  0.48908  0.42534  0.95015  1.0000
  H   H267      1.0  0.53750  0.33033  0.08347  1.0000
  C   C159      1.0  0.49629  0.37585  0.14711  1.0000
  C   C160      1.0  0.53043  0.34967  0.09868  1.0000
  Fe  Fe29      1.0  0.43845  0.34184  0.14978  1.0000
  S   S59       1.0  0.56132  0.44876  0.99476  1.0000
  H   H268      1.0  0.53169  0.32269  0.73890  1.0000
  H   H269      1.0  0.45063  0.43796  0.03946  1.0000
  C   C161      1.0  0.50626  0.35082  0.12916  1.0000
  H   H270      1.0  0.48068  0.36772  0.04089  1.0000
  C   C162      1.0  0.48376  0.37926  0.00476  1.0000
  S   S60       1.0  0.46306  0.37794  0.17528  1.0000
  H   H271      1.0  0.50361  0.41906  0.15078  1.0000
  Fe  Fe30      1.0  0.14762  0.68160  0.31933  1.0000
  S   S61       1.0  0.19133  0.69482  0.29906  1.0000
  H   H272      1.0  0.13162  0.58676  0.29455  1.0000
  S   S62       1.0  0.14168  0.63758  0.33891  1.0000
  Fe  Fe31      1.0  0.08569  0.69553  0.33211  1.0000
  S   S63       1.0  0.15451  0.75349  0.65258  1.0000
  C   C163      1.0  0.09151  0.58957  0.43926  1.0000
  C   C164      1.0  0.10529  0.60081  0.48113  1.0000
  C   C165      1.0  0.13602  0.62372  0.67535  1.0000
  C   C166      1.0  0.12084  0.65232  0.60527  1.0000
  Fe  Fe32      1.0  0.18978  0.78350  0.64643  1.0000
  S   S64       1.0  0.11169  0.68350  0.26456  1.0000
  N   N18       1.0  0.12751  0.65169  0.66029  1.0000
  H   H273      1.0  0.12087  0.59320  0.55707  1.0000
  Fe  Fe33      1.0  0.10343  0.64072  0.28972  1.0000
  C   C167      1.0  0.11010  0.58473  0.52467  1.0000
  S   S65       1.0  0.12258  0.69738  0.38545  1.0000
  S   S66       1.0  0.11644  0.63491  0.47958  1.0000
  C   C168      1.0  0.10242  0.65998  0.68988  1.0000
  Fe  Fe34      1.0  0.11340  0.65317  0.40081  1.0000
  S   S67       1.0  0.07432  0.65255  0.35313  1.0000
  H   H274      1.0  0.13918  0.64581  0.58172  1.0000
  H   H275      1.0  0.13993  0.62209  0.71714  1.0000
  H   H276      1.0  0.10318  0.63846  0.59592  1.0000
  H   H277      1.0  0.11943  0.60877  0.66584  1.0000
  H   H278      1.0  0.09523  0.68087  0.67915  1.0000
  H   H279      1.0  0.08457  0.64587  0.68355  1.0000
  H   H280      1.0  0.10673  0.65988  0.73165  1.0000
  H   H281      1.0  0.11152  0.72732  0.71276  1.0000
  H   H282      1.0  0.11465  0.67314  0.59209  1.0000
  C   C169      1.0  0.15071  0.67072  0.67057  1.0000
  H   H283      1.0  0.08762  0.60182  0.40564  1.0000
  C   C170      1.0  0.08240  0.56246  0.44102  1.0000
  C   C171      1.0  0.19206  0.72347  0.25891  1.0000
  H   H284      1.0  0.09096  0.78351  0.33484  1.0000
  C   C172      1.0  0.21258  0.76310  0.36611  1.0000
  H   H285      1.0  0.21555  0.77177  0.32709  1.0000
  H   H286      1.0  0.20014  0.77811  0.38861  1.0000
  C   C173      1.0  0.08908  0.56712  0.71240  1.0000
  H   H287      1.0  0.15570  0.67155  0.71202  1.0000
  H   H288      1.0  0.19956  0.74446  0.36218  1.0000
  H   H289      1.0  0.14530  0.69183  0.65786  1.0000
  H   H290      1.0  0.17022  0.66468  0.64992  1.0000
  C   C174      1.0  0.15389  0.74223  0.71613  1.0000
  H   H291      1.0  0.15547  0.61708  0.65514  1.0000
  C   C175      1.0  0.07357  0.58992  0.72902  1.0000
  C   C176      1.0  0.07763  0.79873  0.31421  1.0000
  C   C177      1.0  0.10144  0.55742  0.52606  1.0000
  C   C178      1.0  0.21795  0.73307  0.24139  1.0000
  H   H292      1.0  0.08414  0.55784  0.67634  1.0000
  C   C179      1.0  0.12931  0.57446  0.26094  1.0000
  H   H293      1.0  0.07104  0.55423  0.40911  1.0000
  H   H294      1.0  0.22289  0.75921  0.46671  1.0000
  H   H295      1.0  0.22265  0.72561  0.43946  1.0000
  H   H296      1.0  0.19649  0.75427  0.73130  1.0000
  H   H297      1.0  0.14730  0.73042  0.26008  1.0000
  C   C180      1.0  0.16730  0.73738  0.24586  1.0000
  C   C181      1.0  0.12969  0.73035  0.73667  1.0000
  H   H298      1.0  0.24490  0.79721  0.41962  1.0000
  S   S68       1.0  0.23469  0.76976  0.64478  1.0000
  H   H299      1.0  0.26033  0.79151  0.35786  1.0000
  H   H300      1.0  0.36962  0.78308  0.50186  1.0000
  C   C182      1.0  0.30244  0.79320  0.54340  1.0000
  N   N19       1.0  0.23981  0.75675  0.39068  1.0000
  C   C183      1.0  0.25619  0.78201  0.39571  1.0000
  C   C184      1.0  0.32529  0.79186  0.50969  1.0000
  H   H301      1.0  0.24351  0.71815  0.35267  1.0000
  C   C185      1.0  0.35201  0.78425  0.52776  1.0000
  H   H302      1.0  0.26079  0.74601  0.32091  1.0000
  H   H303      1.0  0.27604  0.73129  0.37714  1.0000
  C   C186      1.0  0.25572  0.73713  0.35902  1.0000
  C   C187      1.0  0.23483  0.74485  0.44184  1.0000
  H   H304      1.0  0.25498  0.74018  0.46173  1.0000
  H   H305      1.0  0.36366  0.73459  0.68192  1.0000
  S   S69       1.0  0.38884  0.76721  0.60205  1.0000
  C   C188      1.0  0.35922  0.73187  0.72335  1.0000
  H   H306      1.0  0.37701  0.78360  0.70224  1.0000
  C   C189      1.0  0.35581  0.79529  0.37096  1.0000
  H   H307      1.0  0.23708  0.72211  0.25072  1.0000
  C   C190      1.0  0.35574  0.77731  0.57912  1.0000
  H   H308      1.0  0.36293  0.70998  0.73271  1.0000
  H   H309      1.0  0.27696  0.77788  0.41387  1.0000
  H   H310      1.0  0.39381  0.77945  0.28140  1.0000
  C   C191      1.0  0.30644  0.78682  0.59490  1.0000
  H   H311      1.0  0.34696  0.77695  0.38736  1.0000
  C   C192      1.0  0.33287  0.77853  0.61257  1.0000
  H   H312      1.0  0.33541  0.77338  0.65229  1.0000
  H   H313      1.0  0.28917  0.78809  0.62141  1.0000
  H   H314      1.0  0.38918  0.79739  0.42572  1.0000
  H   H315      1.0  0.33648  0.73635  0.72946  1.0000
  S   S70       1.0  0.31315  0.79286  0.30203  1.0000
  H   H316      1.0  0.32247  0.79652  0.46975  1.0000
  H   H317      1.0  0.56496  0.56789  0.69525  1.0000
  C   C193      1.0  0.40231  0.78710  0.24442  1.0000
  Fe  Fe35      1.0  0.48024  0.78000  0.50445  1.0000
  Fe  Fe36      1.0  0.54998  0.66451  0.72905  1.0000
  N   N20       1.0  0.43337  0.78754  0.24453  1.0000
  H   H318      1.0  0.55632  0.79181  0.69642  1.0000
  Fe  Fe37      1.0  0.42309  0.78595  0.55521  1.0000
  H   H319      1.0  0.41205  0.74682  0.70259  1.0000
  C   C194      1.0  0.55204  0.64034  0.52820  1.0000
  H   H320      1.0  0.53768  0.62254  0.52755  1.0000
  H   H321      1.0  0.43697  0.75059  0.28883  1.0000
  S   S71       1.0  0.43627  0.77640  0.47496  1.0000
  C   C195      1.0  0.49195  0.71386  0.36299  1.0000
  S   S72       1.0  0.52478  0.70073  0.70415  1.0000
  H   H322      1.0  0.50414  0.68938  0.49585  1.0000
  H   H323      1.0  0.53507  0.66257  0.61633  1.0000
  N   N21       1.0  0.53639  0.66629  0.53456  1.0000
  C   C196      1.0  0.49193  0.73020  0.40676  1.0000
  C   C197      1.0  0.54080  0.75503  0.62686  1.0000
  H   H324      1.0  0.46779  0.75907  0.25280  1.0000
  S   S73       1.0  0.54008  0.62086  0.71343  1.0000
  C   C198      1.0  0.54280  0.72901  0.40750  1.0000
  C   C199      1.0  0.54280  0.71326  0.36325  1.0000
  N   N22       1.0  0.55800  0.77953  0.61799  1.0000
  S   S74       1.0  0.51781  0.68063  0.29322  1.0000
  H   H325      1.0  0.56250  0.70733  0.34584  1.0000
  S   S75       1.0  0.46682  0.78462  0.58565  1.0000
  H   H326      1.0  0.56253  0.73465  0.42475  1.0000
  C   C200      1.0  0.44438  0.75951  0.25205  1.0000
  C   C201      1.0  0.51739  0.73721  0.42961  1.0000
  H   H327      1.0  0.52767  0.67136  0.45445  1.0000
  H   H328      1.0  0.55407  0.73726  0.63837  1.0000
  Fe  Fe38      1.0  0.55673  0.65515  0.30428  1.0000
  H   H329      1.0  0.52491  0.75843  0.65738  1.0000
  C   C202      1.0  0.51652  0.67013  0.49178  1.0000
  H   H330      1.0  0.50896  0.68502  0.58986  1.0000
  S   S76       1.0  0.55968  0.60979  0.29392  1.0000
  H   H331      1.0  0.47230  0.70723  0.34675  1.0000
  C   C203      1.0  0.52070  0.66560  0.58327  1.0000
  H   H332      1.0  0.50524  0.64871  0.58421  1.0000
  H   H333      1.0  0.47225  0.73623  0.42407  1.0000
  H   H334      1.0  0.54512  0.70906  0.53898  1.0000
  S   S77       1.0  0.51817  0.75410  0.48808  1.0000
  C   C204      1.0  0.51743  0.70479  0.34208  1.0000
  C   C205      1.0  0.55634  0.68921  0.53516  1.0000
  H   H335      1.0  0.50139  0.65301  0.48946  1.0000
  H   H336      1.0  0.52904  0.74926  0.59215  1.0000
  H   H337      1.0  0.52936  0.79751  0.56389  1.0000
  H   H338      1.0  0.43604  0.79717  0.32437  1.0000
  H   H339      1.0  0.56408  0.64002  0.49182  1.0000
  Fe  Fe39      1.0  0.11763  0.69275  0.90715  1.0000
  S   S78       1.0  0.14953  0.72413  0.88619  1.0000
  S   S79       1.0  0.13235  0.60837  0.01223  1.0000
  S   S80       1.0  0.12405  0.64941  0.88412  1.0000
  H   H340      1.0  0.12316  0.63469  0.14283  1.0000
  H   H341      1.0  0.16514  0.66080  0.21977  1.0000
  S   S81       1.0  0.10849  0.68274  0.98885  1.0000
  C   C206      1.0  0.11863  0.57551  0.00545  1.0000
  Fe  Fe40      1.0  0.11009  0.63927  0.96351  1.0000
  C   C207      1.0  0.10731  0.56602  0.17962  1.0000
  C   C208      1.0  0.15172  0.72869  0.82009  1.0000
  C   C209      1.0  0.17613  0.73973  0.79914  1.0000
  H   H342      1.0  0.13538  0.66931  0.14448  1.0000
  C   C210      1.0  0.12872  0.72328  0.78861  1.0000
  H   H343      1.0  0.19414  0.74351  0.82316  1.0000
  C   C211      1.0  0.19446  0.77084  0.19873  1.0000
  H   H344      1.0  0.10984  0.71466  0.80460  1.0000
  H   H345      1.0  0.15126  0.62690  0.22234  1.0000
  C   C212      1.0  0.10213  0.59202  0.80494  1.0000
  C   C213      1.0  0.16822  0.63964  0.20570  1.0000
  N   N23       1.0  0.16794  0.63871  0.14939  1.0000
  H   H346      1.0  0.10688  0.60093  0.84131  1.0000
  C   C214      1.0  0.14038  0.64847  0.13044  1.0000
  C   C215      1.0  0.08020  0.60255  0.77521  1.0000
  C   C216      1.0  0.17279  0.61036  0.13249  1.0000
  C   C217      1.0  0.19031  0.65645  0.12896  1.0000
  H   H347      1.0  0.09159  0.58557  0.94221  1.0000
  H   H348      1.0  0.18852  0.63207  0.22153  1.0000
  H   H349      1.0  0.18723  0.67799  0.14125  1.0000
  H   H350      1.0  0.09316  0.57219  0.14932  1.0000
  C   C218      1.0  0.17733  0.74615  0.74715  1.0000
  H   H351      1.0  0.13989  0.64916  0.08801  1.0000
  C   C219      1.0  0.11796  0.56963  0.78790  1.0000
  C   C220      1.0  0.09835  0.56984  0.96849  1.0000
  H   H352      1.0  0.19058  0.65631  0.08645  1.0000
  H   H353      1.0  0.17343  0.60901  0.09015  1.0000
  H   H354      1.0  0.21141  0.64968  0.14243  1.0000
  H   H355      1.0  0.14935  0.77168  0.20508  1.0000
  C   C221      1.0  0.16848  0.76084  0.21505  1.0000
  H   H356      1.0  0.15570  0.59664  0.14579  1.0000
  C   C222      1.0  0.11052  0.58241  0.22252  1.0000
  H   H357      1.0  0.19296  0.60195  0.14734  1.0000
  H   H358      1.0  0.12110  0.77612  0.86954  1.0000
  H   H359      1.0  0.12496  0.78240  0.80235  1.0000
  Fe  Fe41      1.0  0.07794  0.65025  0.86696  1.0000
  C   C223      1.0  0.21921  0.75703  0.21216  1.0000
  H   H360      1.0  0.13506  0.56180  0.81104  1.0000
  H   H361      1.0  0.09697  0.79868  0.83749  1.0000
  S   S82       1.0  0.09102  0.61280  0.22654  1.0000
  C   C224      1.0  0.11136  0.55698  0.74186  1.0000
  H   H362      1.0  0.07539  0.66856  0.16262  1.0000
  C   C225      1.0  0.11938  0.79212  0.83931  1.0000
  H   H363      1.0  0.17437  0.79664  0.81615  1.0000
  H   H364      1.0  0.17010  0.78961  0.88276  1.0000
  H   H365      1.0  0.14360  0.55895  0.06676  1.0000
  S   S83       1.0  0.07253  0.69493  0.88332  1.0000
  C   C226      1.0  0.12784  0.55477  0.03827  1.0000
  C   C227      1.0  0.37100  0.77860  0.74215  1.0000
  H   H366      1.0  0.34823  0.78342  0.74634  1.0000
  N   N24       1.0  0.37709  0.74971  0.75459  1.0000
  H   H367      1.0  0.23932  0.76462  0.19939  1.0000
  H   H368      1.0  0.37655  0.72334  0.82052  1.0000
  C   C228      1.0  0.37120  0.74469  0.80920  1.0000
  H   H369      1.0  0.34865  0.74832  0.81836  1.0000
  H   H370      1.0  0.38383  0.75825  0.83392  1.0000
  H   H371      1.0  0.30725  0.77834  0.85089  1.0000
  H   H372      1.0  0.38277  0.79259  0.76740  1.0000
  S   S84       1.0  0.26354  0.78859  0.77898  1.0000
  C   C229      1.0  0.31218  0.79701  0.83066  1.0000
  H   H373      1.0  0.39406  0.77383  0.21369  1.0000
  H   H374      1.0  0.56455  0.58987  0.19154  1.0000
  C   C230      1.0  0.55895  0.55163  0.15336  1.0000
  C   C231      1.0  0.55380  0.74764  0.94814  1.0000
  H   H375      1.0  0.41254  0.72218  0.75370  1.0000
  S   S85       1.0  0.39913  0.79607  0.93058  1.0000
  H   H376      1.0  0.56337  0.73006  0.96918  1.0000
  S   S86       1.0  0.56091  0.65752  0.81094  1.0000
  H   H377      1.0  0.42101  0.75700  0.76607  1.0000
  H   H378      1.0  0.43754  0.74575  0.22093  1.0000
  H   H379      1.0  0.55089  0.78440  0.87232  1.0000
  Fe  Fe42      1.0  0.43395  0.77404  0.88987  1.0000
  C   C232      1.0  0.46072  0.72118  0.82742  1.0000
  C   C233      1.0  0.53834  0.76560  0.86677  1.0000
  H   H380      1.0  0.53624  0.55312  0.15356  1.0000
  C   C234      1.0  0.49992  0.70829  0.75114  1.0000
  C   C235      1.0  0.49450  0.73548  0.76343  1.0000
  H   H381      1.0  0.49066  0.66631  0.76875  1.0000
  S   S87       1.0  0.43462  0.72938  0.87226  1.0000
  H   H382      1.0  0.53663  0.76216  0.82502  1.0000
  C   C236      1.0  0.53300  0.71772  0.88633  1.0000
  C   C237      1.0  0.40698  0.74365  0.74371  1.0000
  H   H383      1.0  0.55166  0.58965  0.96370  1.0000
  H   H384      1.0  0.43603  0.78624  0.16247  1.0000
  H   H385      1.0  0.45503  0.67780  0.83484  1.0000
  N   N25       1.0  0.55106  0.74180  0.89313  1.0000
  C   C238      1.0  0.46622  0.69391  0.81528  1.0000
  C   C239      1.0  0.55198  0.55347  0.85481  1.0000
  H   H386      1.0  0.54185  0.69943  0.90615  1.0000
  H   H387      1.0  0.51142  0.72133  0.90160  1.0000
  H   H388      1.0  0.53298  0.75199  0.96588  1.0000
  H   H389      1.0  0.51677  0.76994  0.88109  1.0000
  H   H390      1.0  0.50539  0.75166  0.74360  1.0000
  H   H391      1.0  0.46689  0.79880  0.19349  1.0000
  C   C240      1.0  0.47555  0.74183  0.80247  1.0000
  C   C241      1.0  0.44354  0.79855  0.19524  1.0000
  H   H392      1.0  0.53081  0.71246  0.84533  1.0000
  Fe  Fe43      1.0  0.55580  0.61312  0.79302  1.0000
  S   S88       1.0  0.53516  0.58546  0.85036  1.0000
  S   S89       1.0  0.46800  0.79060  0.93900  1.0000
  C   C242      1.0  0.48626  0.68743  0.77779  1.0000
  H   H393      1.0  0.47238  0.76277  0.81276  1.0000
  H   H394      1.0  0.56069  0.59308  0.05891  1.0000
  S   S90       1.0  0.18716  0.88512  0.66602  1.0000
  S   S91       1.0  0.10124  0.88908  0.28602  1.0000
  H   H395      1.0  0.18715  0.93128  0.35038  1.0000
  C   C243      1.0  0.19603  0.89778  0.29992  1.0000
  C   C244      1.0  0.13756  0.89196  0.29395  1.0000
  C   C245      1.0  0.14899  0.91225  0.32468  1.0000
  C   C246      1.0  0.17829  0.91524  0.32747  1.0000
  H   H396      1.0  0.13529  0.92596  0.34548  1.0000
  Fe  Fe44      1.0  0.20500  0.84330  0.65333  1.0000
  C   C247      1.0  0.18445  0.87711  0.27032  1.0000
  C   C248      1.0  0.15530  0.87430  0.26713  1.0000
  N   N26       1.0  0.09658  0.93493  0.65437  1.0000
  S   S92       1.0  0.19500  0.81635  0.58704  1.0000
  H   H397      1.0  0.13801  0.92205  0.63102  1.0000
  C   C249      1.0  0.12488  0.94091  0.63400  1.0000
  H   H398      1.0  0.12366  0.95028  0.59522  1.0000
  H   H399      1.0  0.13631  0.95532  0.65897  1.0000
  H   H400      1.0  0.09143  0.84517  0.36266  1.0000
  H   H401      1.0  0.10214  0.00955  0.57641  1.0000
  H   H402      1.0  0.09415  0.89634  0.61636  1.0000
  H   H403      1.0  0.09076  0.97566  0.68253  1.0000
  C   C250      1.0  0.07753  0.00108  0.50950  1.0000
  S   S93       1.0  0.08825  0.96682  0.50518  1.0000
  C   C251      1.0  0.07885  0.04516  0.55149  1.0000
  C   C252      1.0  0.08761  0.01776  0.54851  1.0000
  H   H404      1.0  0.09177  0.81214  0.29147  1.0000
  S   S94       1.0  0.19552  0.81158  0.71225  1.0000
  C   C253      1.0  0.08009  0.96052  0.65791  1.0000
  C   C254      1.0  0.09912  0.92245  0.70564  1.0000
  H   H405      1.0  0.09260  0.81673  0.40627  1.0000
  H   H406      1.0  0.11183  0.90331  0.70470  1.0000
  Fe  Fe45      1.0  0.06704  0.94611  0.43912  1.0000
  H   H407      1.0  0.07693  0.97006  0.61968  1.0000
  H   H408      1.0  0.07998  0.92464  0.58087  1.0000
  H   H409      1.0  0.07813  0.91755  0.72205  1.0000
  H   H410      1.0  0.14653  0.85850  0.24349  1.0000
  C   C255      1.0  0.08220  0.91584  0.61995  1.0000
  Fe  Fe46      1.0  0.07620  0.91234  0.34376  1.0000
  S   S95       1.0  0.07455  0.95739  0.35679  1.0000
  S   S96       1.0  0.07338  0.90122  0.42650  1.0000
  C   C256      1.0  0.07824  0.83039  0.38428  1.0000
  H   H411      1.0  0.19780  0.86355  0.24880  1.0000
  H   H412      1.0  0.10930  0.93662  0.73286  1.0000
  C   C257      1.0  0.18918  0.89108  0.73173  1.0000
  H   H413      1.0  0.15797  0.92293  0.73080  1.0000
  S   S97       1.0  0.23251  0.90260  0.29983  1.0000
  H   H414      1.0  0.23977  0.88377  0.42263  1.0000
  H   H415      1.0  0.27791  0.89537  0.48442  1.0000
  H   H416      1.0  0.27875  0.91189  0.39350  1.0000
  C   C258      1.0  0.25231  0.86513  0.41369  1.0000
  S   S98       1.0  0.24405  0.82741  0.26965  1.0000
  Fe  Fe47      1.0  0.24084  0.80514  0.59112  1.0000
  H   H417      1.0  0.31364  0.89759  0.38747  1.0000
  C   C259      1.0  0.29084  0.89299  0.38442  1.0000
  H   H418      1.0  0.31241  0.88059  0.47660  1.0000
  H   H419      1.0  0.28381  0.85986  0.49812  1.0000
  C   C260      1.0  0.28955  0.87685  0.47169  1.0000
  H   H420      1.0  0.24539  0.84865  0.44019  1.0000
  H   H421      1.0  0.24661  0.85911  0.37421  1.0000
  S   S99       1.0  0.26883  0.80278  0.52182  1.0000
  H   H422      1.0  0.28652  0.88825  0.34375  1.0000
  H   H423      1.0  0.29286  0.82769  0.42765  1.0000
  H   H424      1.0  0.32167  0.84823  0.40653  1.0000
  H   H425      1.0  0.29409  0.83979  0.36296  1.0000
  C   C261      1.0  0.35491  0.83115  0.30731  1.0000
  C   C262      1.0  0.37894  0.84261  0.32911  1.0000
  S   S100      1.0  0.25129  0.83490  0.65272  1.0000
  H   H426      1.0  0.34601  0.84020  0.27342  1.0000
  N   N27       1.0  0.28280  0.87011  0.41826  1.0000
  C   C263      1.0  0.29855  0.84537  0.40319  1.0000
  Fe  Fe48      1.0  0.28912  0.82058  0.24892  1.0000
  C   C264      1.0  0.34330  0.80747  0.32825  1.0000
  C   C265      1.0  0.37973  0.80683  0.39282  1.0000
  C   C266      1.0  0.39143  0.83041  0.37190  1.0000
  H   H427      1.0  0.38805  0.86075  0.31243  1.0000
  H   H428      1.0  0.37533  0.85248  0.65383  1.0000
  C   C267      1.0  0.39269  0.85193  0.68219  1.0000
  Fe  Fe49      1.0  0.25183  0.87093  0.24920  1.0000
  H   H429      1.0  0.39856  0.89230  0.61197  1.0000
  H   H430      1.0  0.36482  0.89962  0.68285  1.0000
  C   C268      1.0  0.38301  0.89808  0.70931  1.0000
  H   H431      1.0  0.38402  0.84361  0.71851  1.0000
  H   H432      1.0  0.39148  0.91896  0.71468  1.0000
  Fe  Fe50      1.0  0.24108  0.80058  0.70650  1.0000
  C   C269      1.0  0.56516  0.94458  0.69658  1.0000
  C   C270      1.0  0.51502  0.01903  0.73246  1.0000
  H   H433      1.0  0.56202  0.01534  0.67336  1.0000
  H   H434      1.0  0.55806  0.02442  0.27644  1.0000
  N   N28       1.0  0.53223  0.04144  0.71153  1.0000
  S   S101      1.0  0.53827  0.03604  0.52744  1.0000
  C   C271      1.0  0.56387  0.97760  0.32782  1.0000
  S   S102      1.0  0.53349  0.04711  0.37632  1.0000
  C   C272      1.0  0.56123  0.03146  0.70302  1.0000
  H   H435      1.0  0.43784  0.89748  0.73346  1.0000
  H   H436      1.0  0.49653  0.88475  0.54216  1.0000
  H   H437      1.0  0.40882  0.83717  0.66808  1.0000
  H   H438      1.0  0.56534  0.92431  0.50189  1.0000
  H   H439      1.0  0.54980  0.96475  0.30442  1.0000
  H   H440      1.0  0.52302  0.80685  0.62912  1.0000
  H   H441      1.0  0.55064  0.94254  0.72976  1.0000
  H   H442      1.0  0.51473  0.00120  0.70635  1.0000
  Fe  Fe51      1.0  0.54814  0.02470  0.44683  1.0000
  C   C273      1.0  0.44318  0.80500  0.28654  1.0000
  C   C274      1.0  0.56314  0.89640  0.67967  1.0000
  N   N29       1.0  0.40485  0.87925  0.68971  1.0000
  H   H443      1.0  0.51870  0.03391  0.63490  1.0000
  H   H444      1.0  0.43494  0.82624  0.28277  1.0000
  C   C275      1.0  0.49039  0.90519  0.66546  1.0000
  S   S103      1.0  0.48397  0.82485  0.48989  1.0000
  H   H445      1.0  0.46651  0.80606  0.28772  1.0000
  H   H446      1.0  0.55027  0.89993  0.64485  1.0000
  C   C276      1.0  0.42810  0.87727  0.72689  1.0000
  C   C277      1.0  0.50024  0.92636  0.56780  1.0000
  H   H447      1.0  0.44498  0.86318  0.71350  1.0000
  H   H448      1.0  0.54831  0.89320  0.71206  1.0000
  H   H449      1.0  0.49244  0.94672  0.69097  1.0000
  C   C278      1.0  0.49095  0.88772  0.62356  1.0000
  S   S104      1.0  0.42213  0.83125  0.54507  1.0000
  H   H450      1.0  0.42609  0.90986  0.64507  1.0000
  H   H451      1.0  0.55182  0.82133  0.59460  1.0000
  C   C279      1.0  0.53975  0.80227  0.60068  1.0000
  Fe  Fe52      1.0  0.46727  0.82935  0.56921  1.0000
  H   H452      1.0  0.50422  0.93453  0.53006  1.0000
  H   H453      1.0  0.55202  0.94925  0.66249  1.0000
  S   S105      1.0  0.48554  0.85290  0.63414  1.0000
  S   S106      1.0  0.42243  0.84403  0.39694  1.0000
  C   C280      1.0  0.49858  0.94389  0.60966  1.0000
  C   C281      1.0  0.49581  0.89825  0.57461  1.0000
  H   H454      1.0  0.43147  0.87566  0.62384  1.0000
  C   C282      1.0  0.49348  0.93327  0.65840  1.0000
  H   H455      1.0  0.55037  0.99287  0.34763  1.0000
  Fe  Fe53      1.0  0.53340  0.99129  0.54164  1.0000
  S   S107      1.0  0.53807  0.98043  0.45894  1.0000
  S   S108      1.0  0.50277  0.97915  0.60252  1.0000
  H   H456      1.0  0.48735  0.89705  0.70349  1.0000
  C   C283      1.0  0.41564  0.88979  0.64053  1.0000
  Fe  Fe54      1.0  0.43860  0.82198  0.46668  1.0000
  H   H457      1.0  0.56270  0.88483  0.56096  1.0000
  S   S109      1.0  0.12342  0.95281  0.91968  1.0000
  Fe  Fe55      1.0  0.13689  0.90896  0.91734  1.0000
  S   S110      1.0  0.18072  0.89342  0.90408  1.0000
  S   S111      1.0  0.11500  0.89708  0.98936  1.0000
  Fe  Fe56      1.0  0.09815  0.93979  0.98791  1.0000
  C   C284      1.0  0.20722  0.87533  0.76231  1.0000
  C   C285      1.0  0.16932  0.91170  0.80762  1.0000
  C   C286      1.0  0.18634  0.89493  0.83819  1.0000
  C   C287      1.0  0.20591  0.87737  0.81554  1.0000
  H   H458      1.0  0.15452  0.92570  0.82496  1.0000
  H   H459      1.0  0.21922  0.86456  0.83896  1.0000
  N   N30       1.0  0.16508  0.92117  0.13033  1.0000
  H   H460      1.0  0.10248  0.99767  0.85791  1.0000
  C   C288      1.0  0.16681  0.93659  0.08178  1.0000
  C   C289      1.0  0.17110  0.91006  0.75438  1.0000
  S   S112      1.0  0.09783  0.96269  0.06185  1.0000
  C   C290      1.0  0.16996  0.89185  0.12054  1.0000
  C   C291      1.0  0.09657  0.03612  0.81913  1.0000
  S   S113      1.0  0.10178  0.89592  0.86654  1.0000
  H   H461      1.0  0.16264  0.95874  0.08755  1.0000
  H   H462      1.0  0.15095  0.92949  0.05396  1.0000
  H   H463      1.0  0.15374  0.88348  0.09455  1.0000
  H   H464      1.0  0.19081  0.88818  0.10248  1.0000
  H   H465      1.0  0.12014  0.91747  0.12733  1.0000
  H   H466      1.0  0.13228  0.94696  0.16030  1.0000
  C   C292      1.0  0.13688  0.92502  0.15311  1.0000
  C   C293      1.0  0.18664  0.93128  0.16583  1.0000
  H   H467      1.0  0.18386  0.95344  0.17331  1.0000
  H   H468      1.0  0.18785  0.93435  0.06359  1.0000
  Fe  Fe57      1.0  0.08590  0.93895  0.87492  1.0000
  H   H469      1.0  0.22197  0.86131  0.74501  1.0000
  H   H470      1.0  0.11319  0.84351  0.80542  1.0000
  H   H471      1.0  0.18190  0.82273  0.86154  1.0000
  N   N31       1.0  0.13795  0.81535  0.85009  1.0000
  H   H472      1.0  0.10761  0.83503  0.89872  1.0000
  H   H473      1.0  0.20825  0.92803  0.15054  1.0000
  C   C294      1.0  0.12980  0.82768  0.89930  1.0000
  H   H474      1.0  0.14323  0.84545  0.90854  1.0000
  C   C295      1.0  0.09176  0.00825  0.82736  1.0000
  H   H475      1.0  0.16932  0.87964  0.15650  1.0000
  Fe  Fe58      1.0  0.07860  0.88755  0.93914  1.0000
  H   H476      1.0  0.13488  0.91389  0.19006  1.0000
  C   C296      1.0  0.13519  0.83588  0.80883  1.0000
  H   H477      1.0  0.14874  0.85380  0.81592  1.0000
  H   H478      1.0  0.13167  0.81272  0.93127  1.0000
  H   H479      1.0  0.18555  0.92061  0.20327  1.0000
  H   H480      1.0  0.14150  0.82732  0.77123  1.0000
  H   H481      1.0  0.08441  0.00554  0.13253  1.0000
  C   C297      1.0  0.06653  0.99987  0.00755  1.0000
  C   C298      1.0  0.07330  0.99420  0.79584  1.0000
  C   C299      1.0  0.16740  0.80569  0.85289  1.0000
  C   C300      1.0  0.07512  0.01063  0.09605  1.0000
  H   H482      1.0  0.23166  0.82783  0.90529  1.0000
  C   C301      1.0  0.07872  0.99318  0.05450  1.0000
  H   H483      1.0  0.06926  0.98656  0.97521  1.0000
  H   H484      1.0  0.11114  0.04674  0.84339  1.0000
  S   S114      1.0  0.06763  0.95900  0.80430  1.0000
  H   H485      1.0  0.06834  0.95904  0.16520  1.0000
  S   S115      1.0  0.19619  0.80125  0.16367  1.0000
  S   S116      1.0  0.56335  0.95465  0.92217  1.0000
  S   S117      1.0  0.29793  0.86497  0.23553  1.0000
  H   H486      1.0  0.23415  0.87080  0.95427  1.0000
  H   H487      1.0  0.23546  0.82639  0.00020  1.0000
  H   H488      1.0  0.28578  0.83933  0.73926  1.0000
  Fe  Fe59      1.0  0.23546  0.82239  0.18656  1.0000
  S   S118      1.0  0.23994  0.86655  0.16721  1.0000
  H   H489      1.0  0.37484  0.89113  0.74696  1.0000
  H   H490      1.0  0.30572  0.85129  0.90964  1.0000
  H   H491      1.0  0.26138  0.83793  0.86752  1.0000
  C   C302      1.0  0.29399  0.80685  0.79279  1.0000
  H   H492      1.0  0.30661  0.81901  0.94244  1.0000
  C   C303      1.0  0.29834  0.84026  0.94437  1.0000
  H   H493      1.0  0.26655  0.88012  0.98462  1.0000
  C   C304      1.0  0.25748  0.86948  0.95106  1.0000
  C   C305      1.0  0.25871  0.82623  0.99549  1.0000
  N   N32       1.0  0.26736  0.84086  0.94860  1.0000
  C   C306      1.0  0.35682  0.86385  0.03545  1.0000
  H   H494      1.0  0.34809  0.87674  0.00573  1.0000
  C   C307      1.0  0.38019  0.83133  0.11268  1.0000
  Fe  Fe60      1.0  0.28528  0.85581  0.15498  1.0000
  C   C308      1.0  0.32457  0.84551  0.77931  1.0000
  C   C309      1.0  0.35295  0.84222  0.11837  1.0000
  C   C310      1.0  0.34313  0.83532  0.81623  1.0000
  C   C311      1.0  0.30009  0.83123  0.76745  1.0000
  C   C312      1.0  0.38367  0.85246  0.02928  1.0000
  C   C313      1.0  0.34122  0.85842  0.07957  1.0000
  S   S119      1.0  0.30681  0.87131  0.08463  1.0000
  S   S120      1.0  0.37413  0.85299  0.82888  1.0000
  H   H495      1.0  0.34099  0.83796  0.15258  1.0000
  S   S121      1.0  0.27982  0.81084  0.16715  1.0000
  H   H496      1.0  0.26783  0.83575  0.03015  1.0000
  H   H497      1.0  0.30824  0.85002  0.97791  1.0000
  H   H498      1.0  0.26358  0.88116  0.91625  1.0000
  H   H499      1.0  0.38902  0.81854  0.14228  1.0000
  C   C314      1.0  0.39546  0.83622  0.06784  1.0000
  C   C315      1.0  0.33686  0.81110  0.84204  1.0000
  H   H500      1.0  0.39529  0.85650  0.99474  1.0000
  C   C316      1.0  0.25501  0.82754  0.90359  1.0000
  H   H501      1.0  0.32909  0.86444  0.75969  1.0000
  H   H502      1.0  0.26587  0.80457  0.99507  1.0000
  H   H503      1.0  0.35081  0.80330  0.87103  1.0000
  H   H504      1.0  0.26192  0.80586  0.90051  1.0000
  H   H505      1.0  0.39335  0.80787  0.23805  1.0000
  C   C317      1.0  0.56365  0.03805  0.05081  1.0000
  H   H506      1.0  0.54870  0.88919  0.06001  1.0000
  H   H507      1.0  0.54868  0.91610  0.01342  1.0000
  S   S122      1.0  0.43783  0.80556  0.82814  1.0000
  H   H508      1.0  0.52328  0.01176  0.76983  1.0000
  H   H509      1.0  0.46341  0.92145  0.81127  1.0000
  H   H510      1.0  0.53385  0.85380  0.93909  1.0000
  C   C318      1.0  0.53390  0.91348  0.82683  1.0000
  H   H511      1.0  0.54084  0.04553  0.98133  1.0000
  C   C319      1.0  0.50334  0.86306  0.02355  1.0000
  Fe  Fe61      1.0  0.46981  0.82351  0.87970  1.0000
  H   H512      1.0  0.43594  0.81983  0.18866  1.0000
  Fe  Fe62      1.0  0.43382  0.81595  0.97414  1.0000
  H   H513      1.0  0.55651  0.85495  0.99312  1.0000
  H   H514      1.0  0.55288  0.92525  0.82919  1.0000
  H   H515      1.0  0.51572  0.85051  0.05116  1.0000
  S   S123      1.0  0.42881  0.82133  0.05870  1.0000
  C   C320      1.0  0.54325  0.86771  0.96734  1.0000
  H   H516      1.0  0.48630  0.87358  0.04519  1.0000
  H   H517      1.0  0.55741  0.88184  0.94624  1.0000
  C   C321      1.0  0.50406  0.89906  0.96034  1.0000
  H   H518      1.0  0.51928  0.91248  0.05590  1.0000
  H   H519      1.0  0.49301  0.84878  0.99671  1.0000
  C   C322      1.0  0.51055  0.86991  0.83215  1.0000
  H   H520      1.0  0.49316  0.88584  0.93248  1.0000
  S   S124      1.0  0.55151  0.01853  0.88970  1.0000
  C   C323      1.0  0.53505  0.90093  0.03306  1.0000
  H   H521      1.0  0.55525  0.87515  0.83969  1.0000
  H   H522      1.0  0.42067  0.86948  0.76448  1.0000
  Fe  Fe63      1.0  0.54534  0.97734  0.85553  1.0000
  C   C324      1.0  0.48346  0.91128  0.81666  1.0000
  C   C325      1.0  0.48470  0.88290  0.82338  1.0000
  H   H523      1.0  0.48764  0.91107  0.98073  1.0000
  S   S125      1.0  0.50636  0.96227  0.81803  1.0000
  C   C326      1.0  0.50802  0.92663  0.81955  1.0000
  C   C327      1.0  0.53524  0.88511  0.83256  1.0000
  Fe  Fe64      1.0  0.40656  0.82947  0.87340  1.0000
  S   S126      1.0  0.51179  0.83533  0.84872  1.0000
  N   N33       1.0  0.52140  0.88271  0.99609  1.0000
  S   S127      1.0  0.43915  0.85101  0.91960  1.0000
  H   H524      1.0  0.51704  0.91364  0.93795  1.0000
  H   H525      1.0  0.46561  0.87115  0.82282  1.0000
  H   H526      1.0  0.55829  0.99701  0.23157  1.0000
  H   H527      1.0  0.49283  0.02553  0.73852  1.0000
  H   H528      1.0  0.61693  0.10311  0.39803  1.0000
  H   H529      1.0  0.66814  0.13134  0.55256  1.0000
  C   C328      1.0  0.59987  0.10732  0.32240  1.0000
  C   C329      1.0  0.68380  0.22690  0.62844  1.0000
  C   C330      1.0  0.65724  0.21923  0.61103  1.0000
  C   C331      1.0  0.63288  0.23123  0.63153  1.0000
  C   C332      1.0  0.68591  0.24684  0.66604  1.0000
  H   H530      1.0  0.65551  0.20463  0.58058  1.0000
  H   H531      1.0  0.61241  0.22533  0.61775  1.0000
  C   C333      1.0  0.63360  0.14602  0.62886  1.0000
  C   C334      1.0  0.67843  0.14017  0.58671  1.0000
  H   H532      1.0  0.62243  0.13749  0.59536  1.0000
  S   S128      1.0  0.62565  0.13051  0.30332  1.0000
  H   H533      1.0  0.65015  0.09460  0.60850  1.0000
  H   H534      1.0  0.66467  0.14320  0.71387  1.0000
  C   C335      1.0  0.60045  0.09705  0.37220  1.0000
  C   C336      1.0  0.66042  0.10463  0.64151  1.0000
  N   N34       1.0  0.66224  0.13445  0.63373  1.0000
  S   S129      1.0  0.71397  0.21156  0.60230  1.0000
  H   H535      1.0  0.64778  0.09940  0.67594  1.0000
  C   C337      1.0  0.63511  0.25159  0.66836  1.0000
  H   H536      1.0  0.70010  0.13154  0.58902  1.0000
  C   C338      1.0  0.58572  0.08675  0.59286  1.0000
  C   C339      1.0  0.57533  0.09529  0.54564  1.0000
  C   C340      1.0  0.58037  0.10237  0.63629  1.0000
  C   C341      1.0  0.67642  0.14697  0.67777  1.0000
  H   H537      1.0  0.70617  0.25209  0.68125  1.0000
  C   C342      1.0  0.66163  0.25952  0.68533  1.0000
  H   H538      1.0  0.67822  0.16949  0.67275  1.0000
  H   H539      1.0  0.69812  0.13876  0.68265  1.0000
  S   S130      1.0  0.57764  0.19164  0.69911  1.0000
  C   C343      1.0  0.57828  0.09975  0.28935  1.0000
  H   H540      1.0  0.68156  0.09511  0.64616  1.0000
  H   H541      1.0  0.68061  0.16246  0.57992  1.0000
  H   H542      1.0  0.63388  0.16848  0.62408  1.0000
  Fe  Fe65      1.0  0.57058  0.23677  0.70027  1.0000
  H   H543      1.0  0.62077  0.14172  0.66348  1.0000
  H   H544      1.0  0.57769  0.10770  0.25079  1.0000
  H   H545      1.0  0.58801  0.09558  0.67300  1.0000
  H   H546      1.0  0.57930  0.08313  0.51222  1.0000
  S   S131      1.0  0.60440  0.05599  0.59743  1.0000
  H   H547      1.0  0.65879  0.26959  0.56597  1.0000
  H   H548      1.0  0.57984  0.07186  0.42770  1.0000
  S   S132      1.0  0.60489  0.26755  0.69251  1.0000
  C   C344      1.0  0.57963  0.07912  0.38894  1.0000
  C   C345      1.0  0.66958  0.28152  0.53580  1.0000
  H   H549      1.0  0.58979  0.15930  0.38537  1.0000
  H   H550      1.0  0.58123  0.19258  0.36050  1.0000
  H   H551      1.0  0.66340  0.27499  0.71436  1.0000
  C   C346      1.0  0.57381  0.17118  0.36338  1.0000
  H   H552      1.0  0.69247  0.27670  0.53864  1.0000
  H   H553      1.0  0.66208  0.27399  0.49834  1.0000
  H   H554      1.0  0.57373  0.16275  0.32406  1.0000
  Fe  Fe66      1.0  0.77470  0.29184  0.56661  1.0000
  N   N35       1.0  0.84574  0.29257  0.42238  1.0000
  H   H555      1.0  0.88032  0.26475  0.41105  1.0000
  H   H556      1.0  0.84836  0.24903  0.43201  1.0000
  S   S133      1.0  0.81614  0.28667  0.60468  1.0000
  C   C347      1.0  0.86286  0.28924  0.24100  1.0000
  C   C348      1.0  0.88340  0.27688  0.27179  1.0000
  C   C349      1.0  0.88348  0.24301  0.55339  1.0000
  S   S134      1.0  0.77441  0.24992  0.53365  1.0000
  S   S135      1.0  0.85290  0.22374  0.54523  1.0000
  Fe  Fe67      1.0  0.81417  0.24360  0.57796  1.0000
  Fe  Fe68      1.0  0.75220  0.23838  0.60621  1.0000
  S   S136      1.0  0.79213  0.22753  0.64724  1.0000
  C   C350      1.0  0.88477  0.26345  0.59026  1.0000
  Fe  Fe69      1.0  0.79164  0.27123  0.67174  1.0000
  H   H557      1.0  0.86790  0.26613  0.61708  1.0000
  H   H558      1.0  0.88206  0.25538  0.28092  1.0000
  S   S137      1.0  0.74973  0.28100  0.63643  1.0000
  H   H559      1.0  0.86119  0.18656  0.67455  1.0000
  H   H560      1.0  0.85665  0.22202  0.65980  1.0000
  H   H561      1.0  0.80865  0.28905  0.37608  1.0000
  H   H562      1.0  0.84407  0.28172  0.50173  1.0000
  C   C351      1.0  0.87242  0.20630  0.67136  1.0000
  C   C352      1.0  0.81484  0.29290  0.41633  1.0000
  H   H563      1.0  0.88783  0.20439  0.63952  1.0000
  H   H564      1.0  0.80474  0.27706  0.44064  1.0000
  H   H565      1.0  0.88557  0.25671  0.70441  1.0000
  N   N36       1.0  0.88631  0.21358  0.71968  1.0000
  H   H566      1.0  0.85168  0.26083  0.36712  1.0000
  C   C353      1.0  0.85702  0.26561  0.40741  1.0000
  C   C354      1.0  0.85286  0.29777  0.47626  1.0000
  H   H567      1.0  0.87602  0.29791  0.48227  1.0000
  C   C355      1.0  0.01357  0.11015  0.40227  1.0000
  H   H568      1.0  0.04039  0.24152  0.25048  1.0000
  H   H569      1.0  0.99269  0.06102  0.37668  1.0000
  C   C356      1.0  0.90705  0.19216  0.73339  1.0000
  H   H570      1.0  0.98345  0.22576  0.62368  1.0000
  H   H571      1.0  0.95688  0.07220  0.37066  1.0000
  H   H572      1.0  0.94793  0.25162  0.49979  1.0000
  H   H573      1.0  0.06227  0.26833  0.27387  1.0000
  C   C357      1.0  0.03927  0.06441  0.28904  1.0000
  C   C358      1.0  0.90075  0.23998  0.71343  1.0000
  H   H574      1.0  0.05032  0.19416  0.27420  1.0000
  H   H575      1.0  0.92160  0.28250  0.31402  1.0000
  H   H576      1.0  0.06013  0.05374  0.35938  1.0000
  H   H577      1.0  0.05699  0.23620  0.66810  1.0000
  H   H578      1.0  0.99372  0.07279  0.46790  1.0000
  C   C359      1.0  0.97905  0.07920  0.36939  1.0000
  H   H579      1.0  0.91643  0.23927  0.68190  1.0000
  H   H580      1.0  0.98359  0.08626  0.32974  1.0000
  Fe  Fe70      1.0  0.05622  0.11017  0.59240  1.0000
  Fe  Fe71      1.0  0.99161  0.26599  0.39006  1.0000
  C   C360      1.0  0.04780  0.23275  0.56851  1.0000
  C   C361      1.0  0.90572  0.29224  0.29078  1.0000
  H   H581      1.0  0.92333  0.18969  0.70310  1.0000
  C   C362      1.0  0.02016  0.26694  0.61201  1.0000
  C   C363      1.0  0.06496  0.20087  0.30431  1.0000
  C   C364      1.0  0.96503  0.12423  0.39695  1.0000
  S   S138      1.0  0.03059  0.09915  0.66178  1.0000
  H   H582      1.0  0.95747  0.08306  0.46422  1.0000
  C   C365      1.0  0.03651  0.22697  0.65771  1.0000
  C   C366      1.0  0.05394  0.24769  0.28287  1.0000
  S   S139      1.0  0.06056  0.15168  0.71640  1.0000
  C   C367      1.0  0.90806  0.28069  0.59255  1.0000
  H   H583      1.0  0.98351  0.10606  0.48843  1.0000
  H   H584      1.0  0.96779  0.13237  0.35749  1.0000
  C   C368      1.0  0.93026  0.27729  0.55818  1.0000
  C   C369      1.0  0.06053  0.05600  0.51476  1.0000
  H   H585      1.0  0.04035  0.24968  0.31722  1.0000
  H   H586      1.0  0.90832  0.29720  0.61970  1.0000
  S   S140      1.0  0.94912  0.28245  0.41047  1.0000
  C   C370      1.0  0.93011  0.25535  0.52438  1.0000
  S   S141      1.0  0.04483  0.15443  0.59532  1.0000
  C   C371      1.0  0.99327  0.17880  0.24679  1.0000
  H   H587      1.0  0.05275  0.20154  0.34055  1.0000
  C   C372      1.0  0.00007  0.22308  0.59415  1.0000
  H   H588      1.0  0.02130  0.23110  0.68898  1.0000
  N   N37       1.0  0.98421  0.10096  0.40694  1.0000
  S   S142      1.0  0.98332  0.16850  0.68394  1.0000
  H   H589      1.0  0.97826  0.25287  0.29020  1.0000
  H   H590      1.0  0.01263  0.27548  0.57496  1.0000
  H   H591      1.0  0.00374  0.20076  0.59037  1.0000
  H   H592      1.0  0.01771  0.11937  0.36412  1.0000
  H   H593      1.0  0.96505  0.22128  0.71920  1.0000
  H   H594      1.0  0.05320  0.21074  0.56513  1.0000
  C   C373      1.0  0.98992  0.21225  0.31417  1.0000
  S   S143      1.0  0.05057  0.09055  0.51559  1.0000
  H   H595      1.0  0.00055  0.16995  0.32623  1.0000
  H   H596      1.0  0.94264  0.11823  0.40122  1.0000
  H   H597      1.0  0.01876  0.12558  0.43166  1.0000
  H   H598      1.0  0.03999  0.20452  0.65681  1.0000
  H   H599      1.0  0.02845  0.09278  0.40737  1.0000
  S   S144      1.0  0.05305  0.09739  0.28640  1.0000
  C   C374      1.0  0.90664  0.23836  0.52167  1.0000
  H   H600      1.0  0.90616  0.22208  0.49403  1.0000
  H   H601      1.0  0.99143  0.23075  0.55724  1.0000
  Fe  Fe72      1.0  0.02281  0.14427  0.66816  1.0000
  C   C375      1.0  0.98230  0.23219  0.27827  1.0000
  S   S145      1.0  0.99683  0.22109  0.37741  1.0000
  H   H602      1.0  0.04063  0.24001  0.53037  1.0000
  C   C376      1.0  0.97940  0.09027  0.45909  1.0000
  H   H603      1.0  0.00341  0.27115  0.64072  1.0000
  S   S146      1.0  0.01415  0.28429  0.45619  1.0000
  N   N38       1.0  0.02613  0.23741  0.60811  1.0000
  H   H604      1.0  0.03924  0.27840  0.62313  1.0000
  C   C377      1.0  0.99459  0.18539  0.29860  1.0000
  H   H605      1.0  0.96896  0.14133  0.42371  1.0000
  C   C378      1.0  0.02094  0.05549  0.25118  1.0000
  C   C379      1.0  0.59987  0.10492  0.78177  1.0000
  Fe  Fe73      1.0  0.64283  0.16082  0.12249  1.0000
  S   S147      1.0  0.60349  0.18074  0.09435  1.0000
  S   S148      1.0  0.67679  0.15322  0.06502  1.0000
  Fe  Fe74      1.0  0.58155  0.14565  0.13115  1.0000
  Fe  Fe75      1.0  0.60116  0.19984  0.17142  1.0000
  S   S149      1.0  0.58637  0.24325  0.17823  1.0000
  S   S150      1.0  0.62116  0.12386  0.15347  1.0000
  C   C380      1.0  0.69829  0.18120  0.05134  1.0000
  C   C381      1.0  0.66350  0.09873  0.96276  1.0000
  C   C382      1.0  0.71541  0.18019  0.00799  1.0000
  C   C383      1.0  0.56738  0.07686  0.10742  1.0000
  C   C384      1.0  0.64189  0.08375  0.04140  1.0000
  N   N39       1.0  0.63669  0.09126  0.98755  1.0000
  C   C385      1.0  0.59482  0.08357  0.81607  1.0000
  C   C386      1.0  0.58574  0.12991  0.78718  1.0000
  H   H606      1.0  0.65634  0.06590  0.04471  1.0000
  H   H607      1.0  0.65163  0.10083  0.06253  1.0000
  H   H608      1.0  0.67888  0.08154  0.96398  1.0000
  H   H609      1.0  0.58972  0.14622  0.76053  1.0000
  H   H610      1.0  0.62202  0.07847  0.06141  1.0000
  S   S151      1.0  0.64307  0.18342  0.19665  1.0000
  C   C387      1.0  0.61703  0.11474  0.98525  1.0000
  H   H611      1.0  0.67339  0.11639  0.98204  1.0000
  H   H612      1.0  0.71504  0.16253  0.98357  1.0000
  C   C388      1.0  0.69884  0.20415  0.08286  1.0000
  H   H613      1.0  0.68569  0.20496  0.11651  1.0000
  S   S152      1.0  0.57585  0.16619  0.20660  1.0000
  C   C389      1.0  0.71703  0.22583  0.07139  1.0000
  H   H614      1.0  0.62589  0.13283  0.00490  1.0000
  H   H615      1.0  0.62201  0.29428  0.18886  1.0000
  H   H616      1.0  0.66029  0.10458  0.92208  1.0000
  H   H617      1.0  0.64377  0.27910  0.05604  1.0000
  C   C390      1.0  0.64471  0.28231  0.09794  1.0000
  C   C391      1.0  0.62440  0.06778  0.96083  1.0000
  H   H618      1.0  0.63447  0.26453  0.11677  1.0000
  H   H619      1.0  0.57438  0.08548  0.14297  1.0000
  S   S153      1.0  0.61158  0.05206  0.80653  1.0000
  H   H620      1.0  0.66728  0.28193  0.10928  1.0000
  H   H621      1.0  0.59670  0.10998  0.00424  1.0000
  H   H622      1.0  0.61233  0.12077  0.94514  1.0000
  H   H623      1.0  0.60358  0.06228  0.97712  1.0000
  C   C392      1.0  0.57627  0.08755  0.85685  1.0000
  H   H624      1.0  0.61454  0.10203  0.75072  1.0000
  H   H625      1.0  0.62148  0.07219  0.91952  1.0000
  H   H626      1.0  0.58976  0.29052  0.11446  1.0000
  C   C393      1.0  0.56698  0.13383  0.82763  1.0000
  H   H627      1.0  0.57264  0.07143  0.88414  1.0000
  H   H628      1.0  0.71776  0.24339  0.09602  1.0000
  Fe  Fe76      1.0  0.61782  0.14798  0.22551  1.0000
  C   C394      1.0  0.81256  0.29660  0.94464  1.0000
  H   H629      1.0  0.76482  0.29169  0.84915  1.0000
  H   H630      1.0  0.84846  0.23132  0.75037  1.0000
  C   C395      1.0  0.73307  0.20198  0.99602  1.0000
  C   C396      1.0  0.88318  0.29463  0.80294  1.0000
  H   H631      1.0  0.80374  0.28071  0.97041  1.0000
  H   H632      1.0  0.74623  0.20106  0.96238  1.0000
  S   S154      1.0  0.83519  0.26955  0.21800  1.0000
  C   C397      1.0  0.73418  0.22466  0.02792  1.0000
  H   H633      1.0  0.76878  0.26932  0.90344  1.0000
  Fe  Fe77      1.0  0.80426  0.29161  0.16690  1.0000
  H   H634      1.0  0.87448  0.22224  0.79715  1.0000
  S   S155      1.0  0.75713  0.25117  0.01184  1.0000
  S   S156      1.0  0.75981  0.27687  0.15938  1.0000
  Fe  Fe78      1.0  0.76723  0.27992  0.07516  1.0000
  H   H635      1.0  0.87180  0.27117  0.11500  1.0000
  H   H636      1.0  0.89512  0.21394  0.13764  1.0000
  H   H637      1.0  0.87901  0.24510  0.06901  1.0000
  C   C398      1.0  0.88855  0.26227  0.09018  1.0000
  H   H638      1.0  0.79700  0.27320  0.85886  1.0000
  H   H639      1.0  0.84776  0.27125  0.82922  1.0000
  S   S157      1.0  0.81255  0.29055  0.08305  1.0000
  C   C399      1.0  0.86492  0.21591  0.76043  1.0000
  C   C400      1.0  0.77987  0.28440  0.87876  1.0000
  H   H640      1.0  0.85401  0.19622  0.76705  1.0000
  S   S158      1.0  0.80486  0.27804  0.75299  1.0000
  H   H641      1.0  0.83064  0.28736  0.92391  1.0000
  C   C401      1.0  0.85580  0.28442  0.79945  1.0000
  C   C402      1.0  0.83891  0.29117  0.75741  1.0000
  H   H642      1.0  0.89690  0.17198  0.73860  1.0000
  H   H643      1.0  0.89608  0.28949  0.83546  1.0000
  H   H644      1.0  0.88759  0.23980  0.18379  1.0000
  H   H645      1.0  0.89458  0.27817  0.06178  1.0000
  C   C403      1.0  0.06553  0.27553  0.81256  1.0000
  C   C404      1.0  0.97698  0.21145  0.74924  1.0000
  S   S159      1.0  0.99007  0.19177  0.14544  1.0000
  C   C405      1.0  0.98126  0.22562  0.22636  1.0000
  C   C406      1.0  0.98729  0.19905  0.21052  1.0000
  C   C407      1.0  0.98767  0.18504  0.74235  1.0000
  H   H646      1.0  0.99765  0.15815  0.23482  1.0000
  H   H647      1.0  0.94121  0.27011  0.17565  1.0000
  H   H648      1.0  0.05841  0.13072  0.83520  1.0000
  H   H649      1.0  0.91199  0.24589  0.74884  1.0000
  H   H650      1.0  0.06065  0.29778  0.81146  1.0000
  C   C408      1.0  0.99929  0.21335  0.83226  1.0000
  S   S160      1.0  0.05718  0.15828  0.19342  1.0000
  H   H651      1.0  0.97732  0.24135  0.19831  1.0000
  H   H652      1.0  0.04318  0.08558  0.86262  1.0000
  Fe  Fe79      1.0  0.99076  0.27357  0.88749  1.0000
  H   H653      1.0  0.92714  0.22366  0.06542  1.0000
  Fe  Fe80      1.0  0.04851  0.11416  0.20678  1.0000
  H   H654      1.0  0.01562  0.06860  0.21955  1.0000
  H   H655      1.0  0.90801  0.28722  0.17082  1.0000
  H   H656      1.0  0.95383  0.23516  0.10801  1.0000
  H   H657      1.0  0.02178  0.17714  0.85541  1.0000
  H   H658      1.0  0.97468  0.24607  0.79939  1.0000
  S   S161      1.0  0.00974  0.11406  0.15807  1.0000
  C   C409      1.0  0.00322  0.17248  0.78119  1.0000
  H   H659      1.0  0.01813  0.12700  0.89607  1.0000
  H   H660      1.0  0.05556  0.26707  0.91263  1.0000
  H   H661      1.0  0.93396  0.29160  0.12175  1.0000
  C   C410      1.0  0.90407  0.23188  0.15740  1.0000
  C   C411      1.0  0.98274  0.22561  0.79430  1.0000
  H   H662      1.0  0.02430  0.11592  0.96043  1.0000
  S   S162      1.0  0.00860  0.23124  0.88710  1.0000
  H   H663      1.0  0.04746  0.07469  0.92778  1.0000
  N   N40       1.0  0.06093  0.11569  0.91231  1.0000
  H   H664      1.0  0.92204  0.22437  0.18092  1.0000
  H   H665      1.0  0.91814  0.19702  0.76952  1.0000
  C   C412      1.0  0.05700  0.08708  0.89666  1.0000
  C   C413      1.0  0.03356  0.12748  0.92787  1.0000
  S   S163      1.0  0.04796  0.14703  0.07168  1.0000
  H   H666      1.0  0.94173  0.25714  0.05747  1.0000
  C   C414      1.0  0.93485  0.24177  0.08634  1.0000
  N   N41       1.0  0.91301  0.25308  0.12060  1.0000
  S   S164      1.0  0.94555  0.28467  0.89997  1.0000
  C   C415      1.0  0.92457  0.27653  0.14846  1.0000
  H   H667      1.0  0.03568  0.14903  0.94022  1.0000
  Fe  Fe81      1.0  0.02101  0.15718  0.13945  1.0000
  H   H668      1.0  0.01065  0.15174  0.77676  1.0000
  Fe  Fe82      1.0  0.03973  0.10357  0.09488  1.0000
  H   H669      1.0  0.04552  0.26444  0.81931  1.0000
  S   S165      1.0  0.02959  0.07283  0.03473  1.0000
  C   C416      1.0  0.00925  0.18671  0.82589  1.0000
  Fe  Fe83      1.0  0.64652  0.41382  0.58220  1.0000
  S   S166      1.0  0.63767  0.39989  0.50236  1.0000
  S   S167      1.0  0.68232  0.40235  0.63354  1.0000
  Fe  Fe84      1.0  0.59299  0.44693  0.59014  1.0000
  S   S168      1.0  0.57889  0.43610  0.51179  1.0000
  C   C417      1.0  0.71127  0.38747  0.54759  1.0000
  Fe  Fe85      1.0  0.59371  0.39391  0.53100  1.0000
  Fe  Fe86      1.0  0.62371  0.44335  0.48932  1.0000
  S   S169      1.0  0.63392  0.46817  0.41920  1.0000
  S   S170      1.0  0.60367  0.40402  0.61201  1.0000
  S   S171      1.0  0.63681  0.45770  0.56665  1.0000
  H   H670      1.0  0.69767  0.40130  0.52678  1.0000
  C   C418      1.0  0.61565  0.49940  0.42085  1.0000
  C   C419      1.0  0.70937  0.38563  0.60073  1.0000
  C   C420      1.0  0.59249  0.51558  0.59714  1.0000
  C   C421      1.0  0.62009  0.51930  0.38318  1.0000
  C   C422      1.0  0.59677  0.50466  0.46044  1.0000
  H   H671      1.0  0.60014  0.50118  0.56979  1.0000
  H   H672      1.0  0.63467  0.51542  0.35241  1.0000
  H   H673      1.0  0.59308  0.48934  0.48899  1.0000
  C   C423      1.0  0.58287  0.52985  0.46345  1.0000
  H   H674      1.0  0.66331  0.45324  0.66712  1.0000
  H   H675      1.0  0.62533  0.47329  0.29976  1.0000
  C   C424      1.0  0.64588  0.46399  0.28879  1.0000
  S   S172      1.0  0.56741  0.35703  0.51606  1.0000
  N   N42       1.0  0.66398  0.31098  0.54181  1.0000
  C   C425      1.0  0.65922  0.50393  0.24036  1.0000
  H   H676      1.0  0.66115  0.46877  0.31948  1.0000
  C   C426      1.0  0.63333  0.31618  0.54065  1.0000
  H   H677      1.0  0.61268  0.54945  0.56056  1.0000
  H   H678      1.0  0.62391  0.30973  0.50388  1.0000
  H   H679      1.0  0.62839  0.33828  0.54524  1.0000
  C   C427      1.0  0.59967  0.54304  0.59211  1.0000
  H   H680      1.0  0.72653  0.36723  0.66881  1.0000
  H   H681      1.0  0.67443  0.34842  0.50360  1.0000
  H   H682      1.0  0.66259  0.48954  0.67383  1.0000
  H   H683      1.0  0.64310  0.44147  0.28897  1.0000
  C   C428      1.0  0.67769  0.32605  0.49976  1.0000
  H   H684      1.0  0.66925  0.32005  0.46196  1.0000
  H   H685      1.0  0.70079  0.32212  0.49910  1.0000
  H   H686      1.0  0.69090  0.46954  0.70100  1.0000
  H   H687      1.0  0.61568  0.45079  0.70307  1.0000
  H   H688      1.0  0.67120  0.34217  0.59741  1.0000
  C   C429      1.0  0.57525  0.50692  0.63703  1.0000
  C   C430      1.0  0.66787  0.47008  0.69384  1.0000
  H   H689      1.0  0.57659  0.31946  0.62179  1.0000
  C   C431      1.0  0.62131  0.46740  0.72979  1.0000
  H   H690      1.0  0.69916  0.46533  0.25436  1.0000
  H   H691      1.0  0.67468  0.50976  0.27005  1.0000
  C   C432      1.0  0.60574  0.54441  0.38560  1.0000
  H   H692      1.0  0.61472  0.48702  0.71179  1.0000
  H   H693      1.0  0.69852  0.31684  0.59316  1.0000
  C   C433      1.0  0.67536  0.32008  0.59119  1.0000
  C   C434      1.0  0.72773  0.36845  0.62764  1.0000
  C   C435      1.0  0.73043  0.37087  0.52116  1.0000
  H   H694      1.0  0.73122  0.37160  0.47992  1.0000
  S   S173      1.0  0.56665  0.47238  0.64289  1.0000
  H   H695      1.0  0.56740  0.32072  0.71580  1.0000
  H   H696      1.0  0.66583  0.30875  0.62374  1.0000
  H   H697      1.0  0.62239  0.30498  0.57189  1.0000
  H   H698      1.0  0.56874  0.53398  0.49489  1.0000
  H   H699      1.0  0.63901  0.51457  0.24917  1.0000
  C   C436      1.0  0.58746  0.54982  0.42630  1.0000
  N   N43       1.0  0.65561  0.47405  0.23858  1.0000
  C   C437      1.0  0.87682  0.31816  0.72234  1.0000
  H   H700      1.0  0.84415  0.31769  0.48932  1.0000
  C   C438      1.0  0.84940  0.30826  0.71922  1.0000
  C   C439      1.0  0.85815  0.31397  0.38956  1.0000
  H   H701      1.0  0.83613  0.31461  0.68800  1.0000
  S   S174      1.0  0.76643  0.32738  0.51467  1.0000
  C   C440      1.0  0.74729  0.35219  0.54790  1.0000
  C   C441      1.0  0.74665  0.35167  0.60119  1.0000
  H   H702      1.0  0.76038  0.33800  0.62207  1.0000
  H   H703      1.0  0.88475  0.33141  0.69258  1.0000
  H   H704      1.0  0.88151  0.31408  0.39236  1.0000
  H   H705      1.0  0.85036  0.33462  0.40025  1.0000
  C   C442      1.0  0.88717  0.33230  0.24785  1.0000
  H   H706      1.0  0.85275  0.31087  0.34870  1.0000
  H   H707      1.0  0.88845  0.35382  0.23874  1.0000
  H   H708      1.0  0.80556  0.31293  0.42756  1.0000
  S   S175      1.0  0.06029  0.34341  0.39630  1.0000
  S   S176      1.0  0.00206  0.30025  0.33635  1.0000
  H   H709      1.0  0.96219  0.40222  0.61178  1.0000
  S   S177      1.0  0.02464  0.44794  0.69508  1.0000
  S   S178      1.0  0.95699  0.30155  0.55478  1.0000
  C   C443      1.0  0.90733  0.32009  0.27957  1.0000
  H   H710      1.0  0.99198  0.40572  0.65281  1.0000
  C   C444      1.0  0.02578  0.40232  0.30677  1.0000
  H   H711      1.0  0.98827  0.34403  0.24972  1.0000
  H   H712      1.0  0.05916  0.49557  0.26145  1.0000
  Fe  Fe87      1.0  0.97230  0.30295  0.47373  1.0000
  H   H713      1.0  0.05445  0.50666  0.37621  1.0000
  C   C445      1.0  0.02989  0.38272  0.34527  1.0000
  H   H714      1.0  0.04588  0.47539  0.34423  1.0000
  H   H715      1.0  0.01317  0.36418  0.61885  1.0000
  C   C446      1.0  0.97091  0.39623  0.64960  1.0000
  H   H716      1.0  0.01328  0.37879  0.37231  1.0000
  Fe  Fe88      1.0  0.01994  0.32062  0.40503  1.0000
  H   H717      1.0  0.94501  0.33188  0.65453  1.0000
  C   C447      1.0  0.94447  0.35443  0.64932  1.0000
  S   S179      1.0  0.97985  0.34119  0.42863  1.0000
  C   C448      1.0  0.98368  0.35934  0.70664  1.0000
  H   H718      1.0  0.00595  0.41320  0.30442  1.0000
  H   H719      1.0  0.00536  0.36712  0.71196  1.0000
  C   C449      1.0  0.06324  0.48696  0.36220  1.0000
  H   H720      1.0  0.92942  0.36271  0.67801  1.0000
  H   H721      1.0  0.98377  0.35923  0.57702  1.0000
  Fe  Fe89      1.0  0.06268  0.46256  0.65213  1.0000
  Fe  Fe90      1.0  0.96134  0.31849  0.36283  1.0000
  C   C450      1.0  0.99186  0.35510  0.61619  1.0000
  C   C451      1.0  0.05549  0.36866  0.34914  1.0000
  H   H722      1.0  0.93577  0.35860  0.61066  1.0000
  H   H723      1.0  0.95732  0.40552  0.67954  1.0000
  H   H724      1.0  0.98422  0.33690  0.71318  1.0000
  C   C452      1.0  0.04700  0.40748  0.27102  1.0000
  N   N44       1.0  0.97272  0.36628  0.65544  1.0000
  H   H725      1.0  0.99414  0.33261  0.62026  1.0000
  S   S180      1.0  0.93409  0.34005  0.30524  1.0000
  H   H726      1.0  0.97021  0.36818  0.73729  1.0000
  C   C453      1.0  0.05719  0.40704  0.73742  1.0000
  C   C454      1.0  0.03158  0.42124  0.73826  1.0000
  Fe  Fe91      1.0  0.63734  0.45125  0.04773  1.0000
  S   S181      1.0  0.62585  0.42370  0.98339  1.0000
  C   C455      1.0  0.71671  0.41064  0.11116  1.0000
  C   C456      1.0  0.67476  0.38106  0.16106  1.0000
  Fe  Fe92      1.0  0.58742  0.41545  0.03021  1.0000
  Fe  Fe93      1.0  0.60111  0.45957  0.95369  1.0000
  S   S182      1.0  0.60110  0.47348  0.87206  1.0000
  S   S183      1.0  0.61672  0.48820  0.01310  1.0000
  C   C457      1.0  0.68897  0.42034  0.11068  1.0000
  S   S184      1.0  0.60057  0.44050  0.09682  1.0000
  C   C458      1.0  0.60158  0.52754  0.12999  1.0000
  Fe  Fe94      1.0  0.57873  0.47489  0.05681  1.0000
  H   H727      1.0  0.65854  0.36983  0.18078  1.0000
  H   H728      1.0  0.61195  0.51023  0.11283  1.0000
  H   H729      1.0  0.64663  0.41257  0.13537  1.0000
  S   S185      1.0  0.70966  0.33895  0.18759  1.0000
  C   C459      1.0  0.70225  0.37081  0.15979  1.0000
  S   S186      1.0  0.68080  0.45154  0.08064  1.0000
  H   H730      1.0  0.64690  0.48790  0.81294  1.0000
  C   C460      1.0  0.66800  0.40536  0.13537  1.0000
  C   C461      1.0  0.65828  0.48984  0.77603  1.0000
  H   H731      1.0  0.68110  0.49046  0.78494  1.0000
  C   C462      1.0  0.57222  0.52936  0.13023  1.0000
  C   C463      1.0  0.56966  0.54439  0.81576  1.0000
  C   C464      1.0  0.65910  0.44087  0.76655  1.0000
  H   H732      1.0  0.69063  0.46777  0.18770  1.0000
  C   C465      1.0  0.72326  0.38560  0.13478  1.0000
  H   H733      1.0  0.65209  0.50984  0.75897  1.0000
  H   H734      1.0  0.66684  0.51203  0.20307  1.0000
  H   H735      1.0  0.64691  0.43791  0.80255  1.0000
  S   S187      1.0  0.57254  0.37275  0.04281  1.0000
  H   H736      1.0  0.62251  0.33071  0.18121  1.0000
  C   C466      1.0  0.63458  0.46743  0.19937  1.0000
  H   H737      1.0  0.64181  0.47380  0.16067  1.0000
  C   C467      1.0  0.58165  0.50392  0.86529  1.0000
  H   H738      1.0  0.68070  0.43824  0.22370  1.0000
  C   C468      1.0  0.58428  0.51959  0.82075  1.0000
  C   C469      1.0  0.60111  0.30801  0.09712  1.0000
  H   H739      1.0  0.59779  0.51282  0.79020  1.0000
  H   H740      1.0  0.68182  0.43986  0.77631  1.0000
  H   H741      1.0  0.61406  0.47782  0.20674  1.0000
  H   H742      1.0  0.63507  0.35111  0.09691  1.0000
  H   H743      1.0  0.63062  0.44514  0.19819  1.0000
  H   H744      1.0  0.59002  0.32696  0.10927  1.0000
  C   C470      1.0  0.63266  0.31138  0.16861  1.0000
  H   H745      1.0  0.60829  0.46463  0.76474  1.0000
  H   H746      1.0  0.59891  0.30662  0.05500  1.0000
  C   C471      1.0  0.68272  0.46082  0.22562  1.0000
  N   N45       1.0  0.65165  0.46705  0.74161  1.0000
  H   H747      1.0  0.59875  0.54885  0.96812  1.0000
  H   H748      1.0  0.64458  0.32939  0.04501  1.0000
  C   C472      1.0  0.64525  0.33126  0.08724  1.0000
  H   H749      1.0  0.66775  0.33234  0.09868  1.0000
  C   C473      1.0  0.61762  0.54855  0.15081  1.0000
  H   H750      1.0  0.64031  0.54757  0.14897  1.0000
  H   H751      1.0  0.65464  0.42329  0.74117  1.0000
  N   N46       1.0  0.63094  0.30823  0.11269  1.0000
  H   H752      1.0  0.65491  0.31167  0.18175  1.0000
  H   H753      1.0  0.75747  0.30487  0.96362  1.0000
  H   H754      1.0  0.73306  0.42212  0.09220  1.0000
  H   H755      1.0  0.78819  0.33596  0.84693  1.0000
  H   H756      1.0  0.81203  0.34531  0.89704  1.0000
  C   C474      1.0  0.80373  0.32781  0.87490  1.0000
  H   H757      1.0  0.77553  0.33691  0.96225  1.0000
  C   C475      1.0  0.76782  0.31996  0.93805  1.0000
  H   H758      1.0  0.82096  0.31306  0.96901  1.0000
  H   H759      1.0  0.74459  0.37786  0.13385  1.0000
  S   S188      1.0  0.75265  0.32314  0.06854  1.0000
  S   S189      1.0  0.79301  0.33629  0.16777  1.0000
  H   H760      1.0  0.85527  0.34405  0.10895  1.0000
  S   S190      1.0  0.81931  0.36133  0.02720  1.0000
  Fe  Fe95      1.0  0.74912  0.32151  0.15351  1.0000
  H   H761      1.0  0.86113  0.35904  0.94772  1.0000
  C   C476      1.0  0.85500  0.35252  0.02830  1.0000
  C   C477      1.0  0.87075  0.35255  0.98315  1.0000
  Fe  Fe96      1.0  0.79746  0.33376  0.08262  1.0000
  C   C478      1.0  0.86742  0.34404  0.07402  1.0000
  N   N47       1.0  0.79101  0.30720  0.90901  1.0000
  C   C479      1.0  0.89372  0.31144  0.76420  1.0000
  H   H762      1.0  0.82148  0.31906  0.85268  1.0000
  H   H763      1.0  0.84946  0.32646  0.20415  1.0000
  H   H764      1.0  0.75138  0.32847  0.91229  1.0000
  C   C480      1.0  0.86498  0.31688  0.22847  1.0000
  C   C481      1.0  0.89571  0.33601  0.07480  1.0000
  C   C482      1.0  0.89881  0.34350  0.98359  1.0000
  C   C483      1.0  0.06272  0.38654  0.77371  1.0000
  S   S191      1.0  0.00775  0.30334  0.94341  1.0000
  S   S192      1.0  0.92797  0.32406  0.76637  1.0000
  H   H765      1.0  0.00091  0.38873  0.83879  1.0000
  C   C484      1.0  0.05488  0.51266  0.77559  1.0000
  H   H766      1.0  0.01068  0.35810  0.11572  1.0000
  H   H767      1.0  0.05351  0.53531  0.77714  1.0000
  H   H768      1.0  0.91074  0.34303  0.94847  1.0000
  H   H769      1.0  0.01782  0.38905  0.14952  1.0000
  H   H770      1.0  0.01743  0.50251  0.85019  1.0000
  H   H771      1.0  0.99138  0.42530  0.77553  1.0000
  H   H772      1.0  0.04242  0.50100  0.90160  1.0000
  H   H773      1.0  0.98652  0.40391  0.21907  1.0000
  C   C485      1.0  0.04236  0.37973  0.81015  1.0000
  C   C486      1.0  0.01657  0.39359  0.81040  1.0000
  C   C487      1.0  0.00069  0.37551  0.13608  1.0000
  C   C488      1.0  0.00065  0.35050  0.21571  1.0000
  C   C489      1.0  0.03853  0.50943  0.86262  1.0000
  C   C490      1.0  0.06098  0.47071  0.82292  1.0000
  N   N48       1.0  0.98305  0.36601  0.17906  1.0000
  Fe  Fe97      1.0  0.95263  0.31551  0.83754  1.0000
  H   H774      1.0  0.04034  0.46304  0.80958  1.0000
  Fe  Fe98      1.0  0.00964  0.33223  0.87712  1.0000
  H   H775      1.0  0.94687  0.34083  0.19113  1.0000
  H   H776      1.0  0.94698  0.35937  0.13172  1.0000
  N   N49       1.0  0.06068  0.50075  0.82645  1.0000
  H   H777      1.0  0.03760  0.53206  0.86585  1.0000
  Fe  Fe99      1.0  0.96292  0.31711  0.95098  1.0000
  S   S193      1.0  0.04931  0.35384  0.85501  1.0000
  S   S194      1.0  0.94612  0.32323  0.03051  1.0000
  H   H778      1.0  0.95638  0.40164  0.17860  1.0000
  H   H779      1.0  0.96946  0.33024  0.13950  1.0000
  H   H780      1.0  0.00988  0.33190  0.19811  1.0000
  C   C491      1.0  0.96059  0.34828  0.15959  1.0000
  H   H781      1.0  0.90517  0.33011  0.11056  1.0000
  C   C492      1.0  0.01123  0.41437  0.77465  1.0000
  S   S195      1.0  0.96624  0.34915  0.88942  1.0000
  S   S196      1.0  0.04029  0.43054  0.22062  1.0000
  H   H782      1.0  0.03479  0.50505  0.75950  1.0000
  C   C493      1.0  0.97022  0.38977  0.20487  1.0000
  H   H783      1.0  0.98806  0.38728  0.10768  1.0000
  C   C494      1.0  0.91132  0.33528  0.02948  1.0000
  H   H784      1.0  0.01841  0.36296  0.22970  1.0000
  H   H785      1.0  0.06536  0.46104  0.86057  1.0000
  S   S197      1.0  0.99628  0.30125  0.82053  1.0000
  H   H786      1.0  0.95727  0.38337  0.23826  1.0000
  S   S198      1.0  0.64650  0.72116  0.59501  1.0000
  Fe  Fe100     1.0  0.61654  0.65986  0.34193  1.0000
  S   S199      1.0  0.65126  0.68814  0.36350  1.0000
  H   H787      1.0  0.66494  0.62852  0.43615  1.0000
  S   S200      1.0  0.62506  0.61522  0.33627  1.0000
  H   H788      1.0  0.61100  0.59457  0.51490  1.0000
  Fe  Fe101     1.0  0.66347  0.76345  0.59668  1.0000
  C   C495      1.0  0.64976  0.70998  0.53204  1.0000
  C   C496      1.0  0.63242  0.68930  0.51413  1.0000
  C   C497      1.0  0.63291  0.68234  0.46236  1.0000
  C   C498      1.0  0.65141  0.69541  0.42886  1.0000
  C   C499      1.0  0.66996  0.71488  0.44751  1.0000
  C   C500      1.0  0.66882  0.72251  0.49886  1.0000
  H   H789      1.0  0.61826  0.67916  0.54014  1.0000
  H   H790      1.0  0.61909  0.66685  0.44849  1.0000
  H   H791      1.0  0.66296  0.61282  0.57517  1.0000
  C   C501      1.0  0.66465  0.59471  0.54985  1.0000
  C   C502      1.0  0.65617  0.57631  0.46607  1.0000
  H   H792      1.0  0.64865  0.58048  0.42660  1.0000
  H   H793      1.0  0.62285  0.62853  0.52607  1.0000
  C   C503      1.0  0.67234  0.62263  0.47502  1.0000
  H   H794      1.0  0.68694  0.58773  0.54971  1.0000
  C   C504      1.0  0.62519  0.61078  0.50022  1.0000
  N   N50       1.0  0.65462  0.60110  0.49778  1.0000
  H   H795      1.0  0.65191  0.57839  0.56801  1.0000
  H   H796      1.0  0.60894  0.55955  0.35614  1.0000
  H   H797      1.0  0.68497  0.72433  0.42216  1.0000
  H   H798      1.0  0.67201  0.64143  0.49865  1.0000
  H   H799      1.0  0.61725  0.61681  0.46190  1.0000
  H   H800      1.0  0.67801  0.56819  0.46348  1.0000
  H   H801      1.0  0.68285  0.73801  0.51276  1.0000
  C   C505      1.0  0.58997  0.56197  0.62770  1.0000
  S   S201      1.0  0.70911  0.77361  0.59929  1.0000
  H   H802      1.0  0.69463  0.61586  0.47158  1.0000
  Fe  Fe102     1.0  0.58191  0.61009  0.36891  1.0000
  H   H803      1.0  0.64049  0.75023  0.36379  1.0000
  H   H804      1.0  0.59395  0.75693  0.59064  1.0000
  S   S202      1.0  0.59429  0.66233  0.70107  1.0000
  S   S203      1.0  0.60003  0.59615  0.62242  1.0000
  Fe  Fe103     1.0  0.58571  0.61791  0.69248  1.0000
  H   H805      1.0  0.69152  0.67281  0.27223  1.0000
  C   C506      1.0  0.57940  0.77365  0.57852  1.0000
  Fe  Fe104     1.0  0.60250  0.61856  0.26159  1.0000
  S   S204      1.0  0.59731  0.66394  0.26446  1.0000
  H   H806      1.0  0.58584  0.77026  0.68022  1.0000
  H   H807      1.0  0.65505  0.77320  0.28361  1.0000
  C   C507      1.0  0.64034  0.77064  0.38217  1.0000
  H   H808      1.0  0.69115  0.75642  0.34446  1.0000
  H   H809      1.0  0.69521  0.77288  0.40508  1.0000
  H   H810      1.0  0.61874  0.77930  0.37857  1.0000
  S   S205      1.0  0.57555  0.65454  0.38248  1.0000
  S   S206      1.0  0.65325  0.79253  0.53335  1.0000
  C   C508      1.0  0.68974  0.77638  0.36427  1.0000
  C   C509      1.0  0.57198  0.78705  0.66608  1.0000
  S   S207      1.0  0.65083  0.79210  0.65849  1.0000
  H   H811      1.0  0.59230  0.79192  0.57010  1.0000
  C   C510      1.0  0.57264  0.55337  0.66777  1.0000
  H   H812      1.0  0.69112  0.70096  0.70024  1.0000
  H   H813      1.0  0.67560  0.73434  0.69953  1.0000
  C   C511      1.0  0.65511  0.79292  0.30433  1.0000
  C   C512      1.0  0.68305  0.71759  0.72510  1.0000
  H   H814      1.0  0.64448  0.76732  0.42353  1.0000
  N   N51       1.0  0.66149  0.78886  0.35899  1.0000
  H   H815      1.0  0.63933  0.70489  0.24616  1.0000
  H   H816      1.0  0.65866  0.65819  0.25465  1.0000
  H   H817      1.0  0.70630  0.78977  0.34791  1.0000
  H   H818      1.0  0.67262  0.71982  0.25990  1.0000
  H   H819      1.0  0.57121  0.68741  0.56774  1.0000
  H   H820      1.0  0.64272  0.55978  0.48192  1.0000
  H   H821      1.0  0.72264  0.75490  0.70630  1.0000
  C   C513      1.0  0.72903  0.73769  0.73161  1.0000
  H   H822      1.0  0.56877  0.69026  0.49916  1.0000
  H   H823      1.0  0.56719  0.63680  0.55993  1.0000
  H   H824      1.0  0.56949  0.76747  0.54202  1.0000
  S   S208      1.0  0.57121  0.58177  0.43298  1.0000
  C   C514      1.0  0.76491  0.79996  0.68173  1.0000
  H   H825      1.0  0.80313  0.78766  0.64366  1.0000
  C   C515      1.0  0.79314  0.79171  0.67998  1.0000
  C   C516      1.0  0.80853  0.78890  0.72512  1.0000
  H   H826      1.0  0.73863  0.72173  0.70698  1.0000
  C   C517      1.0  0.75131  0.79606  0.45394  1.0000
  S   S209      1.0  0.84363  0.77822  0.72271  1.0000
  H   H827      1.0  0.79758  0.78444  0.35691  1.0000
  H   H828      1.0  0.88539  0.76914  0.45899  1.0000
  H   H829      1.0  0.75442  0.77802  0.52874  1.0000
  S   S210      1.0  0.83203  0.74837  0.41999  1.0000
  C   C518      1.0  0.78821  0.76459  0.48013  1.0000
  C   C519      1.0  0.76360  0.77936  0.49120  1.0000
  C   C520      1.0  0.80065  0.76643  0.43177  1.0000
  Fe  Fe105     1.0  0.85308  0.75415  0.34377  1.0000
  H   H830      1.0  0.79770  0.75178  0.50924  1.0000
  S   S211      1.0  0.85422  0.72187  0.28357  1.0000
  C   C521      1.0  0.78833  0.78309  0.39440  1.0000
  S   S212      1.0  0.84459  0.78861  0.28916  1.0000
  H   H831      1.0  0.84386  0.79099  0.49769  1.0000
  H   H832      1.0  0.74130  0.76651  0.26736  1.0000
  H   H833      1.0  0.79225  0.75891  0.25200  1.0000
  Fe  Fe106     1.0  0.89143  0.79202  0.28479  1.0000
  C   C522      1.0  0.76377  0.79797  0.40555  1.0000
  C   C523      1.0  0.89802  0.78693  0.47146  1.0000
  S   S213      1.0  0.89979  0.75998  0.34424  1.0000
  H   H834      1.0  0.06448  0.78710  0.28698  1.0000
  C   C524      1.0  0.01248  0.69440  0.31155  1.0000
  C   C525      1.0  0.00122  0.74135  0.29126  1.0000
  C   C526      1.0  0.98485  0.68698  0.30038  1.0000
  H   H835      1.0  0.90656  0.78185  0.50986  1.0000
  H   H836      1.0  0.91612  0.78887  0.44476  1.0000
  H   H837      1.0  0.95831  0.74934  0.26860  1.0000
  H   H838      1.0  0.05529  0.78099  0.40207  1.0000
  H   H839      1.0  0.02710  0.67907  0.32424  1.0000
  H   H840      1.0  0.05657  0.59791  0.70583  1.0000
  C   C527      1.0  0.04232  0.79614  0.38054  1.0000
  C   C528      1.0  0.02082  0.72154  0.30707  1.0000
  C   C529      1.0  0.97337  0.73401  0.28076  1.0000
  Fe  Fe107     1.0  0.90020  0.73096  0.27868  1.0000
  C   C530      1.0  0.96527  0.70673  0.28507  1.0000
  H   H841      1.0  0.02786  0.78433  0.35611  1.0000
  S   S214      1.0  0.05562  0.73091  0.32053  1.0000
  H   H842      1.0  0.00752  0.76232  0.28661  1.0000
  H   H843      1.0  0.97848  0.66595  0.30444  1.0000
  S   S215      1.0  0.93110  0.69671  0.27002  1.0000
  C   C531      1.0  0.67878  0.66610  0.23908  1.0000
  S   S216      1.0  0.60764  0.70739  0.04122  1.0000
  S   S217      1.0  0.64164  0.67078  0.81980  1.0000
  S   S218      1.0  0.62567  0.77459  0.11977  1.0000
  Fe  Fe108     1.0  0.67272  0.77523  0.12216  1.0000
  S   S219      1.0  0.70573  0.77723  0.93699  1.0000
  Fe  Fe109     1.0  0.67851  0.77803  0.00703  1.0000
  C   C532      1.0  0.61847  0.69519  0.98166  1.0000
  C   C533      1.0  0.60376  0.67422  0.95801  1.0000
  C   C534      1.0  0.61154  0.66571  0.90886  1.0000
  C   C535      1.0  0.63380  0.67846  0.88332  1.0000
  C   C536      1.0  0.64893  0.69882  0.90769  1.0000
  C   C537      1.0  0.64120  0.70723  0.95658  1.0000
  H   H844      1.0  0.58607  0.66506  0.97730  1.0000
  H   H845      1.0  0.60028  0.64945  0.89064  1.0000
  H   H846      1.0  0.66624  0.70867  0.88846  1.0000
  H   H847      1.0  0.65280  0.72331  0.97433  1.0000
  S   S220      1.0  0.62446  0.59789  0.19652  1.0000
  C   C538      1.0  0.60431  0.57092  0.17361  1.0000
  H   H848      1.0  0.01061  0.63545  0.11601  1.0000
  S   S221      1.0  0.67846  0.74313  0.06255  1.0000
  Fe  Fe110     1.0  0.60477  0.65153  0.78186  1.0000
  N   N52       1.0  0.67391  0.68872  0.20253  1.0000
  Fe  Fe111     1.0  0.63175  0.74560  0.05493  1.0000
  S   S222      1.0  0.69471  0.77247  0.19779  1.0000
  C   C539      1.0  0.65630  0.67913  0.15994  1.0000
  S   S223      1.0  0.63196  0.77810  0.99476  1.0000
  H   H849      1.0  0.68986  0.64865  0.22077  1.0000
  H   H850      1.0  0.66651  0.66193  0.13933  1.0000
  C   C540      1.0  0.70120  0.69827  0.18248  1.0000
  H   H851      1.0  0.71275  0.68177  0.16221  1.0000
  H   H852      1.0  0.63555  0.67174  0.17372  1.0000
  H   H853      1.0  0.69642  0.69547  0.81572  1.0000
  H   H854      1.0  0.65207  0.69569  0.13162  1.0000
  S   S224      1.0  0.60089  0.60663  0.77070  1.0000
  H   H855      1.0  0.71496  0.70580  0.21361  1.0000
  H   H856      1.0  0.67500  0.74159  0.81641  1.0000
  C   C541      1.0  0.69299  0.74902  0.79311  1.0000
  H   H857      1.0  0.69836  0.71552  0.15522  1.0000
  H   H858      1.0  0.70897  0.75712  0.81994  1.0000
  H   H859      1.0  0.59339  0.75389  0.87568  1.0000
  C   C542      1.0  0.71423  0.70419  0.79360  1.0000
  H   H860      1.0  0.58933  0.71850  0.89043  1.0000
  C   C543      1.0  0.59203  0.55859  0.00446  1.0000
  N   N53       1.0  0.59209  0.58866  0.00028  1.0000
  C   C544      1.0  0.57497  0.57232  0.17527  1.0000
  N   N54       1.0  0.70482  0.72712  0.76085  1.0000
  H   H861      1.0  0.57203  0.61983  0.95464  1.0000
  H   H862      1.0  0.58083  0.62331  0.04625  1.0000
  H   H863      1.0  0.65459  0.72849  0.20178  1.0000
  H   H864      1.0  0.63567  0.59162  0.02067  1.0000
  C   C545      1.0  0.57914  0.73620  0.87122  1.0000
  H   H865      1.0  0.72344  0.68735  0.77059  1.0000
  H   H866      1.0  0.62916  0.58956  0.95327  1.0000
  H   H867      1.0  0.73036  0.71082  0.82149  1.0000
  H   H868      1.0  0.68530  0.76649  0.76958  1.0000
  C   C546      1.0  0.62099  0.59804  0.98976  1.0000
  H   H869      1.0  0.60652  0.55128  0.03486  1.0000
  H   H870      1.0  0.57184  0.55632  0.78139  1.0000
  H   H871      1.0  0.57787  0.73127  0.82989  1.0000
  H   H872      1.0  0.62186  0.62066  0.98677  1.0000
  H   H873      1.0  0.58114  0.58944  0.92092  1.0000
  C   C547      1.0  0.65946  0.71147  0.22871  1.0000
  H   H874      1.0  0.56745  0.76558  0.95485  1.0000
  H   H875      1.0  0.72705  0.76791  0.10563  1.0000
  C   C548      1.0  0.73075  0.76762  0.18742  1.0000
  H   H876      1.0  0.66439  0.70954  0.74579  1.0000
  H   H877      1.0  0.59628  0.59538  0.08068  1.0000
  C   C549      1.0  0.57343  0.59730  0.95818  1.0000
  C   C550      1.0  0.58198  0.60065  0.04858  1.0000
  H   H878      1.0  0.57072  0.55071  0.01393  1.0000
  C   C551      1.0  0.74947  0.79269  0.99818  1.0000
  Fe  Fe112     1.0  0.86055  0.79146  0.91283  1.0000
  H   H879      1.0  0.80500  0.78104  0.89229  1.0000
  C   C552      1.0  0.78966  0.78418  0.92192  1.0000
  H   H880      1.0  0.87804  0.75991  0.01688  1.0000
  H   H881      1.0  0.75511  0.77061  0.87595  1.0000
  S   S225      1.0  0.82411  0.75453  0.15789  1.0000
  C   C553      1.0  0.77803  0.76085  0.22005  1.0000
  H   H882      1.0  0.82070  0.70956  0.01068  1.0000
  C   C554      1.0  0.74107  0.76572  0.13764  1.0000
  C   C555      1.0  0.87630  0.70688  0.98825  1.0000
  N   N55       1.0  0.86283  0.71965  0.03305  1.0000
  C   C556      1.0  0.83365  0.72759  0.02013  1.0000
  H   H883      1.0  0.77753  0.75950  0.09038  1.0000
  C   C557      1.0  0.87874  0.74413  0.04757  1.0000
  C   C558      1.0  0.74920  0.76511  0.22873  1.0000
  C   C559      1.0  0.76972  0.76112  0.12900  1.0000
  C   C560      1.0  0.78823  0.75887  0.17009  1.0000
  S   S226      1.0  0.85515  0.75371  0.86607  1.0000
  C   C561      1.0  0.74121  0.78281  0.95064  1.0000
  H   H884      1.0  0.82319  0.73838  0.05230  1.0000
  H   H885      1.0  0.88445  0.69404  0.08740  1.0000
  C   C562      1.0  0.86271  0.70006  0.07615  1.0000
  H   H886      1.0  0.85235  0.70896  0.11043  1.0000
  H   H887      1.0  0.86473  0.68854  0.97549  1.0000
  Fe  Fe113     1.0  0.86436  0.78093  0.79917  1.0000
  H   H888      1.0  0.89834  0.70045  0.99637  1.0000
  H   H889      1.0  0.87704  0.72128  0.95537  1.0000
  H   H890      1.0  0.83299  0.74165  0.98663  1.0000
  H   H891      1.0  0.86986  0.75350  0.08263  1.0000
  C   C563      1.0  0.76136  0.77841  0.91265  1.0000
  Fe  Fe114     1.0  0.84985  0.75680  0.22894  1.0000
  H   H892      1.0  0.85119  0.68117  0.06637  1.0000
  H   H893      1.0  0.86491  0.79833  0.14478  1.0000
  H   H894      1.0  0.80769  0.79239  0.80666  1.0000
  C   C564      1.0  0.79798  0.79413  0.96926  1.0000
  H   H895      1.0  0.73400  0.79617  0.02766  1.0000
  H   H896      1.0  0.74577  0.74541  0.75726  1.0000
  C   C565      1.0  0.79570  0.79439  0.77196  1.0000
  S   S227      1.0  0.89596  0.76345  0.21896  1.0000
  C   C566      1.0  0.77785  0.79839  0.00744  1.0000
  H   H897      1.0  0.84435  0.79917  0.08772  1.0000
  H   H898      1.0  0.03268  0.62772  0.20123  1.0000
  H   H899      1.0  0.97979  0.73476  0.77119  1.0000
  H   H900      1.0  0.04521  0.65622  0.23671  1.0000
  S   S228      1.0  0.03133  0.70268  0.01177  1.0000
  C   C567      1.0  0.95008  0.70607  0.92119  1.0000
  H   H901      1.0  0.00813  0.65176  0.22762  1.0000
  H   H902      1.0  0.90121  0.73913  0.05525  1.0000
  H   H903      1.0  0.98681  0.66002  0.14362  1.0000
  C   C568      1.0  0.99507  0.68470  0.93939  1.0000
  N   N56       1.0  0.03036  0.66615  0.16138  1.0000
  H   H904      1.0  0.00546  0.69907  0.19183  1.0000
  C   C569      1.0  0.00873  0.75830  0.88072  1.0000
  H   H905      1.0  0.98904  0.78460  0.76570  1.0000
  H   H906      1.0  0.06195  0.64032  0.12754  1.0000
  S   S229      1.0  0.92011  0.70801  0.88291  1.0000
  C   C570      1.0  0.02628  0.69531  0.17353  1.0000
  C   C571      1.0  0.03110  0.75208  0.79888  1.0000
  H   H907      1.0  0.02843  0.75159  0.75674  1.0000
  H   H908      1.0  0.04010  0.73201  0.81084  1.0000
  S   S230      1.0  0.06161  0.63193  0.79430  1.0000
  C   C572      1.0  0.97913  0.72312  0.98960  1.0000
  H   H909      1.0  0.01729  0.73853  0.89527  1.0000
  H   H910      1.0  0.93897  0.74028  0.96842  1.0000
  H   H911      1.0  0.00834  0.66932  0.09010  1.0000
  Fe  Fe115     1.0  0.06370  0.68147  0.96360  1.0000
  H   H912      1.0  0.04690  0.76795  0.80772  1.0000
  C   C573      1.0  0.02900  0.64977  0.20881  1.0000
  S   S231      1.0  0.06418  0.63692  0.94523  1.0000
  H   H913      1.0  0.99183  0.71548  0.82557  1.0000
  H   H914      1.0  0.98271  0.73763  0.01975  1.0000
  H   H915      1.0  0.97205  0.78875  0.82604  1.0000
  H   H916      1.0  0.96668  0.67124  0.88115  1.0000
  H   H917      1.0  0.98878  0.76245  0.90162  1.0000
  C   C574      1.0  0.00802  0.65732  0.12626  1.0000
  C   C575      1.0  0.95449  0.72473  0.96041  1.0000
  H   H918      1.0  0.01078  0.66936  0.93072  1.0000
  C   C576      1.0  0.99264  0.78418  0.80761  1.0000
  C   C577      1.0  0.97012  0.68577  0.91137  1.0000
  H   H919      1.0  0.02734  0.70825  0.13846  1.0000
  H   H920      1.0  0.04261  0.70261  0.20047  1.0000
  Fe  Fe116     1.0  0.90183  0.74991  0.87275  1.0000
  C   C578      1.0  0.98397  0.73586  0.81285  1.0000
  S   S232      1.0  0.91077  0.77379  0.80168  1.0000
  H   H921      1.0  0.96340  0.73939  0.83206  1.0000
  N   N57       1.0  0.00412  0.75762  0.82501  1.0000
  H   H922      1.0  0.05981  0.67414  0.10081  1.0000
  C   C579      1.0  0.05811  0.66216  0.13695  1.0000
  H   H923      1.0  0.02382  0.77449  0.89145  1.0000
  S   S233      1.0  0.90688  0.78550  0.92505  1.0000
  C   C580      1.0  0.99957  0.70332  0.97855  1.0000
  S   S234      1.0  0.59443  0.02027  0.46058  1.0000
  S   S235      1.0  0.61071  0.94482  0.44058  1.0000
  S   S236      1.0  0.60493  0.84708  0.59535  1.0000
  S   S237      1.0  0.68839  0.83851  0.59771  1.0000
  H   H924      1.0  0.61348  0.90456  0.63681  1.0000
  C   C581      1.0  0.60772  0.91526  0.47771  1.0000
  C   C582      1.0  0.58314  0.91058  0.50567  1.0000
  C   C583      1.0  0.58168  0.88830  0.53922  1.0000
  C   C584      1.0  0.60515  0.87136  0.54622  1.0000
  C   C585      1.0  0.62929  0.87530  0.51665  1.0000
  C   C586      1.0  0.63048  0.89715  0.48200  1.0000
  H   H925      1.0  0.64739  0.86210  0.52157  1.0000
  H   H926      1.0  0.64950  0.90079  0.46041  1.0000
  H   H927      1.0  0.61596  0.94027  0.65095  1.0000
  C   C587      1.0  0.60095  0.92335  0.64477  1.0000
  Fe  Fe117     1.0  0.64458  0.82235  0.59540  1.0000
  N   N58       1.0  0.58211  0.91952  0.68908  1.0000
  H   H928      1.0  0.58883  0.92838  0.60974  1.0000
  C   C588      1.0  0.60376  0.00760  0.32915  1.0000
  Fe  Fe118     1.0  0.58389  0.97686  0.47713  1.0000
  Fe  Fe119     1.0  0.58380  0.02776  0.54240  1.0000
  S   S238      1.0  0.57852  0.98360  0.56116  1.0000
  Fe  Fe120     1.0  0.69563  0.80550  0.65584  1.0000
  H   H929      1.0  0.64013  0.82593  0.38079  1.0000
  H   H930      1.0  0.61940  0.97949  0.24625  1.0000
  H   H931      1.0  0.57508  0.87707  0.67397  1.0000
  S   S239      1.0  0.72038  0.81469  0.46659  1.0000
  H   H932      1.0  0.58521  0.80544  0.66084  1.0000
  H   H933      1.0  0.61419  0.99484  0.35908  1.0000
  H   H934      1.0  0.61338  0.95636  0.29863  1.0000
  H   H935      1.0  0.66480  0.81308  0.42669  1.0000
  C   C589      1.0  0.60278  0.97006  0.27036  1.0000
  S   S240      1.0  0.71602  0.81294  0.73153  1.0000
  C   C590      1.0  0.66084  0.81548  0.38512  1.0000
  H   H936      1.0  0.67736  0.82935  0.37010  1.0000
  H   H937      1.0  0.57875  0.96254  0.70297  1.0000
  H   H938      1.0  0.67107  0.80607  0.28537  1.0000
  H   H939      1.0  0.62046  0.01804  0.30680  1.0000
  H   H940      1.0  0.59142  0.02373  0.34889  1.0000
  Fe  Fe121     1.0  0.69810  0.80564  0.54069  1.0000
  N   N59       1.0  0.58554  0.99103  0.29622  1.0000
  H   H941      1.0  0.63418  0.80273  0.29868  1.0000
  H   H942      1.0  0.61264  0.89529  0.72979  1.0000
  C   C591      1.0  0.57178  0.00886  0.25784  1.0000
  H   H943      1.0  0.57349  0.96428  0.35774  1.0000
  H   H944      1.0  0.57523  0.04817  0.69017  1.0000
  H   H945      1.0  0.58972  0.95709  0.24525  1.0000
  C   C592      1.0  0.59921  0.91377  0.73497  1.0000
  H   H946      1.0  0.75442  0.81096  0.37663  1.0000
  C   C593      1.0  0.75190  0.80488  0.72866  1.0000
  H   H947      1.0  0.88608  0.85452  0.49033  1.0000
  H   H948      1.0  0.85660  0.83681  0.42018  1.0000
  C   C594      1.0  0.86963  0.81789  0.42089  1.0000
  H   H949      1.0  0.84333  0.82692  0.50974  1.0000
  H   H950      1.0  0.75337  0.80270  0.64666  1.0000
  C   C595      1.0  0.85720  0.80856  0.50862  1.0000
  N   N60       1.0  0.88082  0.81215  0.47246  1.0000
  H   H951      1.0  0.88683  0.82048  0.39245  1.0000
  H   H952      1.0  0.86480  0.80450  0.54811  1.0000
  C   C596      1.0  0.89842  0.83518  0.48883  1.0000
  H   H953      1.0  0.85612  0.80101  0.40746  1.0000
  H   H954      1.0  0.97500  0.81345  0.41941  1.0000
  H   H955      1.0  0.93918  0.80140  0.35527  1.0000
  H   H956      1.0  0.05350  0.04692  0.71757  1.0000
  H   H957      1.0  0.05461  0.84791  0.29678  1.0000
  H   H958      1.0  0.04497  0.99759  0.73202  1.0000
  H   H959      1.0  0.02919  0.80761  0.40849  1.0000
  S   S241      1.0  0.00306  0.86379  0.44028  1.0000
  C   C597      1.0  0.04606  0.04709  0.32984  1.0000
  S   S242      1.0  0.00234  0.97919  0.29756  1.0000
  C   C598      1.0  0.01631  0.01203  0.29461  1.0000
  H   H960      1.0  0.90743  0.83147  0.52744  1.0000
  N   N61       1.0  0.06003  0.81470  0.34986  1.0000
  H   H961      1.0  0.06548  0.84217  0.41230  1.0000
  C   C599      1.0  0.05070  0.03933  0.47566  1.0000
  H   H962      1.0  0.05078  0.99884  0.44428  1.0000
  H   H963      1.0  0.97255  0.89657  0.36686  1.0000
  H   H964      1.0  0.93605  0.88463  0.30384  1.0000
  H   H965      1.0  0.05897  0.95689  0.67489  1.0000
  S   S243      1.0  0.01991  0.94463  0.43322  1.0000
  S   S244      1.0  0.03027  0.90850  0.32988  1.0000
  Fe  Fe122     1.0  0.02690  0.90061  0.41357  1.0000
  C   C600      1.0  0.97627  0.85579  0.39718  1.0000
  Fe  Fe123     1.0  0.02788  0.95258  0.34998  1.0000
  H   H966      1.0  0.03651  0.04743  0.44721  1.0000
  C   C601      1.0  0.04189  0.83366  0.32049  1.0000
  H   H967      1.0  0.91633  0.83851  0.46206  1.0000
  C   C602      1.0  0.94598  0.82220  0.35827  1.0000
  C   C603      1.0  0.96535  0.87577  0.36437  1.0000
  H   H968      1.0  0.02858  0.84626  0.34620  1.0000
  H   H969      1.0  0.02752  0.82250  0.29471  1.0000
  C   C604      1.0  0.96643  0.82902  0.39436  1.0000
  C   C605      1.0  0.03481  0.02081  0.33219  1.0000
  H   H970      1.0  0.04020  0.00735  0.36324  1.0000
  C   C606      1.0  0.00911  0.02949  0.25434  1.0000
  H   H971      1.0  0.06071  0.91103  0.63399  1.0000
  C   C607      1.0  0.93487  0.84223  0.32567  1.0000
  S   S245      1.0  0.90857  0.83452  0.28122  1.0000
  C   C608      1.0  0.05890  0.01187  0.47355  1.0000
  C   C609      1.0  0.94461  0.86902  0.32882  1.0000
  Fe  Fe124     1.0  0.59348  0.01706  0.85083  1.0000
  S   S246      1.0  0.61659  0.99700  0.91546  1.0000
  Fe  Fe125     1.0  0.60393  0.95777  0.87936  1.0000
  S   S247      1.0  0.62990  0.91992  0.86876  1.0000
  S   S248      1.0  0.60456  0.84546  0.05994  1.0000
  S   S249      1.0  0.58519  0.97783  0.81063  1.0000
  C   C610      1.0  0.62462  0.89934  0.92271  1.0000
  C   C611      1.0  0.61534  0.91096  0.96837  1.0000
  C   C612      1.0  0.60962  0.89436  0.01074  1.0000
  C   C613      1.0  0.61374  0.86616  0.00789  1.0000
  C   C614      1.0  0.62382  0.85461  0.96266  1.0000
  C   C615      1.0  0.62899  0.87115  0.91992  1.0000
  H   H972      1.0  0.61280  0.93281  0.97129  1.0000
  H   H973      1.0  0.60228  0.90342  0.04588  1.0000
  H   H974      1.0  0.62681  0.83286  0.96003  1.0000
  H   H975      1.0  0.63583  0.86206  0.88450  1.0000
  Fe  Fe126     1.0  0.57403  0.99581  0.95242  1.0000
  H   H976      1.0  0.68233  0.88912  0.86457  1.0000
  H   H977      1.0  0.68116  0.84166  0.82934  1.0000
  H   H978      1.0  0.58414  0.03678  0.12397  1.0000
  C   C616      1.0  0.69729  0.83636  0.85850  1.0000
  H   H979      1.0  0.68613  0.82952  0.89365  1.0000
  S   S250      1.0  0.57220  0.00411  0.03651  1.0000
  S   S251      1.0  0.67741  0.81025  0.06735  1.0000
  H   H980      1.0  0.58585  0.91007  0.76905  1.0000
  H   H981      1.0  0.58747  0.02003  0.23427  1.0000
  C   C617      1.0  0.69924  0.88220  0.89105  1.0000
  H   H982      1.0  0.70939  0.81849  0.84396  1.0000
  H   H983      1.0  0.68899  0.87593  0.92747  1.0000
  H   H984      1.0  0.71291  0.87501  0.79199  1.0000
  H   H985      1.0  0.71250  0.90020  0.89925  1.0000
  N   N62       1.0  0.71591  0.85964  0.86887  1.0000
  H   H986      1.0  0.61334  0.93103  0.74409  1.0000
  C   C618      1.0  0.72903  0.86898  0.82073  1.0000
  H   H987      1.0  0.72872  0.84305  0.94136  1.0000
  Fe  Fe127     1.0  0.63063  0.80720  0.06005  1.0000
  C   C619      1.0  0.57266  0.04928  0.09686  1.0000
  H   H988      1.0  0.57060  0.02309  0.73865  1.0000
  H   H989      1.0  0.63816  0.04940  0.96385  1.0000
  C   C620      1.0  0.85784  0.81171  0.11287  1.0000
  H   H990      1.0  0.78413  0.80598  0.04423  1.0000
  H   H991      1.0  0.80258  0.81517  0.13222  1.0000
  C   C621      1.0  0.73800  0.85103  0.90523  1.0000
  H   H992      1.0  0.74202  0.85260  0.80313  1.0000
  H   H993      1.0  0.75139  0.83446  0.88914  1.0000
  H   H994      1.0  0.74296  0.88674  0.82694  1.0000
  H   H995      1.0  0.75211  0.86818  0.91497  1.0000
  N   N63       1.0  0.84231  0.83577  0.13196  1.0000
  S   S252      1.0  0.86533  0.81923  0.84519  1.0000
  H   H996      1.0  0.80410  0.84435  0.17326  1.0000
  C   C622      1.0  0.81644  0.82679  0.15826  1.0000
  C   C623      1.0  0.83477  0.85370  0.08848  1.0000
  H   H997      1.0  0.82146  0.84280  0.06041  1.0000
  H   H998      1.0  0.85381  0.86067  0.06750  1.0000
  H   H999      1.0  0.82293  0.87207  0.10124  1.0000
  H   H1000     1.0  0.84936  0.86916  0.18312  1.0000
  C   C624      1.0  0.86021  0.85070  0.16813  1.0000
  H   H1001     1.0  0.86598  0.83770  0.20159  1.0000
  H   H1002     1.0  0.88022  0.85729  0.14996  1.0000
  H   H1003     1.0  0.75735  0.80568  0.81015  1.0000
  C   C625      1.0  0.76733  0.80215  0.77378  1.0000
  H   H1004     1.0  0.82137  0.81302  0.19100  1.0000
  S   S253      1.0  0.83346  0.80111  0.98103  1.0000
  H   H1005     1.0  0.87672  0.81766  0.09045  1.0000
  H   H1006     1.0  0.01936  0.90428  0.20378  1.0000
  C   C626      1.0  0.03362  0.92673  0.11344  1.0000
  H   H1007     1.0  0.99466  0.02288  0.22524  1.0000
  H   H1008     1.0  0.04629  0.93958  0.08710  1.0000
  C   C627      1.0  0.00899  0.92403  0.19386  1.0000
  C   C628      1.0  0.00482  0.82679  0.93501  1.0000
  C   C629      1.0  0.06431  0.03620  0.74798  1.0000
  C   C630      1.0  0.01291  0.96727  0.14988  1.0000
  H   H1009     1.0  0.05628  0.04792  0.12296  1.0000
  H   H1010     1.0  0.99289  0.96403  0.12910  1.0000
  S   S254      1.0  0.05935  0.92932  0.94390  1.0000
  C   C631      1.0  0.05377  0.94665  0.18901  1.0000
  H   H1011     1.0  0.04568  0.90754  0.12045  1.0000
  C   C632      1.0  0.97289  0.84501  0.87111  1.0000
  H   H1012     1.0  0.98767  0.88017  0.82968  1.0000
  S   S255      1.0  0.05661  0.84807  0.95449  1.0000
  Fe  Fe128     1.0  0.91135  0.81002  0.85301  1.0000
  H   H1013     1.0  0.04969  0.95812  0.22490  1.0000
  H   H1014     1.0  0.98881  0.91950  0.17448  1.0000
  C   C633      1.0  0.05095  0.02408  0.00202  1.0000
  H   H1015     1.0  0.01408  0.92140  0.09267  1.0000
  S   S256      1.0  0.94177  0.84350  0.83577  1.0000
  H   H1016     1.0  0.04162  0.02910  0.96554  1.0000
  C   C634      1.0  0.04777  0.04183  0.04325  1.0000
  H   H1017     1.0  0.00783  0.97866  0.18535  1.0000
  C   C635      1.0  0.97900  0.82584  0.90933  1.0000
  H   H1018     1.0  0.02624  0.98076  0.12571  1.0000
  H   H1019     1.0  0.00962  0.81197  0.96454  1.0000
  C   C636      1.0  0.02428  0.84713  0.92294  1.0000
  C   C637      1.0  0.99239  0.86530  0.85919  1.0000
  H   H1020     1.0  0.96395  0.81025  0.91887  1.0000
  C   C638      1.0  0.05950  0.03485  0.09050  1.0000
  N   N64       1.0  0.02734  0.94116  0.16153  1.0000
  C   C639      1.0  0.01800  0.86645  0.88520  1.0000
  H   H1021     1.0  0.06496  0.92742  0.19971  1.0000
  H   H1022     1.0  0.00369  0.93437  0.23032  1.0000
  C   C640      1.0  0.05955  0.00825  0.75617  1.0000
  H   H1023     1.0  0.03293  0.88222  0.87574  1.0000
  H   H1024     1.0  0.00696  0.80127  0.81703  1.0000
