data_image0
_chemical_formula_structural       H2NC2H3CH3CH5S2HNHCHNH2CSFeH3SFeC4HC3H2CSHCHCH3S2FeHCH4C3H2FeSFe2S2C2H2SHCSFeH3CHC2H2SCHC3H6C3SCH2C4HS2C6H3CH2CHFeH4NHSFeCHS2FeHC2NC4HSH2CHCH3SFeH2C2SHC2HCHFe2SH4CSH3C2H4NC2H2SCHCH3CHCHS2FeH5SHCHSCHCHNH3SH3C2SC2HCFeHFeHFeSHS2HC3H5C2H3SHC3SCSHSHC2H4CHCHFeSNH3CSH3CFeH3SHC2H3CNH2C2HFeHCH3CH3SHCH3SFeS2C3HC2H2C2H3CHC2HSH2NCFeH3C2H2CH2CHSFeH2NC2HCH3SCH4CHC2HCSH2CHSFeHCSCHFeSNHCH4CH4CHCHC2HC2HCH2CH2NFeCSHCH2FeHFeCHSHS2CNH3SCH3CHFeCFeS2CFeCHSNHSHSCH2CFeHSH2CH6CH3CHCH3CHNSC2H6C2H2C3HC2HFeHCSHC2SHSHC4H6CS2C2HC3H2SHNH2C2HCHSH2FeHCH2CHFeH2CHCNH2S2CHS2C4H2Fe2CHCH4CH2C4HSCNHCH3C2SH2SHFeHC2HC2H3SHCH4FeSFeSFeS2HFeC2HSCHCH5CHC2HNCH4CHCH7NHCHC2HCSH2C2H6C2NHCSH2CHCH2S2FeSC2HFeHCHCSHCH2CFeH2CHCHCH2CH2C2HCHSHSC3S2NFeSFe2HCH5C2H4NH7NHSHCH2C2HFeC2FeHS4Fe2SH2SC3H4CH2C2H4CHSC3H2CH3S2H3CHCHCH5CSCHNCH2NHCFeHCHCH2SH2C2SCHCHC2FeCH3NC3HC2H2CH2NH3C2H2CH4CNCHSCHCH3C2H3CSH2SFeSCH5SCNSHCH4Fe2H3CHSCH2CH3CSHSFeC5NHC4H5S2CFeCH3CH2C2H2CSH2FeHSFeSC6H2FeSHSH5C2HS3Fe2SH4
_chemical_formula_sum              "H512 N32 C320 S128 Fe64"
_cell_length_a       35.3613
_cell_length_b       35.8393
_cell_length_c       30.662
_cell_angle_alpha    89.5367
_cell_angle_beta     90.3226
_cell_angle_gamma    90.2361

_space_group_name_H-M_alt    "P 1"
_space_group_IT_number       1

loop_
  _space_group_symop_operation_xyz
  'x, y, z'

loop_
  _atom_site_type_symbol
  _atom_site_label
  _atom_site_symmetry_multiplicity
  _atom_site_fract_x
  _atom_site_fract_y
  _atom_site_fract_z
  _atom_site_occupancy
  H   H1        1.0  0.19135  0.14587  0.18592  1.0000
  H   H2        1.0  0.20655  0.10572  0.25026  1.0000
  N   N1        1.0  0.15420  0.13523  0.23983  1.0000
  C   C1        1.0  0.17549  0.10212  0.25488  1.0000
  C   C2        1.0  0.16077  0.14127  0.19275  1.0000
  H   H3        1.0  0.15123  0.11679  0.17339  1.0000
  H   H4        1.0  0.16646  0.07655  0.23717  1.0000
  H   H5        1.0  0.14517  0.16619  0.18043  1.0000
  C   C3        1.0  0.11338  0.12912  0.24756  1.0000
  H   H6        1.0  0.10273  0.10378  0.23062  1.0000
  H   H7        1.0  0.09628  0.15345  0.23641  1.0000
  H   H8        1.0  0.10742  0.12507  0.28293  1.0000
  C   C4        1.0  0.16713  0.16838  0.26418  1.0000
  H   H9        1.0  0.15148  0.19384  0.25368  1.0000
  H   H10       1.0  0.19788  0.17384  0.25941  1.0000
  H   H11       1.0  0.17057  0.09658  0.29011  1.0000
  H   H12       1.0  0.54488  0.27521  0.29124  1.0000
  H   H13       1.0  0.16228  0.16488  0.29981  1.0000
  S   S1        1.0  0.08612  0.19945  0.31783  1.0000
  S   S2        1.0  0.17254  0.26694  0.29907  1.0000
  H   H14       1.0  0.29266  0.25762  0.49304  1.0000
  N   N2        1.0  0.23915  0.27929  0.51387  1.0000
  H   H15       1.0  0.22307  0.12791  0.32797  1.0000
  C   C5        1.0  0.28363  0.13252  0.33013  1.0000
  H   H16       1.0  0.07686  0.15237  0.47168  1.0000
  N   N3        1.0  0.13121  0.13369  0.44962  1.0000
  H   H17       1.0  0.13452  0.09068  0.49890  1.0000
  H   H18       1.0  0.17734  0.17290  0.44375  1.0000
  C   C6        1.0  0.17145  0.14405  0.45537  1.0000
  S   S3        1.0  0.15738  0.24239  0.40061  1.0000
  Fe  Fe1       1.0  0.12364  0.24657  0.33911  1.0000
  H   H19       1.0  0.09518  0.08619  0.46183  1.0000
  H   H20       1.0  0.19044  0.12524  0.43706  1.0000
  H   H21       1.0  0.18020  0.14246  0.49023  1.0000
  S   S4        1.0  0.26387  0.25182  0.37447  1.0000
  Fe  Fe2       1.0  0.24772  0.04668  0.33607  1.0000
  C   C7        1.0  0.21856  0.06010  0.50583  1.0000
  C   C8        1.0  0.12537  0.09472  0.46444  1.0000
  C   C9        1.0  0.24614  0.07830  0.48096  1.0000
  C   C10       1.0  0.27888  0.26888  0.52277  1.0000
  H   H22       1.0  0.25545  0.06651  0.45050  1.0000
  C   C11       1.0  0.27128  0.20590  0.35769  1.0000
  C   C12       1.0  0.24051  0.18245  0.34883  1.0000
  C   C13       1.0  0.24673  0.14571  0.33532  1.0000
  H   H23       1.0  0.21203  0.19265  0.35244  1.0000
  H   H24       1.0  0.11153  0.18863  0.46555  1.0000
  C   C14       1.0  0.10749  0.15895  0.47569  1.0000
  S   S5        1.0  0.19894  0.06604  0.37582  1.0000
  H   H25       1.0  0.11455  0.15681  0.51107  1.0000
  C   C15       1.0  0.12045  0.13712  0.40309  1.0000
  H   H26       1.0  0.12518  0.16595  0.39064  1.0000
  C   C16       1.0  0.26225  0.11172  0.49570  1.0000
  H   H27       1.0  0.09002  0.13035  0.39767  1.0000
  H   H28       1.0  0.13708  0.11805  0.38231  1.0000
  H   H29       1.0  0.14223  0.07483  0.44487  1.0000
  S   S6        1.0  0.29180  0.08684  0.31245  1.0000
  S   S7        1.0  0.10584  0.04624  0.31290  1.0000
  Fe  Fe3       1.0  0.20404  0.26877  0.36261  1.0000
  H   H30       1.0  0.06902  0.22956  0.40266  1.0000
  C   C17       1.0  0.21833  0.24654  0.49711  1.0000
  H   H31       1.0  0.23110  0.23616  0.46635  1.0000
  H   H32       1.0  0.21870  0.22312  0.52112  1.0000
  H   H33       1.0  0.18822  0.25351  0.49040  1.0000
  H   H34       1.0  0.28366  0.12572  0.47636  1.0000
  C   C18       1.0  0.25099  0.12685  0.53547  1.0000
  C   C19       1.0  0.30816  0.19273  0.35271  1.0000
  C   C20       1.0  0.31432  0.15620  0.33843  1.0000
  H   H35       1.0  0.34288  0.14615  0.33435  1.0000
  H   H36       1.0  0.33198  0.21087  0.35945  1.0000
  Fe  Fe4       1.0  0.19853  0.16655  0.69319  1.0000
  S   S8        1.0  0.19187  0.20010  0.63158  1.0000
  Fe  Fe5       1.0  0.21710  0.24705  0.67000  1.0000
  Fe  Fe6       1.0  0.25214  0.18433  0.62002  1.0000
  S   S9        1.0  0.21785  0.21519  0.73297  1.0000
  S   S10       1.0  0.25708  0.14673  0.67851  1.0000
  C   C21       1.0  0.13464  0.10697  0.63788  1.0000
  C   C22       1.0  0.11831  0.08286  0.60727  1.0000
  H   H37       1.0  0.11882  0.09010  0.57306  1.0000
  H   H38       1.0  0.21410  0.12068  0.59074  1.0000
  S   S11       1.0  0.15588  0.12627  0.72082  1.0000
  H   H39       1.0  0.14754  0.13276  0.62715  1.0000
  C   C23       1.0  0.13445  0.09739  0.68216  1.0000
  S   S12       1.0  0.27695  0.23447  0.65300  1.0000
  Fe  Fe7       1.0  0.27606  0.19842  0.71311  1.0000
  H   H40       1.0  0.09482  0.17397  0.68912  1.0000
  H   H41       1.0  0.09989  0.26460  0.76747  1.0000
  H   H42       1.0  0.08299  0.16103  0.74400  1.0000
  C   C24       1.0  0.11704  0.06424  0.69587  1.0000
  H   H43       1.0  0.20097  0.06392  0.64683  1.0000
  C   C25       1.0  0.22322  0.10878  0.56028  1.0000
  C   C26       1.0  0.10474  0.27865  0.73662  1.0000
  H   H44       1.0  0.11636  0.05703  0.73022  1.0000
  H   H45       1.0  0.18521  0.06164  0.56414  1.0000
  S   S13       1.0  0.27093  0.16890  0.55305  1.0000
  C   C27       1.0  0.14174  0.28478  0.72242  1.0000
  H   H46       1.0  0.22110  0.26973  0.57987  1.0000
  C   C28       1.0  0.10296  0.04864  0.62072  1.0000
  C   C29       1.0  0.07317  0.17728  0.71500  1.0000
  C   C30       1.0  0.22885  0.05208  0.65632  1.0000
  H   H47       1.0  0.16521  0.27572  0.74249  1.0000
  H   H48       1.0  0.24982  0.06159  0.63161  1.0000
  H   H49       1.0  0.07308  0.20719  0.72422  1.0000
  H   H50       1.0  0.23693  0.06472  0.68812  1.0000
  H   H51       1.0  0.05633  0.11913  0.66227  1.0000
  H   H52       1.0  0.28080  0.24690  0.54848  1.0000
  C   C31       1.0  0.20701  0.07540  0.54539  1.0000
  C   C32       1.0  0.07418  0.28948  0.71042  1.0000
  C   C33       1.0  0.40795  0.28976  0.74311  1.0000
  S   S14       1.0  0.31934  0.19948  0.76662  1.0000
  C   C34       1.0  0.36578  0.24199  0.71485  1.0000
  H   H53       1.0  0.40104  0.27747  0.67488  1.0000
  H   H54       1.0  0.35405  0.22695  0.68750  1.0000
  C   C35       1.0  0.39259  0.27030  0.70777  1.0000
  C   C36       1.0  0.35470  0.23285  0.75733  1.0000
  C   C37       1.0  0.39731  0.28021  0.78562  1.0000
  C   C38       1.0  0.37093  0.25154  0.79274  1.0000
  H   H55       1.0  0.36270  0.24417  0.82565  1.0000
  S   S15       1.0  0.26477  0.49143  0.13892  1.0000
  S   S16       1.0  0.15063  0.36996  0.26843  1.0000
  C   C39       1.0  0.26192  0.38189  0.19497  1.0000
  C   C40       1.0  0.25914  0.35682  0.23008  1.0000
  C   C41       1.0  0.22465  0.35214  0.25198  1.0000
  C   C42       1.0  0.19275  0.37221  0.23845  1.0000
  C   C43       1.0  0.19530  0.39653  0.20262  1.0000
  C   C44       1.0  0.22981  0.40134  0.18091  1.0000
  H   H56       1.0  0.28389  0.34172  0.24114  1.0000
  H   H57       1.0  0.17062  0.41190  0.19190  1.0000
  H   H58       1.0  0.23143  0.41982  0.15301  1.0000
  C   C45       1.0  0.21441  0.49848  0.24392  1.0000
  H   H59       1.0  0.20915  0.47505  0.22100  1.0000
  H   H60       1.0  0.26872  0.44649  0.24602  1.0000
  C   C46       1.0  0.27286  0.47052  0.26833  1.0000
  H   H61       1.0  0.28992  0.49181  0.25049  1.0000
  Fe  Fe8       1.0  0.29158  0.50598  0.07467  1.0000
  H   H62       1.0  0.18640  0.50988  0.25325  1.0000
  H   H63       1.0  0.22308  0.33364  0.27993  1.0000
  H   H64       1.0  0.22974  0.52079  0.22554  1.0000
  H   H65       1.0  0.20938  0.43224  0.28553  1.0000
  N   N4        1.0  0.23628  0.48599  0.28256  1.0000
  H   H66       1.0  0.46853  0.34147  0.06743  1.0000
  S   S17       1.0  0.30612  0.39053  0.17095  1.0000
  Fe  Fe9       1.0  0.31092  0.44876  0.14409  1.0000
  C   C47       1.0  0.43782  0.33611  0.06174  1.0000
  H   H67       1.0  0.41329  0.33235  0.14500  1.0000
  S   S18       1.0  0.33399  0.45983  0.07749  1.0000
  S   S19       1.0  0.35231  0.48667  0.17723  1.0000
  Fe  Fe10      1.0  0.37148  0.50162  0.10996  1.0000
  H   H68       1.0  0.50597  0.48490  0.06432  1.0000
  C   C48       1.0  0.45371  0.46192  0.15338  1.0000
  C   C49       1.0  0.46343  0.47945  0.11408  1.0000
  N   N5        1.0  0.41415  0.36350  0.08476  1.0000
  C   C50       1.0  0.47853  0.43647  0.17322  1.0000
  C   C51       1.0  0.51309  0.42809  0.15367  1.0000
  C   C52       1.0  0.52298  0.44583  0.11452  1.0000
  C   C53       1.0  0.49836  0.47174  0.09496  1.0000
  H   H69       1.0  0.47078  0.42298  0.20360  1.0000
  S   S20       1.0  0.43121  0.50896  0.08705  1.0000
  H   H70       1.0  0.42714  0.46784  0.16864  1.0000
  H   H71       1.0  0.45133  0.36563  0.14045  1.0000
  C   C54       1.0  0.42100  0.36050  0.13228  1.0000
  H   H72       1.0  0.40390  0.38124  0.15049  1.0000
  C   C55       1.0  0.42413  0.40147  0.06968  1.0000
  H   H73       1.0  0.40734  0.42300  0.08666  1.0000
  H   H74       1.0  0.43154  0.30707  0.07259  1.0000
  H   H75       1.0  0.45442  0.40767  0.07618  1.0000
  S   S21       1.0  0.54258  0.39448  0.17813  1.0000
  Fe  Fe11      1.0  0.30837  0.53035  0.16653  1.0000
  H   H76       1.0  0.35517  0.37614  0.09268  1.0000
  H   H77       1.0  0.36524  0.32762  0.08600  1.0000
  C   C56       1.0  0.37377  0.35616  0.07532  1.0000
  C   C57       1.0  0.24314  0.51806  0.31161  1.0000
  S   S22       1.0  0.12750  0.31078  0.48275  1.0000
  H   H78       1.0  0.25371  0.33472  0.49236  1.0000
  C   C58       1.0  0.06613  0.30671  0.53602  1.0000
  C   C59       1.0  0.07923  0.31477  0.49400  1.0000
  H   H79       1.0  0.29007  0.46044  0.29648  1.0000
  C   C60       1.0  0.23811  0.30961  0.48096  1.0000
  H   H80       1.0  0.06396  0.33351  0.42944  1.0000
  Fe  Fe12      1.0  0.15232  0.32371  0.31809  1.0000
  Fe  Fe13      1.0  0.13873  0.30089  0.41209  1.0000
  S   S23       1.0  0.18813  0.32732  0.37841  1.0000
  H   H81       1.0  0.29581  0.29317  0.53414  1.0000
  H   H82       1.0  0.23026  0.44684  0.33577  1.0000
  H   H83       1.0  0.18661  0.46726  0.31691  1.0000
  H   H84       1.0  0.21611  0.53039  0.32291  1.0000
  C   C61       1.0  0.21472  0.45692  0.30634  1.0000
  S   S24       1.0  0.10051  0.30318  0.35337  1.0000
  H   H85       1.0  0.20853  0.31830  0.47379  1.0000
  H   H86       1.0  0.25986  0.50973  0.34092  1.0000
  H   H87       1.0  0.25101  0.30068  0.44968  1.0000
  C   C62       1.0  0.05379  0.32617  0.46151  1.0000
  C   C63       1.0  0.26312  0.37658  0.74662  1.0000
  H   H88       1.0  0.25849  0.38442  0.71179  1.0000
  H   H89       1.0  0.23603  0.36471  0.75893  1.0000
  H   H90       1.0  0.26912  0.40273  0.76497  1.0000
  H   H91       1.0  0.12291  0.32806  0.62562  1.0000
  N   N6        1.0  0.29440  0.34960  0.75147  1.0000
  C   C64       1.0  0.11782  0.31470  0.65685  1.0000
  C   C65       1.0  0.08060  0.30795  0.67075  1.0000
  H   H92       1.0  0.05709  0.31625  0.65024  1.0000
  H   H93       1.0  0.25885  0.30197  0.73848  1.0000
  S   S25       1.0  0.19460  0.30502  0.66259  1.0000
  C   C66       1.0  0.28535  0.31547  0.72666  1.0000
  H   H94       1.0  0.28127  0.32166  0.69132  1.0000
  C   C67       1.0  0.14836  0.30239  0.68236  1.0000
  H   H95       1.0  0.08581  0.29807  0.56125  1.0000
  H   H96       1.0  0.23614  0.31659  0.56851  1.0000
  H   H97       1.0  0.19116  0.30033  0.54887  1.0000
  C   C68       1.0  0.22118  0.29207  0.55449  1.0000
  H   H98       1.0  0.33700  0.39260  0.75239  1.0000
  C   C69       1.0  0.32969  0.36651  0.73466  1.0000
  H   H99       1.0  0.32724  0.37370  0.69941  1.0000
  S   S26       1.0  0.43872  0.32728  0.73354  1.0000
  S   S27       1.0  0.41927  0.42805  0.76059  1.0000
  Fe  Fe14      1.0  0.43440  0.37095  0.78502  1.0000
  H   H100      1.0  0.35407  0.34716  0.73843  1.0000
  H   H101      1.0  0.39122  0.49636  0.78763  1.0000
  H   H102      1.0  0.30834  0.29450  0.72975  1.0000
  H   H103      1.0  0.27358  0.32663  0.81178  1.0000
  H   H104      1.0  0.28216  0.52427  0.83857  1.0000
  S   S28       1.0  0.26305  0.51233  0.00967  1.0000
  H   H105      1.0  0.06166  0.39351  0.81544  1.0000
  C   C70       1.0  0.29947  0.33988  0.79807  1.0000
  H   H106      1.0  0.43308  0.33754  0.02581  1.0000
  S   S29       1.0  0.50255  0.49579  0.79429  1.0000
  C   C71       1.0  0.37119  0.51674  0.79850  1.0000
  H   H107      1.0  0.30598  0.36513  0.81780  1.0000
  C   C72       1.0  0.53536  0.49809  0.83699  1.0000
  H   H108      1.0  0.32716  0.48046  0.96020  1.0000
  N   N7        1.0  0.37172  0.52111  0.95263  1.0000
  H   H109      1.0  0.40008  0.52537  0.89096  1.0000
  H   H110      1.0  0.42435  0.51345  0.98730  1.0000
  H   H111      1.0  0.35139  0.47861  0.90892  1.0000
  S   S30       1.0  0.44969  0.38383  0.95014  1.0000
  H   H112      1.0  0.41929  0.40498  0.03398  1.0000
  H   H113      1.0  0.34178  0.53057  0.01188  1.0000
  H   H114      1.0  0.32316  0.31982  0.80286  1.0000
  C   C73       1.0  0.51933  0.35460  0.93108  1.0000
  C   C74       1.0  0.51463  0.38894  0.99841  1.0000
  S   S31       1.0  0.42434  0.45312  0.86301  1.0000
  C   C75       1.0  0.40048  0.49689  0.97352  1.0000
  C   C76       1.0  0.49777  0.37526  0.96036  1.0000
  H   H115      1.0  0.41255  0.47670  0.95014  1.0000
  C   C77       1.0  0.30972  0.53266  0.82673  1.0000
  Fe  Fe15      1.0  0.46375  0.44763  0.80726  1.0000
  H   H116      1.0  0.50616  0.34300  0.90230  1.0000
  Fe  Fe16      1.0  0.43947  0.39421  0.87883  1.0000
  H   H117      1.0  0.38821  0.48031  0.00086  1.0000
  Fe  Fe17      1.0  0.38094  0.42913  0.81831  1.0000
  S   S32       1.0  0.32483  0.45775  0.81738  1.0000
  H   H118      1.0  0.31834  0.51522  0.91929  1.0000
  S   S33       1.0  0.39179  0.37017  0.83927  1.0000
  S   S34       1.0  0.48324  0.39034  0.82630  1.0000
  H   H119      1.0  0.50514  0.46036  0.87976  1.0000
  C   C78       1.0  0.53039  0.47692  0.87520  1.0000
  C   C79       1.0  0.33550  0.50561  0.81321  1.0000
  C   C80       1.0  0.34092  0.49780  0.93447  1.0000
  H   H120      1.0  0.49842  0.40549  0.02073  1.0000
  H   H121      1.0  0.40988  0.29447  0.81305  1.0000
  H   H122      1.0  0.36754  0.35881  0.03978  1.0000
  H   H123      1.0  0.26958  0.59648  0.14062  1.0000
  H   H124      1.0  0.26920  0.65945  0.10687  1.0000
  C   C81       1.0  0.28136  0.65542  0.13899  1.0000
  C   C82       1.0  0.28171  0.61981  0.15803  1.0000
  H   H125      1.0  0.25398  0.57982  0.05977  1.0000
  H   H126      1.0  0.27582  0.78544  0.05625  1.0000
  H   H127      1.0  0.45240  0.57181  0.14233  1.0000
  S   S35       1.0  0.29807  0.72950  0.13566  1.0000
  H   H128      1.0  0.32545  0.78531  0.06729  1.0000
  C   C83       1.0  0.29708  0.61460  0.19970  1.0000
  C   C84       1.0  0.29726  0.68568  0.16107  1.0000
  C   C85       1.0  0.52823  0.73846  0.16345  1.0000
  S   S36       1.0  0.48286  0.71938  0.17060  1.0000
  C   C86       1.0  0.43663  0.59796  0.13481  1.0000
  S   S37       1.0  0.29998  0.56960  0.22191  1.0000
  H   H129      1.0  0.54537  0.73927  0.06963  1.0000
  S   S38       1.0  0.39779  0.75542  0.10504  1.0000
  H   H130      1.0  0.47142  0.59904  0.21391  1.0000
  C   C87       1.0  0.31214  0.64501  0.22239  1.0000
  C   C88       1.0  0.31269  0.68053  0.20280  1.0000
  H   H131      1.0  0.32395  0.64104  0.25471  1.0000
  H   H132      1.0  0.47760  0.64241  0.18543  1.0000
  H   H133      1.0  0.44810  0.64050  0.23264  1.0000
  H   H134      1.0  0.32444  0.70402  0.22022  1.0000
  C   C89       1.0  0.53328  0.77562  0.15029  1.0000
  H   H135      1.0  0.38717  0.60351  0.22924  1.0000
  C   C90       1.0  0.39768  0.59071  0.19867  1.0000
  H   H136      1.0  0.37245  0.58378  0.17848  1.0000
  Fe  Fe18      1.0  0.35019  0.76205  0.15188  1.0000
  S   S39       1.0  0.38733  0.76060  0.21144  1.0000
  N   N8        1.0  0.42355  0.61616  0.17505  1.0000
  H   H137      1.0  0.39429  0.66617  0.19326  1.0000
  H   H138      1.0  0.37753  0.64537  0.14372  1.0000
  H   H139      1.0  0.41172  0.56393  0.20746  1.0000
  C   C91       1.0  0.40338  0.65100  0.16359  1.0000
  S   S40       1.0  0.33116  0.54904  0.10183  1.0000
  H   H140      1.0  0.45590  0.61654  0.11589  1.0000
  H   H141      1.0  0.42172  0.67044  0.14461  1.0000
  H   H142      1.0  0.41248  0.59034  0.11315  1.0000
  C   C92       1.0  0.45655  0.62483  0.20306  1.0000
  Fe  Fe19      1.0  0.43523  0.76024  0.16364  1.0000
  H   H143      1.0  0.32896  0.71952  0.04464  1.0000
  H   H144      1.0  0.11996  0.77546  0.31688  1.0000
  H   H145      1.0  0.25920  0.54062  0.29461  1.0000
  S   S41       1.0  0.22658  0.72731  0.73123  1.0000
  H   H146      1.0  0.20857  0.76113  0.64892  1.0000
  C   C93       1.0  0.22474  0.77428  0.71492  1.0000
  C   C94       1.0  0.12661  0.73616  0.73259  1.0000
  H   H147      1.0  0.11096  0.70926  0.73041  1.0000
  H   H148      1.0  0.14999  0.73504  0.70852  1.0000
  H   H149      1.0  0.13993  0.73757  0.76555  1.0000
  C   C95       1.0  0.21441  0.78319  0.67194  1.0000
  N   N9        1.0  0.10168  0.76842  0.72392  1.0000
  H   H150      1.0  0.11162  0.76817  0.65475  1.0000
  H   H151      1.0  0.07883  0.76841  0.78871  1.0000
  C   C96       1.0  0.08782  0.76675  0.67836  1.0000
  C   C97       1.0  0.06924  0.76729  0.75410  1.0000
  H   H152      1.0  0.05215  0.74143  0.74989  1.0000
  Fe  Fe20      1.0  0.26021  0.71628  0.79234  1.0000
  H   H153      1.0  0.07180  0.74054  0.67214  1.0000
  C   C98       1.0  0.40410  0.77942  0.82796  1.0000
  H   H154      1.0  0.38672  0.78341  0.73047  1.0000
  H   H155      1.0  0.44894  0.76227  0.78522  1.0000
  H   H156      1.0  0.40886  0.56246  0.78548  1.0000
  C   C99       1.0  0.47306  0.61989  0.76835  1.0000
  H   H157      1.0  0.44195  0.62452  0.76844  1.0000
  H   H158      1.0  0.48560  0.64026  0.74494  1.0000
  H   H159      1.0  0.47790  0.59130  0.75548  1.0000
  S   S42       1.0  0.32298  0.72388  0.78900  1.0000
  H   H160      1.0  0.54470  0.64082  0.79029  1.0000
  C   C100      1.0  0.36583  0.78818  0.70374  1.0000
  H   H161      1.0  0.34482  0.76496  0.70521  1.0000
  H   H162      1.0  0.38121  0.78594  0.67232  1.0000
  H   H163      1.0  0.24244  0.64541  0.03650  1.0000
  S   S43       1.0  0.26261  0.65980  0.82472  1.0000
  Fe  Fe21      1.0  0.26278  0.69195  0.88735  1.0000
  S   S44       1.0  0.23608  0.67968  0.95190  1.0000
  S   S45       1.0  0.25368  0.74742  0.85482  1.0000
  C   C101      1.0  0.24388  0.63323  0.96793  1.0000
  C   C102      1.0  0.24802  0.60539  0.93665  1.0000
  C   C103      1.0  0.25310  0.56817  0.94975  1.0000
  H   H164      1.0  0.24611  0.61232  0.90236  1.0000
  C   C104      1.0  0.24592  0.62393  0.01233  1.0000
  C   C105      1.0  0.25550  0.55891  0.99413  1.0000
  H   H165      1.0  0.28496  0.75360  0.94208  1.0000
  H   H166      1.0  0.25222  0.76718  0.98299  1.0000
  C   C106      1.0  0.25244  0.58688  0.02546  1.0000
  C   C107      1.0  0.28123  0.77236  0.97028  1.0000
  H   H167      1.0  0.27923  0.71969  0.03313  1.0000
  H   H168      1.0  0.25520  0.54659  0.92542  1.0000
  H   H169      1.0  0.41304  0.56066  0.92962  1.0000
  C   C108      1.0  0.35607  0.54654  0.98553  1.0000
  H   H170      1.0  0.49321  0.68396  0.80743  1.0000
  C   C109      1.0  0.38127  0.55446  0.79735  1.0000
  C   C110      1.0  0.38914  0.54343  0.91728  1.0000
  H   H171      1.0  0.30049  0.59121  0.83788  1.0000
  S   S46       1.0  0.32570  0.69723  0.89141  1.0000
  H   H172      1.0  0.45006  0.66667  0.83109  1.0000
  H   H173      1.0  0.37095  0.76763  0.01027  1.0000
  N   N10       1.0  0.31030  0.76520  0.00404  1.0000
  C   C111      1.0  0.30756  0.72593  0.01896  1.0000
  Fe  Fe22      1.0  0.31680  0.75027  0.85443  1.0000
  H   H174      1.0  0.52764  0.77335  0.00296  1.0000
  H   H175      1.0  0.44174  0.59934  0.84493  1.0000
  H   H176      1.0  0.49354  0.66610  0.86209  1.0000
  C   C112      1.0  0.48114  0.66185  0.82902  1.0000
  C   C113      1.0  0.43598  0.78541  0.80186  1.0000
  H   H177      1.0  0.35393  0.75428  0.95721  1.0000
  H   H178      1.0  0.39238  0.75166  0.83134  1.0000
  C   C114      1.0  0.34824  0.77240  0.98566  1.0000
  H   H179      1.0  0.48526  0.59753  0.87542  1.0000
  H   H180      1.0  0.53253  0.73180  0.97082  1.0000
  C   C115      1.0  0.47287  0.59574  0.84209  1.0000
  H   H181      1.0  0.47793  0.56696  0.83001  1.0000
  S   S47       1.0  0.37082  0.62833  0.81192  1.0000
  Fe  Fe23      1.0  0.32528  0.66982  0.82629  1.0000
  H   H182      1.0  0.54388  0.62011  0.84359  1.0000
  H   H183      1.0  0.33458  0.56562  0.97094  1.0000
  N   N11       1.0  0.48946  0.62411  0.81251  1.0000
  C   C116      1.0  0.53083  0.61882  0.81055  1.0000
  C   C117      1.0  0.32003  0.57064  0.82613  1.0000
  H   H184      1.0  0.31164  0.70619  0.99158  1.0000
  C   C118      1.0  0.35586  0.58155  0.81129  1.0000
  H   H185      1.0  0.53800  0.59127  0.79644  1.0000
  H   H186      1.0  0.37854  0.56389  0.00092  1.0000
  H   H187      1.0  0.36817  0.56264  0.90193  1.0000
  S   S48       1.0  0.52773  0.78931  0.87027  1.0000
  C   C119      1.0  0.09261  0.93821  0.28180  1.0000
  H   H188      1.0  0.11035  0.91618  0.26972  1.0000
  H   H189      1.0  0.25336  0.84643  0.26153  1.0000
  H   H190      1.0  0.13652  0.97952  0.27698  1.0000
  H   H191      1.0  0.16323  0.86328  0.27554  1.0000
  C   C120      1.0  0.14296  0.84019  0.28277  1.0000
  H   H192      1.0  0.11424  0.84978  0.27278  1.0000
  C   C121      1.0  0.10742  0.97425  0.28576  1.0000
  C   C122      1.0  0.27693  0.86429  0.27015  1.0000
  H   H193      1.0  0.15048  0.81635  0.26155  1.0000
  C   C123      1.0  0.27065  0.89737  0.29294  1.0000
  S   S49       1.0  0.21203  0.01501  0.28835  1.0000
  H   H194      1.0  0.37982  0.92788  0.08667  1.0000
  H   H195      1.0  0.45629  0.94308  0.16963  1.0000
  C   C124      1.0  0.31375  0.85432  0.25827  1.0000
  H   H196      1.0  0.31852  0.82871  0.24077  1.0000
  S   S50       1.0  0.34843  0.82428  0.14642  1.0000
  Fe  Fe24      1.0  0.39898  0.81766  0.10390  1.0000
  H   H197      1.0  0.40337  0.89154  0.11626  1.0000
  C   C125      1.0  0.42850  0.93350  0.18244  1.0000
  S   S51       1.0  0.44065  0.82245  0.15873  1.0000
  C   C126      1.0  0.40289  0.92222  0.11064  1.0000
  H   H198      1.0  0.47338  0.85012  0.08062  1.0000
  Fe  Fe25      1.0  0.38992  0.82274  0.20188  1.0000
  S   S52       1.0  0.39031  0.86552  0.25459  1.0000
  N   N12       1.0  0.39726  0.94247  0.15191  1.0000
  H   H199      1.0  0.43067  0.90289  0.18821  1.0000
  C   C127      1.0  0.36083  0.93101  0.17145  1.0000
  H   H200      1.0  0.35598  0.94497  0.20326  1.0000
  H   H201      1.0  0.36004  0.90049  0.17804  1.0000
  H   H202      1.0  0.33651  0.93759  0.14959  1.0000
  H   H203      1.0  0.42415  0.94646  0.21493  1.0000
  C   C128      1.0  0.39683  0.98307  0.14318  1.0000
  H   H204      1.0  0.37354  0.99077  0.12028  1.0000
  H   H205      1.0  0.39269  0.99906  0.17379  1.0000
  H   H206      1.0  0.42386  0.99268  0.12830  1.0000
  H   H207      1.0  0.43017  0.92987  0.09487  1.0000
  C   C129      1.0  0.34429  0.87715  0.26986  1.0000
  H   H208      1.0  0.50927  0.79307  0.14394  1.0000
  C   C130      1.0  0.33802  0.91017  0.29266  1.0000
  H   H209      1.0  0.53806  0.85402  0.05075  1.0000
  C   C131      1.0  0.47736  0.85007  0.04581  1.0000
  C   C132      1.0  0.05550  0.93058  0.29460  1.0000
  H   H210      1.0  0.08621  0.81070  0.33085  1.0000
  C   C133      1.0  0.11535  0.80025  0.33778  1.0000
  C   C134      1.0  0.10401  0.96270  0.47237  1.0000
  H   H211      1.0  0.29651  0.94606  0.32122  1.0000
  C   C135      1.0  0.05717  0.82282  0.44153  1.0000
  H   H212      1.0  0.05378  0.01661  0.45528  1.0000
  H   H213      1.0  0.18390  0.80733  0.37600  1.0000
  C   C136      1.0  0.05793  0.99603  0.42877  1.0000
  H   H214      1.0  0.20429  0.83663  0.33473  1.0000
  H   H215      1.0  0.12746  0.97449  0.45263  1.0000
  N   N13       1.0  0.14403  0.82955  0.32945  1.0000
  Fe  Fe26      1.0  0.16437  0.03003  0.33233  1.0000
  C   C137      1.0  0.08494  0.00309  0.30154  1.0000
  S   S53       1.0  0.22456  0.90930  0.30788  1.0000
  H   H216      1.0  0.10704  0.87371  0.34887  1.0000
  C   C138      1.0  0.18200  0.81522  0.34087  1.0000
  H   H217      1.0  0.08007  0.00722  0.40641  1.0000
  H   H218      1.0  0.09670  0.94287  0.38783  1.0000
  Fe  Fe27      1.0  0.20843  0.01431  0.41518  1.0000
  H   H219      1.0  0.11359  0.93516  0.48504  1.0000
  Fe  Fe28      1.0  0.22085  0.96715  0.33468  1.0000
  C   C139      1.0  0.13570  0.86257  0.35632  1.0000
  H   H220      1.0  0.13704  0.85579  0.39182  1.0000
  S   S54       1.0  0.19726  0.01912  0.48679  1.0000
  H   H221      1.0  0.08316  0.90482  0.42309  1.0000
  S   S55       1.0  0.26087  0.99750  0.37955  1.0000
  S   S56       1.0  0.16977  0.97943  0.37454  1.0000
  C   C140      1.0  0.06682  0.83223  0.48426  1.0000
  N   N14       1.0  0.06868  0.95916  0.44673  1.0000
  H   H222      1.0  0.10048  0.98140  0.50078  1.0000
  H   H223      1.0  0.07655  0.82865  0.41537  1.0000
  H   H224      1.0  0.15634  0.88552  0.35013  1.0000
  S   S57       1.0  0.10979  0.85511  0.49407  1.0000
  C   C141      1.0  0.07452  0.93278  0.41064  1.0000
  H   H225      1.0  0.11619  0.79058  0.37236  1.0000
  H   H226      1.0  0.18928  0.79028  0.32129  1.0000
  H   H227      1.0  0.36163  0.92791  0.30156  1.0000
  C   C142      1.0  0.30117  0.92046  0.30383  1.0000
  H   H228      1.0  0.04824  0.92887  0.39124  1.0000
  Fe  Fe29      1.0  0.15765  0.90289  0.63770  1.0000
  C   C143      1.0  0.21460  0.99560  0.61701  1.0000
  Fe  Fe30      1.0  0.09928  0.95758  0.60182  1.0000
  S   S58       1.0  0.08680  0.01690  0.58169  1.0000
  S   S59       1.0  0.11120  0.93531  0.66924  1.0000
  C   C144      1.0  0.22963  0.84034  0.73110  1.0000
  Fe  Fe31      1.0  0.07437  0.88750  0.64873  1.0000
  C   C145      1.0  0.21870  0.84922  0.68831  1.0000
  H   H229      1.0  0.08874  0.01379  0.67578  1.0000
  S   S60       1.0  0.12170  0.85319  0.62233  1.0000
  N   N15       1.0  0.22713  0.01096  0.65933  1.0000
  H   H230      1.0  0.20339  0.82732  0.62538  1.0000
  S   S61       1.0  0.21353  0.89601  0.67235  1.0000
  H   H231      1.0  0.23505  0.86241  0.75422  1.0000
  S   S62       1.0  0.14954  0.92973  0.57213  1.0000
  C   C146      1.0  0.21136  0.82061  0.65865  1.0000
  H   H232      1.0  0.23342  0.00467  0.58986  1.0000
  H   H233      1.0  0.21459  0.96456  0.61767  1.0000
  C   C147      1.0  0.26500  0.99628  0.67039  1.0000
  Fe  Fe32      1.0  0.10937  0.88261  0.55940  1.0000
  H   H234      1.0  0.19880  0.96909  0.69794  1.0000
  S   S63       1.0  0.05822  0.91230  0.58403  1.0000
  H   H235      1.0  0.26450  0.96525  0.67323  1.0000
  H   H236      1.0  0.18539  0.00474  0.60842  1.0000
  C   C148      1.0  0.20006  0.99989  0.69369  1.0000
  H   H237      1.0  0.20780  0.01214  0.72577  1.0000
  H   H238      1.0  0.04869  0.83234  0.55128  1.0000
  H   H239      1.0  0.17099  0.00924  0.68548  1.0000
  H   H240      1.0  0.27541  0.00753  0.70202  1.0000
  H   H241      1.0  0.28602  0.00390  0.64489  1.0000
  H   H242      1.0  0.10496  0.82839  0.72568  1.0000
  C   C149      1.0  0.23231  0.80289  0.74450  1.0000
  H   H243      1.0  0.14680  0.80601  0.70714  1.0000
  H   H244      1.0  0.23977  0.79620  0.77787  1.0000
  H   H245      1.0  0.05000  0.79144  0.74840  1.0000
  C   C150      1.0  0.12315  0.80342  0.73053  1.0000
  H   H246      1.0  0.13545  0.80494  0.76395  1.0000
  C   C151      1.0  0.10165  0.03966  0.66511  1.0000
  H   H247      1.0  0.29680  0.80722  0.67458  1.0000
  H   H248      1.0  0.30868  0.80322  0.75580  1.0000
  H   H249      1.0  0.33196  0.82814  0.64001  1.0000
  C   C152      1.0  0.37614  0.85479  0.70470  1.0000
  H   H250      1.0  0.30396  0.85674  0.67524  1.0000
  N   N16       1.0  0.34733  0.82489  0.70795  1.0000
  S   S64       1.0  0.48966  0.82908  0.76306  1.0000
  C   C153      1.0  0.31884  0.82949  0.67285  1.0000
  C   C154      1.0  0.32849  0.82698  0.75073  1.0000
  H   H251      1.0  0.31224  0.85328  0.75423  1.0000
  H   H252      1.0  0.36331  0.88285  0.70867  1.0000
  H   H253      1.0  0.39835  0.85163  0.73045  1.0000
  H   H254      1.0  0.39079  0.85436  0.67269  1.0000
  H   H255      1.0  0.34930  0.82595  0.77783  1.0000
  H   H256      1.0  0.28286  0.80152  0.95763  1.0000
  C   C155      1.0  0.45165  0.84928  0.97249  1.0000
  C   C156      1.0  0.30407  0.79023  0.04130  1.0000
  H   H257      1.0  0.30633  0.82010  0.03134  1.0000
  H   H258      1.0  0.35120  0.80184  0.97409  1.0000
  C   C157      1.0  0.43467  0.85122  0.81917  1.0000
  C   C158      1.0  0.51962  0.85254  0.98370  1.0000
  C   C159      1.0  0.38736  0.80941  0.84937  1.0000
  H   H259      1.0  0.49252  0.85135  0.92056  1.0000
  C   C160      1.0  0.45073  0.82144  0.79677  1.0000
  C   C161      1.0  0.44611  0.84864  0.01769  1.0000
  H   H260      1.0  0.39019  0.86834  0.86234  1.0000
  Fe  Fe33      1.0  0.53941  0.81714  0.80604  1.0000
  H   H261      1.0  0.44662  0.87895  0.81596  1.0000
  C   C162      1.0  0.40306  0.84516  0.84567  1.0000
  S   S65       1.0  0.34404  0.80342  0.87569  1.0000
  H   H262      1.0  0.42756  0.84829  0.95056  1.0000
  C   C163      1.0  0.48843  0.85079  0.95549  1.0000
  C   C164      1.0  0.51401  0.85247  0.02885  1.0000
  S   S66       1.0  0.40011  0.84635  0.03882  1.0000
  H   H263      1.0  0.06866  0.79041  0.67054  1.0000
  S   S67       1.0  0.67324  0.27046  0.17227  1.0000
  H   H264      1.0  0.71209  0.21207  0.21775  1.0000
  C   C165      1.0  0.71437  0.27117  0.20467  1.0000
  C   C166      1.0  0.72702  0.23793  0.22392  1.0000
  C   C167      1.0  0.75921  0.23787  0.25086  1.0000
  C   C168      1.0  0.77870  0.27111  0.25912  1.0000
  H   H265      1.0  0.76915  0.21195  0.26466  1.0000
  H   H266      1.0  0.64790  0.27064  0.26756  1.0000
  H   H267      1.0  0.59689  0.26129  0.21337  1.0000
  H   H268      1.0  0.58575  0.24554  0.29118  1.0000
  H   H269      1.0  0.97995  0.25815  0.34681  1.0000
  H   H270      1.0  0.86956  0.04463  0.20780  1.0000
  C   C169      1.0  0.77024  0.04524  0.51525  1.0000
  S   S68       1.0  0.76527  0.16643  0.46908  1.0000
  S   S69       1.0  0.78669  0.17024  0.33972  1.0000
  C   C170      1.0  0.76548  0.11963  0.48629  1.0000
  C   C171      1.0  0.77322  0.09119  0.45670  1.0000
  H   H271      1.0  0.77708  0.09772  0.42250  1.0000
  C   C172      1.0  0.77520  0.05400  0.47110  1.0000
  C   C173      1.0  0.75929  0.11074  0.53021  1.0000
  C   C174      1.0  0.57610  0.27475  0.29615  1.0000
  H   H272      1.0  0.79548  0.23666  0.49293  1.0000
  H   H273      1.0  0.58200  0.28201  0.33076  1.0000
  S   S70       1.0  0.81856  0.27154  0.29385  1.0000
  H   H274      1.0  0.01532  0.16146  0.30535  1.0000
  N   N17       1.0  0.83998  0.22815  0.54001  1.0000
  H   H275      1.0  0.94558  0.04278  0.53268  1.0000
  H   H276      1.0  0.89213  0.12132  0.48177  1.0000
  C   C175      1.0  0.95056  0.26661  0.33823  1.0000
  C   C176      1.0  0.87566  0.04806  0.49768  1.0000
  H   H277      1.0  0.85553  0.06211  0.47489  1.0000
  C   C177      1.0  0.91726  0.04118  0.38637  1.0000
  H   H278      1.0  0.95736  0.15797  0.35045  1.0000
  S   S71       1.0  0.84053  0.08047  0.29988  1.0000
  H   H279      1.0  0.87959  0.18352  0.53202  1.0000
  H   H280      1.0  0.79977  0.27260  0.53295  1.0000
  Fe  Fe34      1.0  0.83891  0.13527  0.33397  1.0000
  H   H281      1.0  0.90625  0.09325  0.35323  1.0000
  C   C178      1.0  0.98060  0.19135  0.40231  1.0000
  H   H282      1.0  0.91672  0.26759  0.41728  1.0000
  H   H283      1.0  0.94967  0.27216  0.30247  1.0000
  C   C179      1.0  0.01455  0.17533  0.33656  1.0000
  H   H284      1.0  0.93187  0.24223  0.34489  1.0000
  Fe  Fe35      1.0  0.80231  0.17315  0.41045  1.0000
  H   H285      1.0  0.87936  0.28844  0.35420  1.0000
  H   H286      1.0  0.87960  0.21747  0.48894  1.0000
  C   C180      1.0  0.04593  0.19589  0.35089  1.0000
  H   H287      1.0  0.83364  0.26976  0.48961  1.0000
  C   C181      1.0  0.81621  0.25290  0.51263  1.0000
  N   N18       1.0  0.89464  0.07515  0.52673  1.0000
  H   H288      1.0  0.84335  0.10604  0.53634  1.0000
  H   H289      1.0  0.84155  0.18415  0.49296  1.0000
  S   S72       1.0  0.93903  0.19130  0.43323  1.0000
  S   S73       1.0  0.83871  0.22397  0.40304  1.0000
  C   C182      1.0  0.98173  0.17342  0.36201  1.0000
  H   H290      1.0  0.96568  0.27952  0.42210  1.0000
  S   S74       1.0  0.87898  0.18252  0.32029  1.0000
  S   S75       1.0  0.85060  0.13382  0.40569  1.0000
  C   C183      1.0  0.89725  0.06460  0.35777  1.0000
  C   C184      1.0  0.86603  0.05085  0.33458  1.0000
  C   C185      1.0  0.01246  0.21084  0.41736  1.0000
  C   C186      1.0  0.86106  0.20211  0.51220  1.0000
  H   H291      1.0  0.92963  0.12426  0.52087  1.0000
  H   H292      1.0  0.93289  0.09245  0.47600  1.0000
  Fe  Fe36      1.0  0.88620  0.18399  0.39297  1.0000
  Fe  Fe37      1.0  0.82766  0.21801  0.33139  1.0000
  C   C187      1.0  0.04492  0.21356  0.39140  1.0000
  H   H293      1.0  0.94160  0.05175  0.40393  1.0000
  C   C188      1.0  0.91317  0.10455  0.50024  1.0000
  H   H294      1.0  0.01164  0.22492  0.44847  1.0000
  H   H295      1.0  0.75682  0.06699  0.57852  1.0000
  H   H296      1.0  0.79378  0.19042  0.55262  1.0000
  H   H297      1.0  0.75265  0.13253  0.55310  1.0000
  C   C189      1.0  0.76199  0.07363  0.54473  1.0000
  H   H298      1.0  0.85245  0.07079  0.57682  1.0000
  H   H299      1.0  0.80085  0.22542  0.59350  1.0000
  C   C190      1.0  0.81571  0.20673  0.57041  1.0000
  C   C191      1.0  0.88813  0.11333  0.67054  1.0000
  C   C192      1.0  0.84026  0.16093  0.67987  1.0000
  C   C193      1.0  0.86621  0.09218  0.55553  1.0000
  H   H300      1.0  0.99603  0.17830  0.64858  1.0000
  S   S76       1.0  0.90193  0.06657  0.66570  1.0000
  C   C194      1.0  0.02452  0.18649  0.66069  1.0000
  N   N19       1.0  0.03540  0.16486  0.70002  1.0000
  H   H301      1.0  0.92663  0.20018  0.66457  1.0000
  C   C195      1.0  0.03657  0.12468  0.68953  1.0000
  H   H302      1.0  0.85207  0.27061  0.58675  1.0000
  H   H303      1.0  0.00824  0.11385  0.67979  1.0000
  H   H304      1.0  0.94438  0.13367  0.65910  1.0000
  C   C196      1.0  0.00752  0.17111  0.73495  1.0000
  C   C197      1.0  0.86713  0.25101  0.56501  1.0000
  S   S77       1.0  0.02848  0.27797  0.72754  1.0000
  H   H305      1.0  0.01516  0.15541  0.76518  1.0000
  H   H306      1.0  0.83253  0.18678  0.59046  1.0000
  S   S78       1.0  0.85369  0.23600  0.67368  1.0000
  H   H307      1.0  0.00582  0.20118  0.74355  1.0000
  Fe  Fe38      1.0  0.90036  0.27800  0.66338  1.0000
  H   H308      1.0  0.82947  0.10188  0.68355  1.0000
  C   C198      1.0  0.90527  0.17899  0.66764  1.0000
  C   C199      1.0  0.86759  0.18894  0.67441  1.0000
  H   H309      1.0  0.02382  0.21695  0.66754  1.0000
  C   C200      1.0  0.91541  0.14131  0.66519  1.0000
  C   C201      1.0  0.85056  0.12318  0.67823  1.0000
  H   H310      1.0  0.97863  0.16201  0.72496  1.0000
  H   H311      1.0  0.88552  0.23325  0.58606  1.0000
  H   H312      1.0  0.81109  0.16841  0.68558  1.0000
  S   S79       1.0  0.95464  0.26425  0.62987  1.0000
  H   H313      1.0  0.93797  0.07531  0.57632  1.0000
  C   C202      1.0  0.92361  0.05583  0.55340  1.0000
  H   H314      1.0  0.04504  0.18241  0.63378  1.0000
  H   H315      1.0  0.87927  0.11323  0.57747  1.0000
  H   H316      1.0  0.04636  0.10775  0.71802  1.0000
  H   H317      1.0  0.88589  0.26782  0.54324  1.0000
  Fe  Fe39      1.0  0.59705  0.38461  0.14257  1.0000
  S   S80       1.0  0.62534  0.41969  0.09104  1.0000
  Fe  Fe40      1.0  0.65831  0.32554  0.14163  1.0000
  S   S81       1.0  0.69175  0.35473  0.08966  1.0000
  Fe  Fe41      1.0  0.67861  0.40630  0.12770  1.0000
  S   S82       1.0  0.64978  0.37629  0.18226  1.0000
  S   S83       1.0  0.60290  0.33103  0.10648  1.0000
  H   H318      1.0  0.64591  0.47023  0.15920  1.0000
  Fe  Fe42      1.0  0.63532  0.36506  0.05795  1.0000
  C   C203      1.0  0.66367  0.49477  0.16037  1.0000
  C   C204      1.0  0.70285  0.49165  0.15573  1.0000
  H   H319      1.0  0.75617  0.52095  0.15673  1.0000
  S   S84       1.0  0.72323  0.44884  0.14239  1.0000
  C   C205      1.0  0.72577  0.52337  0.15927  1.0000
  H   H320      1.0  0.61679  0.53247  0.16748  1.0000
  C   C206      1.0  0.64722  0.52997  0.16563  1.0000
  H   H321      1.0  0.59563  0.35959  0.25091  1.0000
  H   H322      1.0  0.72449  0.33024  0.19750  1.0000
  H   H323      1.0  0.78122  0.33020  0.24570  1.0000
  H   H324      1.0  0.65625  0.52608  0.07573  1.0000
  H   H325      1.0  0.76882  0.40267  0.09102  1.0000
  C   C207      1.0  0.58174  0.33922  0.27330  1.0000
  H   H326      1.0  0.55077  0.34161  0.26711  1.0000
  C   C208      1.0  0.76616  0.30441  0.23962  1.0000
  C   C209      1.0  0.73402  0.30446  0.21240  1.0000
  H   H327      1.0  0.65217  0.31827  0.25103  1.0000
  N   N20       1.0  0.59533  0.30081  0.26588  1.0000
  C   C210      1.0  0.78382  0.39916  0.05951  1.0000
  H   H328      1.0  0.60107  0.30896  0.19696  1.0000
  H   H329      1.0  0.77710  0.47085  0.08217  1.0000
  H   H330      1.0  0.71982  0.43928  0.05097  1.0000
  H   H331      1.0  0.54930  0.43931  0.09891  1.0000
  C   C211      1.0  0.79102  0.46586  0.05034  1.0000
  H   H332      1.0  0.77354  0.37255  0.04508  1.0000
  C   C212      1.0  0.63664  0.29916  0.27348  1.0000
  H   H333      1.0  0.55594  0.29124  0.21322  1.0000
  H   H334      1.0  0.82203  0.46483  0.05652  1.0000
  H   H335      1.0  0.81439  0.39595  0.06735  1.0000
  H   H336      1.0  0.58757  0.34845  0.30723  1.0000
  H   H337      1.0  0.64434  0.30707  0.30739  1.0000
  H   H338      1.0  0.89966  0.31806  0.31343  1.0000
  H   H339      1.0  0.96715  0.33831  0.32077  1.0000
  N   N21       1.0  0.93867  0.29953  0.36333  1.0000
  H   H340      1.0  0.95784  0.35568  0.37452  1.0000
  C   C213      1.0  0.01527  0.32963  0.47112  1.0000
  H   H341      1.0  0.99592  0.33989  0.44656  1.0000
  C   C214      1.0  0.00205  0.32095  0.51291  1.0000
  C   C215      1.0  0.96582  0.33037  0.35591  1.0000
  H   H342      1.0  0.89054  0.33598  0.36697  1.0000
  C   C216      1.0  0.90048  0.31112  0.34890  1.0000
  S   S85       1.0  0.95375  0.32456  0.52450  1.0000
  H   H343      1.0  0.99493  0.32238  0.36645  1.0000
  H   H344      1.0  0.93021  0.31441  0.43055  1.0000
  C   C217      1.0  0.93778  0.28992  0.41030  1.0000
  C   C218      1.0  0.58677  0.29000  0.22048  1.0000
  H   H345      1.0  0.78141  0.37439  0.71857  1.0000
  H   H346      1.0  0.64868  0.37733  0.77413  1.0000
  H   H347      1.0  0.59028  0.41555  0.77383  1.0000
  H   H348      1.0  0.74615  0.46564  0.69820  1.0000
  H   H349      1.0  0.74352  0.49552  0.74442  1.0000
  H   H350      1.0  0.71450  0.50495  0.69768  1.0000
  C   C219      1.0  0.77145  0.51818  0.64182  1.0000
  C   C220      1.0  0.74302  0.49529  0.70821  1.0000
  N   N22       1.0  0.77337  0.51911  0.68996  1.0000
  H   H351      1.0  0.77507  0.48924  0.62952  1.0000
  C   C221      1.0  0.79409  0.41579  0.76711  1.0000
  S   S86       1.0  0.74688  0.42054  0.78283  1.0000
  H   H352      1.0  0.74373  0.52865  0.62951  1.0000
  H   H353      1.0  0.79402  0.53579  0.62690  1.0000
  C   C222      1.0  0.81055  0.50498  0.70480  1.0000
  H   H354      1.0  0.81492  0.47544  0.69492  1.0000
  C   C223      1.0  0.80320  0.39148  0.73337  1.0000
  H   H355      1.0  0.81319  0.50582  0.74095  1.0000
  H   H356      1.0  0.03983  0.36878  0.74436  1.0000
  S   S87       1.0  0.89041  0.33167  0.62669  1.0000
  S   S88       1.0  0.98022  0.35155  0.64650  1.0000
  Fe  Fe43      1.0  0.92454  0.35851  0.67978  1.0000
  S   S89       1.0  0.91470  0.41127  0.71657  1.0000
  C   C224      1.0  0.86853  0.41214  0.73664  1.0000
  C   C225      1.0  0.84049  0.38941  0.71839  1.0000
  H   H357      1.0  0.84731  0.37067  0.69223  1.0000
  Fe  Fe44      1.0  0.94668  0.31962  0.59682  1.0000
  H   H358      1.0  0.99106  0.35735  0.73690  1.0000
  C   C226      1.0  0.01057  0.37695  0.75350  1.0000
  H   H359      1.0  0.00484  0.40526  0.73978  1.0000
  C   C227      1.0  0.85956  0.43604  0.77086  1.0000
  S   S90       1.0  0.92840  0.30620  0.71957  1.0000
  H   H360      1.0  0.88132  0.45330  0.78543  1.0000
  C   C228      1.0  0.82245  0.43742  0.78654  1.0000
  H   H361      1.0  0.83425  0.52180  0.69111  1.0000
  H   H362      1.0  0.01758  0.30296  0.57778  1.0000
  C   C229      1.0  0.02752  0.30955  0.54540  1.0000
  Fe  Fe45      1.0  0.98205  0.29730  0.68314  1.0000
  H   H363      1.0  0.58716  0.34763  0.79285  1.0000
  H   H364      1.0  0.57250  0.53512  0.80175  1.0000
  C   C230      1.0  0.55774  0.34791  0.93983  1.0000
  H   H365      1.0  0.61022  0.44771  0.81254  1.0000
  C   C231      1.0  0.55919  0.47559  0.90685  1.0000
  H   H366      1.0  0.56632  0.42455  0.82384  1.0000
  C   C232      1.0  0.59474  0.42077  0.80920  1.0000
  H   H367      1.0  0.59487  0.40485  0.89417  1.0000
  H   H368      1.0  0.73006  0.45803  0.99796  1.0000
  C   C233      1.0  0.73611  0.43443  0.02062  1.0000
  H   H369      1.0  0.60726  0.33128  0.84355  1.0000
  H   H370      1.0  0.66887  0.36196  0.82510  1.0000
  C   C234      1.0  0.59268  0.35522  0.82744  1.0000
  C   C235      1.0  0.65220  0.38460  0.80913  1.0000
  H   H371      1.0  0.64021  0.42384  0.88080  1.0000
  C   C236      1.0  0.62182  0.39885  0.87709  1.0000
  H   H372      1.0  0.66968  0.41045  0.81061  1.0000
  S   S91       1.0  0.77513  0.52078  0.82882  1.0000
  H   H373      1.0  0.63576  0.37548  0.89502  1.0000
  S   S92       1.0  0.63213  0.48802  0.93383  1.0000
  C   C237      1.0  0.59289  0.49523  0.89994  1.0000
  C   C238      1.0  0.56820  0.51924  0.83145  1.0000
  C   C239      1.0  0.59675  0.51792  0.86305  1.0000
  S   S93       1.0  0.68428  0.49990  0.81980  1.0000
  S   S94       1.0  0.62336  0.35580  0.98696  1.0000
  N   N23       1.0  0.61536  0.38984  0.83069  1.0000
  Fe  Fe46      1.0  0.68341  0.49804  0.89294  1.0000
  S   S95       1.0  0.73472  0.46220  0.89945  1.0000
  Fe  Fe47      1.0  0.73885  0.46914  0.82703  1.0000
  Fe  Fe48      1.0  0.76647  0.51638  0.90093  1.0000
  H   H374      1.0  0.72448  0.40858  0.00556  1.0000
  C   C240      1.0  0.57479  0.36234  0.97742  1.0000
  H   H375      1.0  0.57418  0.33114  0.91787  1.0000
  H   H376      1.0  0.69485  0.51983  0.98913  1.0000
  H   H377      1.0  0.56580  0.39355  0.03609  1.0000
  H   H378      1.0  0.56470  0.35842  0.84346  1.0000
  H   H379      1.0  0.78692  0.40006  0.97123  1.0000
  C   C241      1.0  0.79756  0.42524  0.98853  1.0000
  C   C242      1.0  0.55300  0.38243  0.00696  1.0000
  H   H380      1.0  0.79433  0.44955  0.96604  1.0000
  H   H381      1.0  0.55609  0.45786  0.93542  1.0000
  H   H382      1.0  0.62228  0.53365  0.85821  1.0000
  H   H383      1.0  0.63168  0.51969  0.02506  1.0000
  N   N24       1.0  0.77710  0.43118  0.02978  1.0000
  H   H384      1.0  0.78547  0.49070  0.02935  1.0000
  H   H385      1.0  0.71769  0.52826  0.04069  1.0000
  H   H386      1.0  0.04042  0.32725  0.80886  1.0000
  H   H387      1.0  0.02772  0.43051  0.81080  1.0000
  H   H388      1.0  0.96017  0.38581  0.84687  1.0000
  H   H389      1.0  0.95969  0.41555  0.79928  1.0000
  H   H390      1.0  0.94469  0.36807  0.79504  1.0000
  N   N25       1.0  0.00492  0.37552  0.80116  1.0000
  H   H391      1.0  0.82843  0.42168  0.99436  1.0000
  S   S96       1.0  0.80927  0.52897  0.95266  1.0000
  H   H392      1.0  0.81589  0.45519  0.81364  1.0000
  C   C243      1.0  0.96573  0.38672  0.81122  1.0000
  H   H393      1.0  0.02834  0.40107  0.85854  1.0000
  H   H394      1.0  0.00807  0.33483  0.85310  1.0000
  C   C244      1.0  0.01147  0.33703  0.81713  1.0000
  C   C245      1.0  0.03185  0.40129  0.82249  1.0000
  H   H395      1.0  0.99125  0.31701  0.80187  1.0000
  Fe  Fe49      1.0  0.68605  0.73655  0.13581  1.0000
  C   C246      1.0  0.60126  0.76734  0.15047  1.0000
  C   C247      1.0  0.59629  0.73009  0.16322  1.0000
  Fe  Fe50      1.0  0.68851  0.65291  0.14796  1.0000
  H   H396      1.0  0.62040  0.71212  0.16798  1.0000
  S   S97       1.0  0.69830  0.70022  0.19366  1.0000
  S   S98       1.0  0.67139  0.68945  0.09177  1.0000
  S   S99       1.0  0.64872  0.60603  0.16473  1.0000
  S   S100      1.0  0.74604  0.74105  0.11353  1.0000
  Fe  Fe51      1.0  0.75750  0.70043  0.16817  1.0000
  Fe  Fe52      1.0  0.73280  0.68989  0.07460  1.0000
  S   S101      1.0  0.74907  0.64923  0.12742  1.0000
  H   H397      1.0  0.72715  0.58280  0.16802  1.0000
  H   H398      1.0  0.66647  0.76483  0.23453  1.0000
  S   S102      1.0  0.64663  0.78488  0.14017  1.0000
  C   C248      1.0  0.55985  0.71570  0.16981  1.0000
  C   C249      1.0  0.64346  0.54117  0.04753  1.0000
  C   C250      1.0  0.68517  0.59433  0.05555  1.0000
  H   H399      1.0  0.62469  0.76947  0.05032  1.0000
  H   H400      1.0  0.66121  0.61032  0.06930  1.0000
  H   H401      1.0  0.78867  0.63090  0.05413  1.0000
  H   H402      1.0  0.70104  0.58207  0.08343  1.0000
  C   C251      1.0  0.67000  0.56196  0.16663  1.0000
  H   H403      1.0  0.58861  0.71348  0.07243  1.0000
  H   H404      1.0  0.61942  0.55772  0.06028  1.0000
  C   C252      1.0  0.70935  0.55845  0.16529  1.0000
  C   C253      1.0  0.56538  0.72240  0.05010  1.0000
  H   H405      1.0  0.65718  0.78361  0.28743  1.0000
  H   H406      1.0  0.79553  0.77542  0.17292  1.0000
  H   H407      1.0  0.73518  0.75516  0.25472  1.0000
  H   H408      1.0  0.55624  0.68686  0.17972  1.0000
  C   C254      1.0  0.73252  0.78091  0.27458  1.0000
  H   H409      1.0  0.84709  0.73255  0.28993  1.0000
  S   S103      1.0  0.80414  0.70448  0.21786  1.0000
  C   C255      1.0  0.81953  0.74976  0.23029  1.0000
  C   C256      1.0  0.83991  0.75589  0.26889  1.0000
  C   C257      1.0  0.81045  0.77998  0.20312  1.0000
  H   H410      1.0  0.72380  0.77217  0.30792  1.0000
  H   H411      1.0  0.77021  0.55969  0.74122  1.0000
  C   C258      1.0  0.76839  0.55788  0.70503  1.0000
  H   H412      1.0  0.74021  0.56921  0.69547  1.0000
  H   H413      1.0  0.68141  0.67699  0.76983  1.0000
  H   H414      1.0  0.79042  0.57688  0.69145  1.0000
  S   S104      1.0  0.58534  0.77767  0.78728  1.0000
  S   S105      1.0  0.71088  0.60322  0.78822  1.0000
  H   H415      1.0  0.77601  0.69959  0.86980  1.0000
  H   H416      1.0  0.74790  0.76165  0.80700  1.0000
  H   H417      1.0  0.70457  0.61444  0.03906  1.0000
  C   C259      1.0  0.72813  0.74179  0.82335  1.0000
  H   H418      1.0  0.73291  0.71355  0.80967  1.0000
  C   C260      1.0  0.78619  0.59962  0.93377  1.0000
  H   H419      1.0  0.54997  0.69695  0.03935  1.0000
  C   C261      1.0  0.78728  0.62202  0.02073  1.0000
  H   H420      1.0  0.78573  0.59111  0.90001  1.0000
  H   H421      1.0  0.72606  0.55930  0.99563  1.0000
  H   H422      1.0  0.69897  0.75041  0.81384  1.0000
  H   H423      1.0  0.61729  0.73621  0.95842  1.0000
  H   H424      1.0  0.59147  0.69539  0.97435  1.0000
  C   C262      1.0  0.60605  0.72066  0.98712  1.0000
  S   S106      1.0  0.74598  0.68558  0.00310  1.0000
  C   C263      1.0  0.65426  0.58316  0.98673  1.0000
  H   H425      1.0  0.64365  0.56210  0.96314  1.0000
  N   N26       1.0  0.58006  0.74408  0.01263  1.0000
  C   C264      1.0  0.72886  0.78041  0.88751  1.0000
  H   H426      1.0  0.70670  0.68823  0.87973  1.0000
  H   H427      1.0  0.73202  0.78157  0.92362  1.0000
  N   N27       1.0  0.73316  0.74194  0.87125  1.0000
  H   H428      1.0  0.70739  0.71672  0.92767  1.0000
  C   C265      1.0  0.70436  0.71744  0.89152  1.0000
  Fe  Fe53      1.0  0.71990  0.55116  0.82811  1.0000
  H   H429      1.0  0.62984  0.60080  0.99605  1.0000
  C   C266      1.0  0.77022  0.64480  0.98901  1.0000
  H   H430      1.0  0.67496  0.60132  0.96922  1.0000
  C   C267      1.0  0.77056  0.63390  0.94538  1.0000
  H   H431      1.0  0.75744  0.65119  0.92068  1.0000
  H   H432      1.0  0.77557  0.72679  0.91871  1.0000
  S   S107      1.0  0.71450  0.55157  0.90062  1.0000
  H   H433      1.0  0.67523  0.72714  0.88375  1.0000
  H   H434      1.0  0.55821  0.77334  0.95680  1.0000
  C   C268      1.0  0.77133  0.72815  0.88264  1.0000
  C   C269      1.0  0.65194  0.61271  0.84427  1.0000
  S   S108      1.0  0.57780  0.69346  0.87405  1.0000
  C   C270      1.0  0.63602  0.68506  0.81566  1.0000
  H   H435      1.0  0.65757  0.58475  0.85497  1.0000
  C   C271      1.0  0.66522  0.66471  0.79616  1.0000
  H   H436      1.0  0.60635  0.62011  0.88953  1.0000
  C   C272      1.0  0.61474  0.66904  0.84940  1.0000
  C   C273      1.0  0.62274  0.63279  0.86361  1.0000
  Fe  Fe54      1.0  0.57743  0.75384  0.85431  1.0000
  C   C274      1.0  0.67342  0.62854  0.81080  1.0000
  H   H437      1.0  0.62998  0.71300  0.80437  1.0000
  H   H438      1.0  0.63068  0.71144  0.00714  1.0000
  H   H439      1.0  0.79376  0.74659  0.86888  1.0000
  N   N28       1.0  0.67168  0.56517  0.02542  1.0000
  C   C275      1.0  0.70403  0.54207  0.01203  1.0000
  C   C276      1.0  0.54814  0.75603  0.98462  1.0000
  C   C277      1.0  0.60061  0.77731  0.02866  1.0000
  H   H440      1.0  0.81374  0.56895  0.03419  1.0000
  C   C278      1.0  0.80056  0.57558  0.96588  1.0000
  C   C279      1.0  0.80228  0.58726  0.00925  1.0000
  H   H441      1.0  0.57342  0.81888  0.13379  1.0000
  H   H442      1.0  0.69631  0.83509  0.19298  1.0000
  C   C280      1.0  0.71716  0.81662  0.20976  1.0000
  H   H443      1.0  0.74498  0.83107  0.20911  1.0000
  H   H444      1.0  0.68503  0.86295  0.26660  1.0000
  N   N29       1.0  0.70544  0.80757  0.25482  1.0000
  H   H445      1.0  0.64612  0.81002  0.23878  1.0000
  H   H446      1.0  0.58175  0.79592  0.04756  1.0000
  H   H447      1.0  0.73355  0.85540  0.28201  1.0000
  C   C281      1.0  0.70498  0.84213  0.28080  1.0000
  C   C282      1.0  0.56974  0.79017  0.14421  1.0000
  H   H448      1.0  0.76136  0.79329  0.27725  1.0000
  H   H449      1.0  0.71965  0.79098  0.18975  1.0000
  C   C283      1.0  0.66715  0.79082  0.25406  1.0000
  H   H450      1.0  0.90074  0.93017  0.22587  1.0000
  H   H451      1.0  0.81415  0.83958  0.19375  1.0000
  H   H452      1.0  0.84571  0.01560  0.24651  1.0000
  H   H453      1.0  0.85494  0.94144  0.20439  1.0000
  C   C284      1.0  0.87782  0.95137  0.22655  1.0000
  N   N30       1.0  0.89176  0.98884  0.21393  1.0000
  C   C285      1.0  0.84062  0.82244  0.25399  1.0000
  H   H454      1.0  0.91038  0.00133  0.27909  1.0000
  S   S109      1.0  0.85129  0.86818  0.26963  1.0000
  C   C286      1.0  0.92128  0.00098  0.24517  1.0000
  H   H455      1.0  0.86607  0.95116  0.26022  1.0000
  C   C287      1.0  0.82104  0.81628  0.21494  1.0000
  H   H456      1.0  0.94608  0.98192  0.24503  1.0000
  H   H457      1.0  0.83800  0.00829  0.18960  1.0000
  H   H458      1.0  0.93212  0.96764  0.16831  1.0000
  C   C288      1.0  0.85995  0.01549  0.21430  1.0000
  C   C289      1.0  0.90795  0.98745  0.16965  1.0000
  H   H459      1.0  0.88654  0.97803  0.14530  1.0000
  H   H460      1.0  0.91848  0.01538  0.15902  1.0000
  H   H461      1.0  0.93158  0.02968  0.23759  1.0000
  C   C290      1.0  0.85039  0.79222  0.28081  1.0000
  S   S110      1.0  0.77499  0.99883  0.53305  1.0000
  H   H462      1.0  0.69620  0.83639  0.31501  1.0000
  H   H463      1.0  0.78115  0.03211  0.44803  1.0000
  S   S111      1.0  0.03912  0.88429  0.29431  1.0000
  Fe  Fe55      1.0  0.93132  0.92010  0.38809  1.0000
  S   S112      1.0  0.94542  0.82783  0.32450  1.0000
  C   C291      1.0  0.03278  0.95964  0.30978  1.0000
  H   H464      1.0  0.00446  0.95406  0.32064  1.0000
  H   H465      1.0  0.91366  0.90832  0.48153  1.0000
  H   H466      1.0  0.86545  0.79681  0.31109  1.0000
  H   H467      1.0  0.03102  0.99428  0.40975  1.0000
  H   H468      1.0  0.85923  0.02686  0.51652  1.0000
  S   S113      1.0  0.93580  0.91934  0.31548  1.0000
  C   C292      1.0  0.04117  0.82545  0.51806  1.0000
  N   N31       1.0  0.89216  0.87111  0.53099  1.0000
  S   S114      1.0  0.94758  0.79547  0.45121  1.0000
  H   H469      1.0  0.98504  0.80663  0.53456  1.0000
  C   C293      1.0  0.03818  0.94496  0.47524  1.0000
  H   H470      1.0  0.84185  0.83889  0.51915  1.0000
  H   H471      1.0  0.04452  0.91622  0.48729  1.0000
  H   H472      1.0  0.83055  0.00298  0.32233  1.0000
  H   H473      1.0  0.86236  0.92335  0.53195  1.0000
  Fe  Fe56      1.0  0.98260  0.87866  0.32651  1.0000
  Fe  Fe57      1.0  0.89793  0.86932  0.31948  1.0000
  H   H474      1.0  0.01344  0.80264  0.39862  1.0000
  H   H475      1.0  0.85229  0.87317  0.47790  1.0000
  H   H476      1.0  0.02998  0.01820  0.32539  1.0000
  C   C294      1.0  0.85512  0.01352  0.33951  1.0000
  H   H477      1.0  0.03439  0.96311  0.50419  1.0000
  S   S115      1.0  0.93258  0.97377  0.42439  1.0000
  C   C295      1.0  0.87567  0.98986  0.36729  1.0000
  H   H478      1.0  0.89637  0.03274  0.47750  1.0000
  H   H479      1.0  0.93983  0.86587  0.48840  1.0000
  C   C296      1.0  0.02139  0.80814  0.43211  1.0000
  H   H480      1.0  0.94431  0.90206  0.52795  1.0000
  H   H481      1.0  0.87943  0.83087  0.48135  1.0000
  H   H482      1.0  0.01061  0.94378  0.45760  1.0000
  C   C297      1.0  0.92386  0.88759  0.50608  1.0000
  S   S116      1.0  0.98089  0.88360  0.39877  1.0000
  H   H483      1.0  0.86725  0.96095  0.37092  1.0000
  S   S117      1.0  0.88855  0.87402  0.39162  1.0000
  Fe  Fe58      1.0  0.93917  0.83656  0.39655  1.0000
  C   C298      1.0  0.90648  0.00381  0.39097  1.0000
  C   C299      1.0  0.00527  0.81057  0.50865  1.0000
  C   C300      1.0  0.86524  0.85272  0.50096  1.0000
  C   C301      1.0  0.99501  0.80300  0.46542  1.0000
  C   C302      1.0  0.04732  0.99602  0.31267  1.0000
  N   N32       1.0  0.66265  0.97600  0.63880  1.0000
  H   H484      1.0  0.71334  0.00584  0.65586  1.0000
  C   C303      1.0  0.69350  0.00239  0.62787  1.0000
  C   C304      1.0  0.67873  0.93891  0.64901  1.0000
  C   C305      1.0  0.74375  0.91620  0.75243  1.0000
  C   C306      1.0  0.73188  0.87980  0.76266  1.0000
  H   H485      1.0  0.77096  0.92069  0.73731  1.0000
  H   H486      1.0  0.74993  0.85646  0.75506  1.0000
  H   H487      1.0  0.69889  0.94039  0.67689  1.0000
  H   H488      1.0  0.65641  0.91840  0.65832  1.0000
  H   H489      1.0  0.69452  0.92747  0.62083  1.0000
  S   S118      1.0  0.77961  0.94733  0.64566  1.0000
  S   S119      1.0  0.73355  0.99184  0.74524  1.0000
  C   C307      1.0  0.72057  0.94656  0.76193  1.0000
  Fe  Fe59      1.0  0.78193  0.99020  0.69826  1.0000
  C   C308      1.0  0.64184  0.98976  0.67713  1.0000
  H   H490      1.0  0.66083  0.99248  0.70604  1.0000
  H   H491      1.0  0.61860  0.97035  0.68667  1.0000
  H   H492      1.0  0.61306  0.95298  0.60818  1.0000
  C   C309      1.0  0.63654  0.97290  0.60118  1.0000
  H   H493      1.0  0.71035  0.99261  0.59958  1.0000
  H   H494      1.0  0.65156  0.96288  0.57168  1.0000
  C   C310      1.0  0.69675  0.87353  0.78234  1.0000
  C   C311      1.0  0.68564  0.94041  0.78216  1.0000
  H   H495      1.0  0.62372  0.00038  0.59275  1.0000
  H   H496      1.0  0.62934  0.01773  0.67079  1.0000
  C   C312      1.0  0.67371  0.90392  0.79228  1.0000
  S   S120      1.0  0.79399  0.03779  0.65222  1.0000
  H   H497      1.0  0.66767  0.96381  0.78974  1.0000
  H   H498      1.0  0.68245  0.03059  0.61948  1.0000
  Fe  Fe60      1.0  0.79722  0.99375  0.60131  1.0000
  H   H499      1.0  0.92927  0.85549  0.58391  1.0000
  S   S121      1.0  0.85883  0.98301  0.61054  1.0000
  Fe  Fe61      1.0  0.84119  0.94057  0.66015  1.0000
  S   S122      1.0  0.86132  0.88148  0.66294  1.0000
  C   C313      1.0  0.98757  0.86503  0.68467  1.0000
  C   C314      1.0  0.97452  0.89935  0.66854  1.0000
  C   C315      1.0  0.93549  0.90522  0.66295  1.0000
  C   C316      1.0  0.90989  0.87630  0.67215  1.0000
  C   C317      1.0  0.92318  0.84184  0.68717  1.0000
  C   C318      1.0  0.96187  0.83642  0.69414  1.0000
  H   H500      1.0  0.99438  0.92164  0.66166  1.0000
  H   H501      1.0  0.92528  0.93199  0.65154  1.0000
  Fe  Fe62      1.0  0.85485  0.02403  0.66510  1.0000
  S   S123      1.0  0.84269  0.98025  0.71629  1.0000
  H   H502      1.0  0.90342  0.81946  0.69415  1.0000
  S   S124      1.0  0.03570  0.85713  0.69433  1.0000
  H   H503      1.0  0.88424  0.83247  0.58431  1.0000
  H   H504      1.0  0.97188  0.80993  0.70665  1.0000
  H   H505      1.0  0.91092  0.03340  0.57378  1.0000
  H   H506      1.0  0.89146  0.91397  0.57918  1.0000
  H   H507      1.0  0.84732  0.88998  0.57225  1.0000
  C   C319      1.0  0.87246  0.90098  0.55453  1.0000
  C   C320      1.0  0.90697  0.84327  0.56252  1.0000
  H   H508      1.0  0.91953  0.81900  0.54550  1.0000
  S   S125      1.0  0.68249  0.82743  0.79379  1.0000
  S   S126      1.0  0.61932  0.79188  0.88565  1.0000
  S   S127      1.0  0.57811  0.86119  0.83320  1.0000
  Fe  Fe63      1.0  0.62366  0.81922  0.82000  1.0000
  Fe  Fe64      1.0  0.57031  0.82988  0.89622  1.0000
  S   S128      1.0  0.56590  0.85359  0.96344  1.0000
  H   H509      1.0  0.64678  0.89940  0.80787  1.0000
  H   H510      1.0  0.61220  0.79436  0.00127  1.0000
  H   H511      1.0  0.75016  0.79968  0.87284  1.0000
  H   H512      1.0  0.70070  0.79204  0.87877  1.0000
