data_image0
_chemical_formula_structural       HC2SCH6CHCNH4CFeS2FeHFeC2SNHSHCHCH2CH2C3H3CHCH2CSHCHCH3C2HCH2C2H2C2HCSH2CHCHSH2CHSCH2C2NH3SCHCH7C2HCSHSHC2H3SH3NHCS2FeHCSHNH2CH2SHCH2CHFeH3CNH2FeHCH3NC2HFeH3CHSCH2SH2CH3SCHSFeSCFeS2HCHFeHFeCS2C3NC6H4CH3FeH2C2HSH5CSHCHCFeH3FeC2H2NH3CHCH4CHCH4C2HCSCFeCSCH3SNFeH2CSHCHFeH2CH4CHCHSFeSNCHFeS2C2H2C7H6CHCHCH4SH2SC2SH5C2NH6C2FeHFeHCH2S2CH3CHNCH2C4HCH3CH2FeCH2CH4C2S3FeS4C5H8CHSH5CFeC2SFeSFeCNFeCH3CHCHCHCH4NCNCHFeCHC2H4SH3SHFeCFe2CSCHNHSH4C2H4CS2CSFeSHSC7H4CHNC2SH4C4H2SCFeH7CH3NFeSCFeS2FeSFeHS2H3CH2C2H3CH2CHSCSH2C2H3CH2C2HCH2CH3CH2CH3CH2CSC3H4CSNFeHNSCH2CHNH6CHCFeS2CH2FeHFeSHSHSHSHCH2C3HSH2C4H2SH3SCSHCHCHNH3CH3C2FeH2CH6C2HFeS2FeSCFe2CSCH2NHC2NHCFeSCFeSHFeSFeS3CSCHFeC4H3CH6CHNH6CHCH2SHFeH2C2HCH2CHC2FeS2CS2CFeHCHCNHC2SH4SH3C2SH3CFeHSHS2H2C3HC3H2CHC2NCHFeC2H4SCH2CSCHCHCHSCNH6CH2CHCHSFeS2FeH2CSHFeH2C2HFe2CHCH3CH2C2HCH6CNCH5FeSHS2CHNC2HSFeHC2H2CH2CHC4H2C2HS2HFeSH2S2HSCHCH2CHCHSHSHC2H2NH2CH2CH3C2HCSC2HCH3C2H5CH2C2HC2HCH5SC2HCHSH2C2SHCH2C2HCH3C2HCHC
_chemical_formula_sum              "H512 C320 S128 N32 Fe64"
_cell_length_a       25.8384
_cell_length_b       27.9398
_cell_length_c       33.2614
_cell_angle_alpha    90.1043
_cell_angle_beta     89.2744
_cell_angle_gamma    89.3202

_space_group_name_H-M_alt    "P 1"
_space_group_IT_number       1

loop_
  _space_group_symop_operation_xyz
  'x, y, z'

loop_
  _atom_site_type_symbol
  _atom_site_label
  _atom_site_symmetry_multiplicity
  _atom_site_fract_x
  _atom_site_fract_y
  _atom_site_fract_z
  _atom_site_occupancy
  H   H1        1.0  0.11251  0.04416  0.12914  1.0000
  C   C1        1.0  0.12655  0.13853  0.29715  1.0000
  C   C2        1.0  0.08328  0.14462  0.10440  1.0000
  S   S1        1.0  0.17939  0.09950  0.30302  1.0000
  C   C3        1.0  0.09647  0.13732  0.26244  1.0000
  H   H2        1.0  0.30583  0.10746  0.29066  1.0000
  H   H3        1.0  0.37568  0.05361  0.26051  1.0000
  H   H4        1.0  0.41298  0.06074  0.30536  1.0000
  H   H5        1.0  0.10794  0.11449  0.23750  1.0000
  H   H6        1.0  0.38273  0.51954  0.25337  1.0000
  H   H7        1.0  0.10957  0.16837  0.11949  1.0000
  C   C4        1.0  0.31584  0.09131  0.32021  1.0000
  H   H8        1.0  0.18101  0.05428  0.13075  1.0000
  C   C5        1.0  0.38192  0.03936  0.29137  1.0000
  N   N1        1.0  0.33356  0.04107  0.31561  1.0000
  H   H9        1.0  0.20249  0.51766  0.38542  1.0000
  H   H10       1.0  0.53493  0.52477  0.48656  1.0000
  H   H11       1.0  0.16108  0.11377  0.52909  1.0000
  H   H12       1.0  0.53931  0.29533  0.51184  1.0000
  C   C6        1.0  0.13195  0.12750  0.54980  1.0000
  Fe  Fe1       1.0  0.21869  0.03796  0.44288  1.0000
  S   S2        1.0  0.20569  0.11356  0.42202  1.0000
  S   S3        1.0  0.09153  0.07659  0.39311  1.0000
  Fe  Fe2       1.0  0.17190  0.07877  0.36768  1.0000
  H   H13       1.0  0.12585  0.50017  0.49344  1.0000
  Fe  Fe3       1.0  0.12643  0.10408  0.44951  1.0000
  C   C7        1.0  0.56336  0.04851  0.57236  1.0000
  C   C8        1.0  0.08868  0.15228  0.53523  1.0000
  S   S4        1.0  0.52117  0.08173  0.43107  1.0000
  N   N2        1.0  0.54335  0.33733  0.56587  1.0000
  H   H14       1.0  0.49672  0.27653  0.55157  1.0000
  S   S5        1.0  0.07997  0.15953  0.48341  1.0000
  H   H15       1.0  0.38750  0.07731  0.55873  1.0000
  C   C9        1.0  0.11126  0.16756  0.32956  1.0000
  H   H16       1.0  0.53525  0.40281  0.53213  1.0000
  C   C10       1.0  0.54487  0.05453  0.38708  1.0000
  H   H17       1.0  0.48207  0.32980  0.52325  1.0000
  H   H18       1.0  0.13568  0.52413  0.37174  1.0000
  C   C11       1.0  0.34713  0.06630  0.56586  1.0000
  H   H19       1.0  0.13444  0.16875  0.35640  1.0000
  H   H20       1.0  0.32647  0.06293  0.53679  1.0000
  C   C12       1.0  0.51394  0.30849  0.53691  1.0000
  C   C13       1.0  0.09821  0.49355  0.51732  1.0000
  C   C14       1.0  0.56567  0.37921  0.54515  1.0000
  H   H21       1.0  0.37264  0.04098  0.37242  1.0000
  H   H22       1.0  0.15200  0.50405  0.42115  1.0000
  H   H23       1.0  0.46967  0.04013  0.36322  1.0000
  C   C15       1.0  0.51094  0.03723  0.35811  1.0000
  H   H24       1.0  0.56739  0.06886  0.54503  1.0000
  C   C16       1.0  0.10443  0.51500  0.55494  1.0000
  H   H25       1.0  0.34590  0.11384  0.33428  1.0000
  H   H26       1.0  0.28044  0.09397  0.33957  1.0000
  C   C17       1.0  0.16348  0.52906  0.39671  1.0000
  S   S6        1.0  0.14184  0.03086  0.47466  1.0000
  H   H27       1.0  0.17147  0.10220  0.60262  1.0000
  C   C18       1.0  0.13793  0.12113  0.59136  1.0000
  H   H28       1.0  0.54704  0.41015  0.82204  1.0000
  C   C19       1.0  0.26555  0.07594  0.74943  1.0000
  H   H29       1.0  0.08856  0.44054  0.64644  1.0000
  H   H30       1.0  0.25719  0.08997  0.71988  1.0000
  H   H31       1.0  0.24397  0.14139  0.78015  1.0000
  C   C20       1.0  0.10705  0.32530  0.67497  1.0000
  C   C21       1.0  0.25820  0.10505  0.78350  1.0000
  H   H32       1.0  0.35561  0.05488  0.64614  1.0000
  C   C22       1.0  0.10039  0.13916  0.61825  1.0000
  H   H33       1.0  0.14756  0.03774  0.70237  1.0000
  H   H34       1.0  0.49246  0.32350  0.61616  1.0000
  C   C23       1.0  0.55267  0.37738  0.80526  1.0000
  C   C24       1.0  0.26714  0.08649  0.82188  1.0000
  H   H35       1.0  0.55957  0.25667  0.81766  1.0000
  H   H36       1.0  0.09890  0.30400  0.70256  1.0000
  C   C25       1.0  0.23974  0.52685  0.80658  1.0000
  C   C26       1.0  0.12768  0.06371  0.77832  1.0000
  H   H37       1.0  0.43483  0.51776  0.65437  1.0000
  C   C27       1.0  0.11316  0.39648  0.71552  1.0000
  S   S7        1.0  0.10759  0.13120  0.67017  1.0000
  H   H38       1.0  0.14543  0.40406  0.63885  1.0000
  H   H39       1.0  0.08805  0.30740  0.64920  1.0000
  C   C28       1.0  0.28539  0.03944  0.82601  1.0000
  H   H40       1.0  0.14959  0.32346  0.66943  1.0000
  C   C29       1.0  0.50833  0.35402  0.59861  1.0000
  H   H41       1.0  0.10249  0.37691  0.74349  1.0000
  S   S8        1.0  0.56959  0.47306  0.64965  1.0000
  H   H42       1.0  0.15611  0.39604  0.71269  1.0000
  H   H43       1.0  0.20468  0.52148  0.78994  1.0000
  C   C30       1.0  0.55994  0.37942  0.76344  1.0000
  H   H44       1.0  0.10074  0.43430  0.71999  1.0000
  S   S9        1.0  0.16222  0.51064  0.67380  1.0000
  C   C31       1.0  0.56503  0.29296  0.76073  1.0000
  H   H45       1.0  0.13322  0.09412  0.75709  1.0000
  H   H46       1.0  0.55984  0.41369  0.74841  1.0000
  C   C32       1.0  0.55961  0.29096  0.80271  1.0000
  C   C33       1.0  0.10275  0.40299  0.64365  1.0000
  N   N3        1.0  0.08866  0.37526  0.67983  1.0000
  H   H47       1.0  0.52904  0.37715  0.62023  1.0000
  H   H48       1.0  0.32801  0.09583  0.58321  1.0000
  H   H49       1.0  0.47529  0.37540  0.58680  1.0000
  S   S10       1.0  0.29134  0.52789  0.73368  1.0000
  C   C34       1.0  0.28762  0.52804  0.78642  1.0000
  H   H50       1.0  0.08532  0.38773  0.61604  1.0000
  C   C35       1.0  0.56679  0.33722  0.74124  1.0000
  H   H51       1.0  0.41533  0.03646  0.62155  1.0000
  H   H52       1.0  0.56868  0.26028  0.74348  1.0000
  H   H53       1.0  0.16574  0.05567  0.79218  1.0000
  H   H54       1.0  0.27159  0.03537  0.61550  1.0000
  H   H55       1.0  0.10112  0.07615  0.80281  1.0000
  H   H56       1.0  0.57005  0.27597  0.59910  1.0000
  H   H57       1.0  0.07334  0.52221  0.61507  1.0000
  C   C36       1.0  0.55380  0.33321  0.82511  1.0000
  C   C37       1.0  0.40659  0.08898  0.93252  1.0000
  H   H58       1.0  0.10796  0.20116  0.91528  1.0000
  C   C38       1.0  0.15345  0.28102  0.94206  1.0000
  S   S11       1.0  0.16053  0.13192  0.04858  1.0000
  H   H59       1.0  0.18038  0.30062  0.96188  1.0000
  S   S12       1.0  0.14276  0.09144  0.93825  1.0000
  H   H60       1.0  0.20997  0.28019  0.87354  1.0000
  C   C39       1.0  0.19833  0.20627  0.95417  1.0000
  C   C40       1.0  0.53297  0.08463  0.01841  1.0000
  H   H61       1.0  0.22628  0.22411  0.97431  1.0000
  H   H62       1.0  0.39114  0.04906  0.86044  1.0000
  H   H63       1.0  0.46742  0.08835  0.05906  1.0000
  S   S13       1.0  0.54302  0.18938  0.88665  1.0000
  H   H64       1.0  0.54577  0.38310  0.96029  1.0000
  H   H65       1.0  0.24318  0.22451  0.88254  1.0000
  H   H66       1.0  0.51497  0.42930  0.90273  1.0000
  N   N4        1.0  0.17911  0.23918  0.92279  1.0000
  H   H67       1.0  0.12096  0.52619  0.97778  1.0000
  C   C41       1.0  0.50208  0.06853  0.05047  1.0000
  S   S14       1.0  0.51310  0.13567  0.99151  1.0000
  S   S15       1.0  0.25899  0.07173  0.97463  1.0000
  Fe  Fe4       1.0  0.17809  0.08065  0.99843  1.0000
  H   H68       1.0  0.13887  0.30682  0.91927  1.0000
  C   C42       1.0  0.55002  0.45201  0.90445  1.0000
  S   S16       1.0  0.25264  0.12136  0.86453  1.0000
  H   H69       1.0  0.49346  0.45740  0.97238  1.0000
  N   N5        1.0  0.42025  0.03948  0.92028  1.0000
  H   H70       1.0  0.50119  0.04925  0.93167  1.0000
  H   H71       1.0  0.40216  0.09207  0.96580  1.0000
  C   C43       1.0  0.14160  0.21407  0.89727  1.0000
  H   H72       1.0  0.11969  0.27011  0.96097  1.0000
  H   H73       1.0  0.25233  0.27430  0.91581  1.0000
  S   S17       1.0  0.54978  0.33094  0.87787  1.0000
  H   H74       1.0  0.18965  0.52096  0.98570  1.0000
  C   C44       1.0  0.42692  0.03728  0.87609  1.0000
  H   H75       1.0  0.07656  0.07291  0.02189  1.0000
  H   H76       1.0  0.12623  0.23798  0.87334  1.0000
  C   C45       1.0  0.22308  0.25534  0.89759  1.0000
  H   H77       1.0  0.16615  0.19286  0.97355  1.0000
  Fe  Fe5       1.0  0.56974  0.17034  0.94872  1.0000
  H   H78       1.0  0.52129  0.51471  0.96228  1.0000
  H   H79       1.0  0.36964  0.10119  0.91876  1.0000
  H   H80       1.0  0.45895  0.06068  0.86558  1.0000
  C   C46       1.0  0.53036  0.47757  0.97236  1.0000
  N   N6        1.0  0.56980  0.45457  0.94588  1.0000
  H   H81       1.0  0.54379  0.48000  0.00395  1.0000
  H   H82       1.0  0.43732  0.11455  0.92333  1.0000
  Fe  Fe6       1.0  0.22228  0.07510  0.91417  1.0000
  H   H83       1.0  0.21857  0.17461  0.94066  1.0000
  C   C47       1.0  0.09859  0.12205  0.06854  1.0000
  H   H84       1.0  0.53925  0.48797  0.89278  1.0000
  H   H85       1.0  0.15981  0.18240  0.88209  1.0000
  H   H86       1.0  0.37490  0.61920  0.14558  1.0000
  N   N7        1.0  0.36687  0.66922  0.19457  1.0000
  C   C48       1.0  0.45745  0.60052  0.30152  1.0000
  C   C49       1.0  0.42153  0.68400  0.19267  1.0000
  H   H87       1.0  0.46479  0.71740  0.27861  1.0000
  Fe  Fe7       1.0  0.55258  0.95685  0.23160  1.0000
  H   H88       1.0  0.56621  0.83828  0.27852  1.0000
  H   H89       1.0  0.46907  0.61119  0.13488  1.0000
  H   H90       1.0  0.38682  0.59429  0.19429  1.0000
  C   C50       1.0  0.34880  0.66952  0.23691  1.0000
  H   H91       1.0  0.43591  0.68518  0.16108  1.0000
  S   S18       1.0  0.12597  0.69369  0.21601  1.0000
  C   C51       1.0  0.49784  0.61036  0.11107  1.0000
  H   H92       1.0  0.16084  0.94688  0.19498  1.0000
  H   H93       1.0  0.32167  0.60781  0.17948  1.0000
  S   S19       1.0  0.07847  0.70122  0.10474  1.0000
  H   H94       1.0  0.37178  0.64425  0.25548  1.0000
  H   H95       1.0  0.30740  0.65933  0.23962  1.0000
  C   C52       1.0  0.36227  0.62048  0.17773  1.0000
  H   H96       1.0  0.49409  0.61857  0.29832  1.0000
  H   H97       1.0  0.34689  0.70258  0.13850  1.0000
  H   H98       1.0  0.30489  0.97497  0.29174  1.0000
  S   S20       1.0  0.48061  0.55527  0.22990  1.0000
  C   C53       1.0  0.07685  0.96019  0.28324  1.0000
  H   H99       1.0  0.44702  0.65881  0.20954  1.0000
  S   S21       1.0  0.11268  0.79334  0.26754  1.0000
  Fe  Fe8       1.0  0.17090  0.76076  0.22570  1.0000
  S   S22       1.0  0.25389  0.76131  0.24372  1.0000
  C   C54       1.0  0.54713  0.59187  0.11885  1.0000
  Fe  Fe9       1.0  0.44358  0.94508  0.20147  1.0000
  S   S23       1.0  0.46737  0.88902  0.15620  1.0000
  S   S24       1.0  0.35867  0.96099  0.21050  1.0000
  H   H100      1.0  0.28620  0.02730  0.26424  1.0000
  C   C55       1.0  0.53066  0.01718  0.32221  1.0000
  H   H101      1.0  0.32353  0.53933  0.31026  1.0000
  Fe  Fe10      1.0  0.53542  0.93629  0.14415  1.0000
  H   H102      1.0  0.21720  0.92482  0.13615  1.0000
  Fe  Fe11      1.0  0.51401  0.85942  0.20682  1.0000
  C   C56       1.0  0.48655  0.74392  0.29476  1.0000
  S   S25       1.0  0.50738  0.99584  0.18458  1.0000
  S   S26       1.0  0.48652  0.91266  0.25305  1.0000
  C   C57       1.0  0.36080  0.55643  0.30793  1.0000
  C   C58       1.0  0.51534  0.77802  0.27366  1.0000
  C   C59       1.0  0.33505  0.70292  0.17084  1.0000
  N   N8        1.0  0.15888  0.98050  0.13697  1.0000
  C   C60       1.0  0.28161  0.81754  0.23556  1.0000
  C   C61       1.0  0.25099  0.85814  0.22765  1.0000
  C   C62       1.0  0.27450  0.90262  0.22081  1.0000
  C   C63       1.0  0.32853  0.90609  0.22052  1.0000
  C   C64       1.0  0.35867  0.86536  0.22831  1.0000
  C   C65       1.0  0.33537  0.82156  0.23661  1.0000
  H   H103      1.0  0.20931  0.85536  0.22696  1.0000
  H   H104      1.0  0.25107  0.93405  0.21504  1.0000
  H   H105      1.0  0.40016  0.86711  0.22781  1.0000
  H   H106      1.0  0.35943  0.79068  0.24307  1.0000
  C   C66       1.0  0.15105  0.02898  0.12026  1.0000
  H   H107      1.0  0.20147  0.86566  0.30334  1.0000
  H   H108      1.0  0.08806  0.62679  0.27287  1.0000
  H   H109      1.0  0.49359  0.77463  0.13469  1.0000
  Fe  Fe12      1.0  0.07906  0.82636  0.21254  1.0000
  H   H110      1.0  0.35237  0.70559  0.25071  1.0000
  H   H111      1.0  0.55501  0.57858  0.14842  1.0000
  C   C67       1.0  0.15595  0.98298  0.18132  1.0000
  C   C68       1.0  0.44275  0.56686  0.27278  1.0000
  H   H112      1.0  0.29322  0.69396  0.17279  1.0000
  S   S27       1.0  0.51253  0.78115  0.22118  1.0000
  H   H113      1.0  0.39668  0.00195  0.28775  1.0000
  H   H114      1.0  0.49106  0.01419  0.09565  1.0000
  H   H115      1.0  0.50462  0.00484  0.29935  1.0000
  H   H116      1.0  0.07873  0.96162  0.13162  1.0000
  H   H117      1.0  0.12248  0.91168  0.13443  1.0000
  C   C69       1.0  0.11799  0.94858  0.12218  1.0000
  S   S28       1.0  0.14157  0.79854  0.17121  1.0000
  H   H118      1.0  0.33877  0.74028  0.18197  1.0000
  C   C70       1.0  0.21023  0.96153  0.12421  1.0000
  H   H119      1.0  0.42644  0.72029  0.20583  1.0000
  C   C71       1.0  0.54335  0.81227  0.29473  1.0000
  Fe  Fe13      1.0  0.56729  0.55563  0.23304  1.0000
  H   H120      1.0  0.11758  0.99711  0.19175  1.0000
  H   H121      1.0  0.51836  0.71436  0.13488  1.0000
  H   H122      1.0  0.09446  0.98570  0.26303  1.0000
  Fe  Fe14      1.0  0.09051  0.73453  0.16511  1.0000
  C   C72       1.0  0.51407  0.74704  0.11603  1.0000
  C   C73       1.0  0.29331  0.01329  0.29505  1.0000
  H   H123      1.0  0.11873  0.94600  0.08876  1.0000
  H   H124      1.0  0.24210  0.98453  0.13509  1.0000
  N   N9        1.0  0.56500  0.76409  0.10176  1.0000
  H   H125      1.0  0.53906  0.83723  0.09580  1.0000
  H   H126      1.0  0.25568  0.01516  0.31160  1.0000
  H   H127      1.0  0.09506  0.53992  0.28764  1.0000
  C   C74       1.0  0.39435  0.54515  0.27588  1.0000
  H   H128      1.0  0.48847  0.73789  0.09050  1.0000
  C   C75       1.0  0.07820  0.96806  0.32482  1.0000
  H   H129      1.0  0.18622  0.00666  0.19370  1.0000
  H   H130      1.0  0.13795  0.86742  0.32546  1.0000
  H   H131      1.0  0.21293  0.78271  0.32652  1.0000
  H   H132      1.0  0.15302  0.02869  0.08686  1.0000
  C   C76       1.0  0.55786  0.80811  0.07771  1.0000
  H   H133      1.0  0.21388  0.95950  0.09080  1.0000
  C   C77       1.0  0.19142  0.79223  0.35473  1.0000
  H   H134      1.0  0.46269  0.58362  0.49402  1.0000
  H   H135      1.0  0.35216  0.97723  0.53543  1.0000
  H   H136      1.0  0.41295  0.99188  0.55740  1.0000
  H   H137      1.0  0.51038  0.99872  0.54638  1.0000
  C   C78       1.0  0.29894  0.71544  0.57217  1.0000
  C   C79       1.0  0.37515  0.59014  0.33661  1.0000
  H   H138      1.0  0.27687  0.84620  0.34472  1.0000
  C   C80       1.0  0.34314  0.02034  0.35576  1.0000
  S   S29       1.0  0.33188  0.60481  0.37576  1.0000
  C   C81       1.0  0.49220  0.58160  0.51667  1.0000
  Fe  Fe15      1.0  0.11406  0.00430  0.41524  1.0000
  C   C82       1.0  0.48830  0.61038  0.55114  1.0000
  S   S30       1.0  0.43511  0.64916  0.55870  1.0000
  C   C83       1.0  0.17855  0.61095  0.37734  1.0000
  H   H139      1.0  0.09859  0.56962  0.45120  1.0000
  H   H140      1.0  0.43346  0.63949  0.35480  1.0000
  H   H141      1.0  0.56245  0.84054  0.35286  1.0000
  S   S31       1.0  0.44583  0.66223  0.44015  1.0000
  N   N10       1.0  0.16355  0.57922  0.41096  1.0000
  Fe  Fe16      1.0  0.36481  0.65999  0.41654  1.0000
  H   H142      1.0  0.45992  0.72065  0.35309  1.0000
  H   H143      1.0  0.24110  0.57438  0.43370  1.0000
  C   C84       1.0  0.54130  0.81353  0.33680  1.0000
  S   S32       1.0  0.32693  0.66674  0.47706  1.0000
  H   H144      1.0  0.15093  0.60838  0.35201  1.0000
  C   C85       1.0  0.56869  0.54242  0.54349  1.0000
  H   H145      1.0  0.50884  0.89590  0.40507  1.0000
  Fe  Fe17      1.0  0.40723  0.67669  0.49963  1.0000
  H   H146      1.0  0.18349  0.91223  0.33845  1.0000
  H   H147      1.0  0.30734  0.02064  0.37473  1.0000
  C   C86       1.0  0.37203  0.98279  0.56444  1.0000
  H   H148      1.0  0.08189  0.58921  0.40162  1.0000
  H   H149      1.0  0.20625  0.76855  0.37902  1.0000
  H   H150      1.0  0.17950  0.64906  0.38703  1.0000
  H   H151      1.0  0.26843  0.82890  0.39618  1.0000
  C   C87       1.0  0.17951  0.87351  0.33158  1.0000
  H   H152      1.0  0.28616  0.81056  0.55939  1.0000
  C   C88       1.0  0.53278  0.54795  0.51263  1.0000
  H   H153      1.0  0.20214  0.62154  0.45540  1.0000
  S   S33       1.0  0.29508  0.00990  0.46465  1.0000
  Fe  Fe18      1.0  0.32879  0.74517  0.46450  1.0000
  S   S34       1.0  0.40570  0.75622  0.49272  1.0000
  N   N11       1.0  0.19765  0.84330  0.36509  1.0000
  C   C89       1.0  0.55298  0.60568  0.38327  1.0000
  H   H154      1.0  0.47809  0.92917  0.48906  1.0000
  Fe  Fe19      1.0  0.43779  0.74135  0.43124  1.0000
  S   S35       1.0  0.50430  0.78569  0.41011  1.0000
  S   S36       1.0  0.36010  0.73818  0.40182  1.0000
  C   C90       1.0  0.25292  0.85276  0.37233  1.0000
  C   C91       1.0  0.51045  0.78105  0.35781  1.0000
  H   H155      1.0  0.12461  0.84930  0.39668  1.0000
  H   H156      1.0  0.49343  0.95685  0.41894  1.0000
  C   C92       1.0  0.16673  0.85459  0.40166  1.0000
  C   C93       1.0  0.28733  0.94847  0.47225  1.0000
  C   C94       1.0  0.32800  0.91629  0.46382  1.0000
  C   C95       1.0  0.31989  0.86684  0.46705  1.0000
  C   C96       1.0  0.27138  0.84990  0.47927  1.0000
  C   C97       1.0  0.23164  0.88219  0.48924  1.0000
  C   C98       1.0  0.23952  0.93134  0.48544  1.0000
  H   H157      1.0  0.36508  0.92948  0.45355  1.0000
  H   H158      1.0  0.35068  0.84194  0.45903  1.0000
  H   H159      1.0  0.19423  0.86922  0.49904  1.0000
  H   H160      1.0  0.20844  0.95590  0.49294  1.0000
  H   H161      1.0  0.25890  0.89036  0.38222  1.0000
  H   H162      1.0  0.54120  0.58396  0.40983  1.0000
  C   C99       1.0  0.48365  0.74582  0.33688  1.0000
  H   H163      1.0  0.14997  0.78343  0.35031  1.0000
  C   C100      1.0  0.42326  0.61245  0.33329  1.0000
  H   H164      1.0  0.52000  0.62974  0.37578  1.0000
  C   C101      1.0  0.20106  0.58412  0.44392  1.0000
  H   H165      1.0  0.09671  0.99965  0.33610  1.0000
  H   H166      1.0  0.27027  0.72373  0.54838  1.0000
  H   H167      1.0  0.49593  0.86880  0.47537  1.0000
  H   H168      1.0  0.10964  0.63045  0.43656  1.0000
  S   S37       1.0  0.19210  0.00420  0.38584  1.0000
  H   H169      1.0  0.21785  0.60151  0.36533  1.0000
  H   H170      1.0  0.17813  0.83138  0.42728  1.0000
  S   S38       1.0  0.25851  0.78866  0.48009  1.0000
  C   C102      1.0  0.11114  0.59274  0.42572  1.0000
  C   C103      1.0  0.51144  0.90391  0.48534  1.0000
  S   S39       1.0  0.15656  0.55325  0.56316  1.0000
  H   H171      1.0  0.17139  0.89253  0.41113  1.0000
  H   H172      1.0  0.53895  0.99546  0.47493  1.0000
  H   H173      1.0  0.19104  0.56076  0.46994  1.0000
  H   H174      1.0  0.35357  0.79605  0.56518  1.0000
  H   H175      1.0  0.55890  0.58076  0.35739  1.0000
  C   C104      1.0  0.52534  0.92979  0.41682  1.0000
  C   C105      1.0  0.53086  0.00885  0.57313  1.0000
  N   N12       1.0  0.55006  0.92233  0.45622  1.0000
  H   H176      1.0  0.27002  0.00254  0.56886  1.0000
  H   H177      1.0  0.55849  0.69112  0.42071  1.0000
  H   H178      1.0  0.35713  0.98259  0.35352  1.0000
  H   H179      1.0  0.33712  0.70901  0.55723  1.0000
  H   H180      1.0  0.52852  0.89864  0.51566  1.0000
  H   H181      1.0  0.55362  0.94293  0.39392  1.0000
  C   C106      1.0  0.57042  0.96827  0.47097  1.0000
  C   C107      1.0  0.56529  0.57190  0.57746  1.0000
  Fe  Fe20      1.0  0.15791  0.57031  0.62906  1.0000
  H   H182      1.0  0.28728  0.68120  0.58656  1.0000
  Fe  Fe21      1.0  0.21854  0.55629  0.70605  1.0000
  H   H183      1.0  0.44353  0.65121  0.64624  1.0000
  C   C108      1.0  0.29441  0.01087  0.79189  1.0000
  H   H184      1.0  0.34165  0.61441  0.68547  1.0000
  H   H185      1.0  0.52346  0.62883  0.60742  1.0000
  S   S40       1.0  0.22108  0.61208  0.65766  1.0000
  S   S41       1.0  0.15854  0.59395  0.74372  1.0000
  C   C109      1.0  0.52941  0.61494  0.78290  1.0000
  H   H186      1.0  0.25299  0.63969  0.80549  1.0000
  H   H187      1.0  0.37257  0.94806  0.58080  1.0000
  H   H188      1.0  0.54493  0.99018  0.75029  1.0000
  C   C110      1.0  0.54981  0.99673  0.64349  1.0000
  H   H189      1.0  0.42296  0.66183  0.69735  1.0000
  N   N13       1.0  0.41981  0.58823  0.67825  1.0000
  C   C111      1.0  0.54381  0.98749  0.81506  1.0000
  H   H190      1.0  0.44474  0.56541  0.61941  1.0000
  H   H191      1.0  0.39984  0.59369  0.74110  1.0000
  C   C112      1.0  0.52037  0.61631  0.82452  1.0000
  C   C113      1.0  0.44373  0.63604  0.67713  1.0000
  C   C114      1.0  0.37406  0.02679  0.62676  1.0000
  C   C115      1.0  0.56657  0.58333  0.76650  1.0000
  H   H192      1.0  0.24547  0.66154  0.72884  1.0000
  C   C116      1.0  0.18673  0.71291  0.81980  1.0000
  H   H193      1.0  0.48484  0.63433  0.68676  1.0000
  H   H194      1.0  0.42229  0.78810  0.81661  1.0000
  H   H195      1.0  0.36354  0.60802  0.63399  1.0000
  C   C117      1.0  0.36571  0.59206  0.66460  1.0000
  H   H196      1.0  0.54497  0.97649  0.67094  1.0000
  H   H197      1.0  0.34741  0.55622  0.66315  1.0000
  Fe  Fe22      1.0  0.15640  0.64654  0.69335  1.0000
  C   C118      1.0  0.55710  0.00722  0.77775  1.0000
  H   H198      1.0  0.33819  0.67768  0.73877  1.0000
  H   H199      1.0  0.55560  0.83359  0.80713  1.0000
  C   C119      1.0  0.52564  0.60622  0.58101  1.0000
  H   H200      1.0  0.07671  0.98997  0.81179  1.0000
  H   H201      1.0  0.37393  0.99303  0.64435  1.0000
  H   H202      1.0  0.33099  0.71002  0.64923  1.0000
  H   H203      1.0  0.37998  0.73568  0.61737  1.0000
  C   C120      1.0  0.34147  0.74256  0.63188  1.0000
  C   C121      1.0  0.44893  0.55507  0.65144  1.0000
  S   S42       1.0  0.09282  0.61001  0.66027  1.0000
  S   S43       1.0  0.38140  0.89631  0.77073  1.0000
  S   S44       1.0  0.48784  0.86860  0.71719  1.0000
  Fe  Fe23      1.0  0.40652  0.84314  0.72378  1.0000
  S   S45       1.0  0.39503  0.76466  0.73286  1.0000
  S   S46       1.0  0.37617  0.88688  0.67271  1.0000
  S   S47       1.0  0.50563  0.93632  0.81824  1.0000
  S   S48       1.0  0.43796  0.97749  0.71452  1.0000
  C   C122      1.0  0.10345  0.98109  0.78631  1.0000
  C   C123      1.0  0.22382  0.73592  0.72294  1.0000
  C   C124      1.0  0.24080  0.78310  0.72549  1.0000
  C   C125      1.0  0.29344  0.79222  0.73088  1.0000
  C   C126      1.0  0.32868  0.75413  0.73454  1.0000
  H   H204      1.0  0.29012  0.97350  0.61455  1.0000
  H   H205      1.0  0.14182  0.97207  0.79943  1.0000
  H   H206      1.0  0.21377  0.81250  0.72127  1.0000
  H   H207      1.0  0.30683  0.82871  0.73079  1.0000
  H   H208      1.0  0.18184  0.99805  0.73524  1.0000
  H   H209      1.0  0.23902  0.72786  0.63824  1.0000
  H   H210      1.0  0.47752  0.72567  0.78625  1.0000
  H   H211      1.0  0.46137  0.56509  0.73041  1.0000
  C   C127      1.0  0.52445  0.98270  0.60852  1.0000
  H   H212      1.0  0.50725  0.63802  0.76336  1.0000
  S   S49       1.0  0.29159  0.99224  0.71109  1.0000
  H   H213      1.0  0.12813  0.97645  0.70706  1.0000
  H   H214      1.0  0.25100  0.79072  0.64397  1.0000
  H   H215      1.0  0.30814  0.97443  0.79533  1.0000
  H   H216      1.0  0.28879  0.69141  0.82100  1.0000
  H   H217      1.0  0.17513  0.69074  0.79363  1.0000
  C   C128      1.0  0.14269  0.00771  0.72409  1.0000
  Fe  Fe24      1.0  0.46152  0.92447  0.76161  1.0000
  C   C129      1.0  0.25074  0.76082  0.62189  1.0000
  C   C130      1.0  0.25866  0.69799  0.72912  1.0000
  S   S50       1.0  0.16026  0.72425  0.70900  1.0000
  Fe  Fe25      1.0  0.36016  0.94349  0.71902  1.0000
  S   S51       1.0  0.48420  0.93282  0.60840  1.0000
  Fe  Fe26      1.0  0.45535  0.91816  0.67077  1.0000
  C   C131      1.0  0.31591  0.79967  0.58151  1.0000
  N   N14       1.0  0.30176  0.75462  0.60188  1.0000
  Fe  Fe27      1.0  0.10158  0.55320  0.70725  1.0000
  C   C132      1.0  0.31109  0.70710  0.73508  1.0000
  H   H218      1.0  0.54633  0.72583  0.79347  1.0000
  H   H219      1.0  0.34639  0.77232  0.65367  1.0000
  H   H220      1.0  0.31941  0.82961  0.60337  1.0000
  C   C133      1.0  0.45723  0.80964  0.82303  1.0000
  H   H221      1.0  0.51563  0.77176  0.76384  1.0000
  C   C134      1.0  0.51133  0.74924  0.79123  1.0000
  H   H222      1.0  0.46236  0.83510  0.79788  1.0000
  C   C135      1.0  0.42094  0.56950  0.71975  1.0000
  H   H223      1.0  0.08869  0.94825  0.77162  1.0000
  C   C136      1.0  0.28388  0.02890  0.75362  1.0000
  H   H224      1.0  0.21985  0.76899  0.59979  1.0000
  H   H225      1.0  0.40248  0.53377  0.72174  1.0000
  H   H226      1.0  0.49099  0.55470  0.65843  1.0000
  H   H227      1.0  0.21136  0.74236  0.80811  1.0000
  N   N15       1.0  0.10726  0.02125  0.75756  1.0000
  C   C137      1.0  0.29208  0.00746  0.59713  1.0000
  N   N16       1.0  0.34630  0.02087  0.58855  1.0000
  C   C138      1.0  0.33308  0.53146  0.80858  1.0000
  H   H228      1.0  0.37035  0.53079  0.79348  1.0000
  Fe  Fe28      1.0  0.34828  0.60159  0.93403  1.0000
  C   C139      1.0  0.28253  0.53940  0.87021  1.0000
  H   H229      1.0  0.34105  0.01663  0.91891  1.0000
  C   C140      1.0  0.52293  0.62288  0.04171  1.0000
  C   C141      1.0  0.23718  0.53235  0.84852  1.0000
  H   H230      1.0  0.28343  0.64057  0.85355  1.0000
  H   H231      1.0  0.29288  0.02506  0.85547  1.0000
  H   H232      1.0  0.25334  0.74498  0.87415  1.0000
  H   H233      1.0  0.53075  0.72363  0.86749  1.0000
  S   S52       1.0  0.41854  0.57953  0.96830  1.0000
  H   H234      1.0  0.49134  0.64033  0.83697  1.0000
  H   H235      1.0  0.53299  0.80164  0.05121  1.0000
  H   H236      1.0  0.14111  0.60710  0.06445  1.0000
  S   S53       1.0  0.53968  0.58899  0.90208  1.0000
  H   H237      1.0  0.56605  0.71720  0.05045  1.0000
  Fe  Fe29      1.0  0.41009  0.65090  0.99839  1.0000
  C   C142      1.0  0.55957  0.00025  0.05978  1.0000
  Fe  Fe30      1.0  0.13337  0.01192  0.93809  1.0000
  Fe  Fe31      1.0  0.46318  0.62037  0.92178  1.0000
  C   C143      1.0  0.15810  0.54597  0.97656  1.0000
  S   S54       1.0  0.39372  0.63570  0.88415  1.0000
  C   C144      1.0  0.54954  0.58704  0.84989  1.0000
  H   H238      1.0  0.55078  0.99359  0.87923  1.0000
  N   N17       1.0  0.15594  0.58914  0.00235  1.0000
  H   H239      1.0  0.49014  0.76897  0.89093  1.0000
  S   S55       1.0  0.16181  0.00222  0.00102  1.0000
  H   H240      1.0  0.38770  0.96908  0.92452  1.0000
  H   H241      1.0  0.19374  0.73066  0.89933  1.0000
  H   H242      1.0  0.51380  0.63459  0.01173  1.0000
  H   H243      1.0  0.46490  0.02522  0.97308  1.0000
  C   C145      1.0  0.22855  0.71477  0.88420  1.0000
  C   C146      1.0  0.26196  0.66302  0.83162  1.0000
  H   H244      1.0  0.44868  0.83117  0.85058  1.0000
  H   H245      1.0  0.20636  0.64589  0.02027  1.0000
  H   H246      1.0  0.12117  0.63186  0.95597  1.0000
  H   H247      1.0  0.23848  0.58953  0.01013  1.0000
  C   C147      1.0  0.18049  0.64505  0.86424  1.0000
  S   S56       1.0  0.33494  0.66943  0.96877  1.0000
  S   S57       1.0  0.45952  0.69070  0.95417  1.0000
  C   C148      1.0  0.46900  0.02472  0.93971  1.0000
  S   S58       1.0  0.21019  0.99608  0.90889  1.0000
  Fe  Fe32      1.0  0.24005  0.99364  0.97195  1.0000
  S   S59       1.0  0.29558  0.94048  0.99861  1.0000
  H   H248      1.0  0.17488  0.55105  0.05646  1.0000
  S   S60       1.0  0.36155  0.76701  0.88671  1.0000
  C   C149      1.0  0.20630  0.61364  0.00052  1.0000
  C   C150      1.0  0.31391  0.89253  0.96716  1.0000
  C   C151      1.0  0.33681  0.85162  0.98394  1.0000
  C   C152      1.0  0.35147  0.81279  0.95935  1.0000
  C   C153      1.0  0.34396  0.81522  0.91785  1.0000
  C   C154      1.0  0.32205  0.85643  0.90093  1.0000
  C   C155      1.0  0.30677  0.89495  0.92560  1.0000
  H   H249      1.0  0.34267  0.84978  0.01606  1.0000
  H   H250      1.0  0.36864  0.78111  0.97254  1.0000
  H   H251      1.0  0.31657  0.85849  0.86876  1.0000
  H   H252      1.0  0.29006  0.92659  0.91232  1.0000
  C   C156      1.0  0.48578  0.62675  0.07272  1.0000
  H   H253      1.0  0.14382  0.65938  0.87770  1.0000
  N   N18       1.0  0.21440  0.68392  0.84998  1.0000
  C   C157      1.0  0.49661  0.74763  0.86298  1.0000
  C   C158      1.0  0.11489  0.62191  0.98799  1.0000
  S   S61       1.0  0.27906  0.55651  0.92093  1.0000
  H   H254      1.0  0.46210  0.72459  0.85942  1.0000
  H   H255      1.0  0.20004  0.62269  0.88730  1.0000
  H   H256      1.0  0.16980  0.62078  0.83911  1.0000
  H   H257      1.0  0.21577  0.62535  0.96937  1.0000
  C   C159      1.0  0.51550  0.02661  0.07129  1.0000
  C   C160      1.0  0.14430  0.57517  0.04434  1.0000
  C   C161      1.0  0.33050  0.53719  0.85039  1.0000
  C   C162      1.0  0.37852  0.00686  0.93295  1.0000
  H   H258      1.0  0.25088  0.69442  0.90703  1.0000
  H   H259      1.0  0.19999  0.53258  0.86385  1.0000
  S   S62       1.0  0.42497  0.65338  0.06443  1.0000
  C   C163      1.0  0.54927  0.80961  0.83346  1.0000
  Fe  Fe33      1.0  0.38529  0.70211  0.92123  1.0000
  H   H260      1.0  0.16538  0.55531  0.94447  1.0000
  H   H261      1.0  0.11292  0.65544  0.00619  1.0000
  H   H262      1.0  0.54399  0.83334  0.86019  1.0000
  H   H263      1.0  0.48087  0.98777  0.93071  1.0000
  H   H264      1.0  0.07622  0.60481  0.98992  1.0000
  H   H265      1.0  0.43631  0.00022  0.86572  1.0000
  H   H266      1.0  0.37238  0.00773  0.96617  1.0000
  C   C164      1.0  0.56030  0.00926  0.85045  1.0000
  H   H267      1.0  0.15083  0.72957  0.83261  1.0000
  H   H268      1.0  0.10681  0.55599  0.04668  1.0000
  H   H269      1.0  0.36578  0.54014  0.86726  1.0000
  N   N19       1.0  0.50369  0.77899  0.82769  1.0000
  Fe  Fe34      1.0  0.92862  0.20869  0.23981  1.0000
  S   S63       1.0  0.89344  0.13741  0.22803  1.0000
  C   C165      1.0  0.81569  0.35512  0.17017  1.0000
  Fe  Fe35      1.0  0.87519  0.25666  0.17049  1.0000
  S   S64       1.0  0.83369  0.19015  0.15236  1.0000
  S   S65       1.0  0.86784  0.32964  0.14375  1.0000
  Fe  Fe36      1.0  0.82064  0.17972  0.21839  1.0000
  S   S66       1.0  0.74642  0.15490  0.24607  1.0000
  Fe  Fe37      1.0  0.91040  0.15388  0.16344  1.0000
  H   H270      1.0  0.97408  0.09228  0.28680  1.0000
  S   S67       1.0  0.85439  0.24982  0.23560  1.0000
  S   S68       1.0  0.95298  0.22185  0.17602  1.0000
  H   H271      1.0  0.69993  0.32313  0.21034  1.0000
  H   H272      1.0  0.02633  0.16244  0.23437  1.0000
  H   H273      1.0  0.68658  0.10598  0.30639  1.0000
  C   C166      1.0  0.77661  0.42122  0.20745  1.0000
  H   H274      1.0  0.02352  0.15205  0.14960  1.0000
  H   H275      1.0  0.90492  0.18365  0.08629  1.0000
  C   C167      1.0  0.80245  0.16130  0.31540  1.0000
  C   C168      1.0  0.77344  0.32660  0.18003  1.0000
  H   H276      1.0  0.92871  0.42954  0.23221  1.0000
  H   H277      1.0  0.89348  0.37918  0.30787  1.0000
  H   H278      1.0  0.77213  0.28990  0.16967  1.0000
  C   C169      1.0  0.75770  0.14414  0.29720  1.0000
  H   H279      1.0  0.71960  0.11900  0.15784  1.0000
  H   H280      1.0  0.64310  0.12473  0.20249  1.0000
  C   C170      1.0  0.03457  0.19237  0.29376  1.0000
  H   H281      1.0  0.79442  0.48566  0.13761  1.0000
  S   S69       1.0  0.93773  0.09593  0.12121  1.0000
  C   C171      1.0  0.64336  0.08500  0.20465  1.0000
  S   S70       1.0  0.97568  0.22379  0.29391  1.0000
  H   H282      1.0  0.01190  0.35163  0.21973  1.0000
  H   H283      1.0  0.73646  0.06313  0.13363  1.0000
  C   C172      1.0  0.03436  0.13574  0.12129  1.0000
  C   C173      1.0  0.72121  0.11941  0.32024  1.0000
  H   H284      1.0  0.64192  0.32015  0.26443  1.0000
  H   H285      1.0  0.83066  0.18088  0.29806  1.0000
  H   H286      1.0  0.59916  0.28000  0.28975  1.0000
  C   C174      1.0  0.64007  0.28495  0.27993  1.0000
  H   H287      1.0  0.87698  0.36020  0.25809  1.0000
  H   H288      1.0  0.63144  0.11477  0.12821  1.0000
  C   C175      1.0  0.05019  0.16417  0.26080  1.0000
  C   C176      1.0  0.98222  0.06322  0.30876  1.0000
  H   H289      1.0  0.88084  0.08652  0.30538  1.0000
  C   C177      1.0  0.73269  0.34535  0.20335  1.0000
  H   H290      1.0  0.99867  0.32465  0.30830  1.0000
  H   H291      1.0  0.73703  0.32101  0.28482  1.0000
  C   C178      1.0  0.00040  0.10482  0.10207  1.0000
  H   H292      1.0  0.94706  0.44518  0.28264  1.0000
  H   H293      1.0  0.64990  0.25658  0.25743  1.0000
  H   H294      1.0  0.73070  0.46085  0.13340  1.0000
  C   C179      1.0  0.97295  0.34200  0.23159  1.0000
  H   H295      1.0  0.97410  0.30318  0.23896  1.0000
  H   H296      1.0  0.02232  0.06862  0.31964  1.0000
  C   C180      1.0  0.71859  0.07935  0.16112  1.0000
  H   H297      1.0  0.94478  0.34705  0.20684  1.0000
  H   H298      1.0  0.98661  0.38418  0.32666  1.0000
  H   H299      1.0  0.60305  0.07314  0.21076  1.0000
  C   C181      1.0  0.73436  0.39246  0.21747  1.0000
  H   H300      1.0  0.67298  0.20646  0.31553  1.0000
  H   H301      1.0  0.66888  0.35872  0.32610  1.0000
  C   C182      1.0  0.72973  0.28625  0.29998  1.0000
  S   S71       1.0  0.95754  0.50632  0.10573  1.0000
  C   C183      1.0  0.90662  0.35676  0.28196  1.0000
  C   C184      1.0  0.95736  0.42226  0.25624  1.0000
  C   C185      1.0  0.63285  0.07536  0.13297  1.0000
  H   H302      1.0  0.77861  0.45726  0.21911  1.0000
  H   H303      1.0  0.85061  0.42428  0.17653  1.0000
  H   H304      1.0  0.99594  0.43415  0.24508  1.0000
  H   H305      1.0  0.75751  0.28354  0.32523  1.0000
  C   C186      1.0  0.81731  0.40255  0.18359  1.0000
  S   S72       1.0  0.60077  0.50147  0.19012  1.0000
  N   N20       1.0  0.95841  0.37102  0.26725  1.0000
  Fe  Fe38      1.0  0.66216  0.48967  0.23552  1.0000
  H   H306      1.0  0.03621  0.37381  0.28951  1.0000
  N   N21       1.0  0.66516  0.06245  0.16781  1.0000
  S   S73       1.0  0.68460  0.41374  0.24916  1.0000
  C   C187      1.0  0.99669  0.36302  0.29928  1.0000
  H   H307      1.0  0.66654  0.07533  0.23157  1.0000
  H   H308      1.0  0.76674  0.39443  0.09296  1.0000
  C   C188      1.0  0.75929  0.48489  0.11866  1.0000
  H   H309      1.0  0.74224  0.52164  0.11887  1.0000
  N   N22       1.0  0.67549  0.28311  0.31443  1.0000
  H   H310      1.0  0.73965  0.25697  0.27837  1.0000
  H   H311      1.0  0.83080  0.41825  0.09505  1.0000
  H   H312      1.0  0.74375  0.07013  0.18704  1.0000
  H   H313      1.0  0.90678  0.31891  0.29254  1.0000
  H   H314      1.0  0.64789  0.05845  0.10473  1.0000
  H   H315      1.0  0.59230  0.06300  0.13714  1.0000
  C   C189      1.0  0.89151  0.05733  0.32648  1.0000
  H   H316      1.0  0.98778  0.22361  0.07864  1.0000
  C   C190      1.0  0.79382  0.41983  0.07817  1.0000
  Fe  Fe39      1.0  0.63540  0.21361  0.48233  1.0000
  S   S74       1.0  0.70091  0.17944  0.51525  1.0000
  S   S75       1.0  0.63913  0.29308  0.47550  1.0000
  C   C191      1.0  0.86051  0.21003  0.48015  1.0000
  H   H317      1.0  0.70119  0.09313  0.37917  1.0000
  H   H318      1.0  0.05178  0.44648  0.48159  1.0000
  Fe  Fe40      1.0  0.64084  0.13009  0.53963  1.0000
  H   H319      1.0  0.95531  0.22175  0.44691  1.0000
  Fe  Fe41      1.0  0.70471  0.13017  0.46207  1.0000
  S   S76       1.0  0.78240  0.12170  0.43138  1.0000
  H   H320      1.0  0.89594  0.29141  0.44688  1.0000
  S   S77       1.0  0.64142  0.16685  0.42788  1.0000
  H   H321      1.0  0.86454  0.17250  0.49101  1.0000
  S   S78       1.0  0.65175  0.07601  0.49001  1.0000
  H   H322      1.0  0.86394  0.25436  0.55194  1.0000
  S   S79       1.0  0.61533  0.49640  0.54138  1.0000
  H   H323      1.0  0.85658  0.30514  0.49023  1.0000
  C   C192      1.0  0.77365  0.12960  0.37964  1.0000
  H   H324      1.0  0.79865  0.50176  0.51058  1.0000
  H   H325      1.0  0.86038  0.20866  0.44670  1.0000
  C   C193      1.0  0.72918  0.11237  0.36142  1.0000
  C   C194      1.0  0.89477  0.29007  0.48036  1.0000
  C   C195      1.0  0.78838  0.32354  0.40642  1.0000
  H   H326      1.0  0.98587  0.11685  0.37556  1.0000
  S   S80       1.0  0.03648  0.47972  0.34145  1.0000
  H   H327      1.0  0.79606  0.24702  0.40137  1.0000
  H   H328      1.0  0.86184  0.05750  0.35110  1.0000
  C   C196      1.0  0.69831  0.30529  0.45144  1.0000
  C   C197      1.0  0.72916  0.26750  0.43675  1.0000
  C   C198      1.0  0.77352  0.27656  0.41375  1.0000
  C   C199      1.0  0.90157  0.24065  0.53964  1.0000
  H   H329      1.0  0.71854  0.23101  0.44210  1.0000
  H   H330      1.0  0.93731  0.14070  0.34306  1.0000
  S   S81       1.0  0.84303  0.33375  0.37640  1.0000
  H   H331      1.0  0.82167  0.22345  0.49014  1.0000
  H   H332      1.0  0.93250  0.26362  0.55206  1.0000
  H   H333      1.0  0.69724  0.23295  0.36045  1.0000
  S   S82       1.0  0.95968  0.50279  0.44322  1.0000
  C   C200      1.0  0.66837  0.23754  0.33618  1.0000
  S   S83       1.0  0.57412  0.16950  0.51211  1.0000
  H   H334      1.0  0.91858  0.11199  0.38931  1.0000
  C   C201      1.0  0.95297  0.22179  0.48036  1.0000
  H   H335      1.0  0.62434  0.06248  0.40363  1.0000
  C   C202      1.0  0.81047  0.15395  0.35657  1.0000
  H   H336      1.0  0.90757  0.20398  0.55196  1.0000
  N   N23       1.0  0.90245  0.24063  0.49515  1.0000
  H   H337      1.0  0.61265  0.29446  0.55903  1.0000
  H   H338      1.0  0.84445  0.16825  0.37067  1.0000
  H   H339      1.0  0.98571  0.24363  0.49138  1.0000
  C   C203      1.0  0.05650  0.46298  0.51075  1.0000
  H   H340      1.0  0.01805  0.18978  0.55114  1.0000
  H   H341      1.0  0.58834  0.40147  0.56612  1.0000
  H   H342      1.0  0.68991  0.38198  0.45593  1.0000
  C   C204      1.0  0.94653  0.11035  0.36357  1.0000
  C   C205      1.0  0.71362  0.35253  0.44473  1.0000
  Fe  Fe42      1.0  0.58770  0.11810  0.46102  1.0000
  H   H343      1.0  0.89437  0.50645  0.51693  1.0000
  H   H344      1.0  0.76962  0.39817  0.41588  1.0000
  C   C206      1.0  0.66369  0.32374  0.34163  1.0000
  H   H345      1.0  0.75783  0.51173  0.55395  1.0000
  H   H346      1.0  0.92530  0.31441  0.49157  1.0000
  H   H347      1.0  0.78788  0.51933  0.36848  1.0000
  H   H348      1.0  0.68978  0.32346  0.36772  1.0000
  H   H349      1.0  0.84869  0.43841  0.54695  1.0000
  H   H350      1.0  0.96002  0.18434  0.49054  1.0000
  C   C207      1.0  0.02161  0.45307  0.54208  1.0000
  C   C208      1.0  0.75891  0.36167  0.42233  1.0000
  H   H351      1.0  0.59243  0.36833  0.52023  1.0000
  Fe  Fe43      1.0  0.94474  0.43108  0.47040  1.0000
  S   S84       1.0  0.96728  0.39000  0.41499  1.0000
  S   S85       1.0  0.96845  0.41646  0.53347  1.0000
  Fe  Fe44      1.0  0.87630  0.50076  0.42600  1.0000
  S   S86       1.0  0.89133  0.46648  0.36591  1.0000
  C   C209      1.0  0.05156  0.17076  0.56219  1.0000
  Fe  Fe45      1.0  0.88347  0.39774  0.39972  1.0000
  Fe  Fe46      1.0  0.97370  0.46209  0.38595  1.0000
  C   C210      1.0  0.59820  0.05020  0.38091  1.0000
  S   S87       1.0  0.86017  0.43217  0.45796  1.0000
  C   C211      1.0  0.79521  0.52186  0.53942  1.0000
  H   H352      1.0  0.62922  0.23542  0.35034  1.0000
  H   H353      1.0  0.05345  0.21623  0.35335  1.0000
  N   N24       1.0  0.94415  0.06387  0.34235  1.0000
  H   H354      1.0  0.62329  0.32255  0.35350  1.0000
  C   C212      1.0  0.06542  0.19447  0.32785  1.0000
  C   C213      1.0  0.84228  0.46001  0.57470  1.0000
  N   N25       1.0  0.83967  0.51180  0.56583  1.0000
  H   H355      1.0  0.92248  0.51931  0.56451  1.0000
  C   C214      1.0  0.88811  0.52647  0.54547  1.0000
  Fe  Fe47      1.0  0.00522  0.24388  0.75823  1.0000
  S   S88       1.0  0.92221  0.22120  0.75968  1.0000
  C   C215      1.0  0.06914  0.50542  0.58608  1.0000
  Fe  Fe48      1.0  0.03929  0.16472  0.70182  1.0000
  S   S89       1.0  0.95976  0.13467  0.69744  1.0000
  H   H356      1.0  0.90473  0.37084  0.79080  1.0000
  Fe  Fe49      1.0  0.93313  0.21097  0.69329  1.0000
  S   S90       1.0  0.87309  0.23409  0.64916  1.0000
  Fe  Fe50      1.0  0.95588  0.14696  0.76390  1.0000
  S   S91       1.0  0.63394  0.10929  0.60447  1.0000
  S   S92       1.0  0.01312  0.24017  0.69127  1.0000
  S   S93       1.0  0.03830  0.17056  0.76890  1.0000
  C   C216      1.0  0.58547  0.30767  0.58290  1.0000
  S   S94       1.0  0.63713  0.12457  0.80952  1.0000
  C   C217      1.0  0.85636  0.29452  0.65596  1.0000
  H   H357      1.0  0.74077  0.25809  0.68496  1.0000
  Fe  Fe51      1.0  0.63473  0.47980  0.60529  1.0000
  C   C218      1.0  0.67781  0.21915  0.74066  1.0000
  C   C219      1.0  0.81567  0.31405  0.63392  1.0000
  C   C220      1.0  0.74062  0.21826  0.68619  1.0000
  C   C221      1.0  0.02804  0.47408  0.57980  1.0000
  H   H358      1.0  0.79600  0.29234  0.61203  1.0000
  H   H359      1.0  0.80588  0.44765  0.58927  1.0000
  H   H360      1.0  0.88746  0.39306  0.71062  1.0000
  C   C222      1.0  0.69157  0.14726  0.70140  1.0000
  H   H361      1.0  0.61059  0.20253  0.68122  1.0000
  H   H362      1.0  0.70784  0.20846  0.76266  1.0000
  H   H363      1.0  0.77243  0.20680  0.70642  1.0000
  H   H364      1.0  0.70115  0.13169  0.67132  1.0000
  H   H365      1.0  0.74794  0.09472  0.80160  1.0000
  H   H366      1.0  0.75089  0.20480  0.65552  1.0000
  C   C223      1.0  0.64932  0.21597  0.67190  1.0000
  H   H367      1.0  0.91467  0.30843  0.70012  1.0000
  N   N26       1.0  0.68988  0.20016  0.70005  1.0000
  H   H368      1.0  0.86008  0.46393  0.75522  1.0000
  H   H369      1.0  0.65732  0.20235  0.64092  1.0000
  H   H370      1.0  0.72100  0.13397  0.72291  1.0000
  H   H371      1.0  0.64656  0.25572  0.67043  1.0000
  H   H372      1.0  0.65351  0.13245  0.71101  1.0000
  H   H373      1.0  0.60855  0.32839  0.60472  1.0000
  C   C224      1.0  0.88257  0.32315  0.68347  1.0000
  H   H374      1.0  0.64028  0.20524  0.75229  1.0000
  C   C225      1.0  0.83982  0.44603  0.78076  1.0000
  H   H375      1.0  0.01187  0.36167  0.65837  1.0000
  H   H376      1.0  0.02543  0.45028  0.80346  1.0000
  S   S95       1.0  0.57988  0.33955  0.68943  1.0000
  H   H377      1.0  0.81229  0.11790  0.80436  1.0000
  Fe  Fe52      1.0  0.61395  0.41089  0.67428  1.0000
  H   H378      1.0  0.82383  0.41198  0.76903  1.0000
  H   H379      1.0  0.67484  0.25898  0.74064  1.0000
  C   C226      1.0  0.78585  0.09031  0.81681  1.0000
  C   C227      1.0  0.03171  0.37648  0.68512  1.0000
  H   H380      1.0  0.94100  0.42264  0.77641  1.0000
  C   C228      1.0  0.03060  0.48629  0.81447  1.0000
  H   H381      1.0  0.00074  0.46693  0.60393  1.0000
  H   H382      1.0  0.01927  0.35517  0.71160  1.0000
  C   C229      1.0  0.58679  0.04892  0.77595  1.0000
  H   H383      1.0  0.80636  0.46938  0.78961  1.0000
  C   C230      1.0  0.79983  0.36153  0.64040  1.0000
  C   C231      1.0  0.91854  0.40618  0.80153  1.0000
  Fe  Fe53      1.0  0.71681  0.45993  0.66764  1.0000
  S   S96       1.0  0.67395  0.41256  0.62537  1.0000
  S   S97       1.0  0.80220  0.44862  0.67917  1.0000
  C   C232      1.0  0.05544  0.03256  0.74152  1.0000
  S   S98       1.0  0.65865  0.45459  0.71824  1.0000
  S   S99       1.0  0.91736  0.08894  0.79926  1.0000
  C   C233      1.0  0.59030  0.06173  0.60682  1.0000
  Fe  Fe54      1.0  0.61934  0.51781  0.68921  1.0000
  H   H384      1.0  0.76934  0.37621  0.62252  1.0000
  C   C234      1.0  0.82441  0.38989  0.66891  1.0000
  H   H385      1.0  0.01706  0.41379  0.68989  1.0000
  C   C235      1.0  0.86698  0.37101  0.68955  1.0000
  N   N27       1.0  0.87503  0.43757  0.81477  1.0000
  H   H386      1.0  0.02751  0.17698  0.62402  1.0000
  C   C236      1.0  0.58300  0.03619  0.64258  1.0000
  C   C237      1.0  0.60175  0.07155  0.81146  1.0000
  S   S100      1.0  0.03504  0.31113  0.78579  1.0000
  H   H387      1.0  0.02773  0.04329  0.76586  1.0000
  H   H388      1.0  0.91751  0.50232  0.80433  1.0000
  H   H389      1.0  0.87467  0.45124  0.59533  1.0000
  H   H390      1.0  0.59710  0.06410  0.74709  1.0000
  S   S101      1.0  0.03675  0.51217  0.73557  1.0000
  H   H391      1.0  0.80230  0.05472  0.80804  1.0000
  H   H392      1.0  0.60359  0.04635  0.66933  1.0000
  H   H393      1.0  0.62447  0.52967  0.77931  1.0000
  C   C238      1.0  0.03786  0.52370  0.78724  1.0000
  C   C239      1.0  0.05710  0.16372  0.60359  1.0000
  S   S102      1.0  0.68251  0.52807  0.64311  1.0000
  H   H394      1.0  0.05703  0.06259  0.71964  1.0000
  H   H395      1.0  0.79694  0.52858  0.61996  1.0000
  H   H396      1.0  0.94605  0.39918  0.82645  1.0000
  C   C240      1.0  0.58113  0.40557  0.96033  1.0000
  Fe  Fe55      1.0  0.67522  0.21417  0.93564  1.0000
  H   H397      1.0  0.87176  0.40685  0.87405  1.0000
  S   S103      1.0  0.75546  0.22764  0.95759  1.0000
  H   H398      1.0  0.00248  0.24311  0.91921  1.0000
  S   S104      1.0  0.65789  0.23703  0.87289  1.0000
  S   S105      1.0  0.64609  0.13949  0.92787  1.0000
  H   H399      1.0  0.86011  0.11135  0.87046  1.0000
  H   H400      1.0  0.80211  0.40614  0.04725  1.0000
  C   C241      1.0  0.83083  0.35314  0.95504  1.0000
  C   C242      1.0  0.98464  0.21851  0.04555  1.0000
  C   C243      1.0  0.02572  0.31695  0.92229  1.0000
  H   H401      1.0  0.75740  0.14860  0.90404  1.0000
  C   C244      1.0  0.92756  0.21185  0.98884  1.0000
  C   C245      1.0  0.83035  0.08522  0.88032  1.0000
  C   C246      1.0  0.01797  0.27165  0.86026  1.0000
  H   H402      1.0  0.87054  0.36446  0.95668  1.0000
  H   H403      1.0  0.92209  0.47906  0.85435  1.0000
  C   C247      1.0  0.04757  0.35351  0.85843  1.0000
  H   H404      1.0  0.72538  0.15282  0.85650  1.0000
  C   C248      1.0  0.81971  0.30434  0.95642  1.0000
  C   C249      1.0  0.76861  0.28891  0.95395  1.0000
  N   N28       1.0  0.78016  0.09488  0.86093  1.0000
  C   C250      1.0  0.61767  0.48304  0.94615  1.0000
  H   H405      1.0  0.85085  0.27866  0.95897  1.0000
  Fe  Fe56      1.0  0.62226  0.16506  0.86688  1.0000
  C   C251      1.0  0.00284  0.07934  0.84672  1.0000
  C   C252      1.0  0.01483  0.27403  0.90240  1.0000
  H   H406      1.0  0.60086  0.07012  0.98206  1.0000
  H   H407      1.0  0.73601  0.06271  0.90882  1.0000
  H   H408      1.0  0.68906  0.31080  0.94635  1.0000
  H   H409      1.0  0.98992  0.05764  0.05157  1.0000
  S   S106      1.0  0.01568  0.32261  0.97427  1.0000
  C   C253      1.0  0.06498  0.09053  0.04959  1.0000
  H   H410      1.0  0.94988  0.17939  0.97924  1.0000
  H   H411      1.0  0.01256  0.11534  0.83801  1.0000
  C   C254      1.0  0.72859  0.32252  0.94882  1.0000
  S   S107      1.0  0.60105  0.24347  0.96198  1.0000
  C   C255      1.0  0.03525  0.05380  0.87271  1.0000
  H   H412      1.0  0.05358  0.38888  0.91566  1.0000
  C   C256      1.0  0.03360  0.31175  0.83832  1.0000
  H   H413      1.0  0.91817  0.14449  0.04474  1.0000
  C   C257      1.0  0.90577  0.26570  0.04362  1.0000
  H   H414      1.0  0.82040  0.49134  0.02812  1.0000
  S   S108      1.0  0.92161  0.52334  0.99300  1.0000
  C   C258      1.0  0.01596  0.08186  0.06641  1.0000
  N   N29       1.0  0.93001  0.21915  0.03276  1.0000
  H   H415      1.0  0.69441  0.44628  0.06612  1.0000
  H   H416      1.0  0.00417  0.18389  0.03796  1.0000
  H   H417      1.0  0.88694  0.20717  0.97890  1.0000
  H   H418      1.0  0.73287  0.45727  0.02161  1.0000
  H   H419      1.0  0.59967  0.06899  0.87621  1.0000
  H   H420      1.0  0.86371  0.50851  0.83891  1.0000
  C   C259      1.0  0.72466  0.46973  0.05290  1.0000
  H   H421      1.0  0.82702  0.08771  0.91365  1.0000
  H   H422      1.0  0.94362  0.24305  0.97242  1.0000
  C   C260      1.0  0.74156  0.06019  0.87564  1.0000
  H   H423      1.0  0.79133  0.17111  0.86096  1.0000
  C   C261      1.0  0.73973  0.37158  0.94756  1.0000
  H   H424      1.0  0.70312  0.06663  0.86176  1.0000
  S   S109      1.0  0.02972  0.46052  0.00750  1.0000
  Fe  Fe57      1.0  0.88688  0.45462  0.97287  1.0000
  S   S110      1.0  0.91621  0.41172  0.02491  1.0000
  S   S111      1.0  0.80490  0.44793  0.95237  1.0000
  Fe  Fe58      1.0  0.95689  0.47906  0.04200  1.0000
  H   H425      1.0  0.70786  0.50654  0.05099  1.0000
  H   H426      1.0  0.00707  0.24745  0.03081  1.0000
  C   C262      1.0  0.04326  0.35624  0.90032  1.0000
  S   S112      1.0  0.95273  0.43558  0.93179  1.0000
  H   H427      1.0  0.70883  0.39757  0.94419  1.0000
  Fe  Fe59      1.0  0.58087  0.25978  0.89801  1.0000
  H   H428      1.0  0.63361  0.48593  0.97695  1.0000
  H   H429      1.0  0.02753  0.46607  0.87678  1.0000
  C   C263      1.0  0.58825  0.05181  0.84870  1.0000
  C   C264      1.0  0.76274  0.14401  0.87104  1.0000
  H   H430      1.0  0.61036  0.52014  0.93520  1.0000
  Fe  Fe60      1.0  0.98537  0.39743  0.98512  1.0000
  Fe  Fe61      1.0  0.99157  0.50003  0.95709  1.0000
  C   C265      1.0  0.79083  0.38684  0.95125  1.0000
  H   H431      1.0  0.06098  0.38411  0.84157  1.0000
  C   C266      1.0  0.84631  0.41434  0.84802  1.0000
  H   H432      1.0  0.00770  0.23911  0.84476  1.0000
  H   H433      1.0  0.86438  0.26739  0.03474  1.0000
  H   H434      1.0  0.92596  0.29596  0.02863  1.0000
  C   C267      1.0  0.57729  0.05845  0.00710  1.0000
  H   H435      1.0  0.81381  0.43742  0.85936  1.0000
  H   H436      1.0  0.86007  0.18068  0.04565  1.0000
  C   C268      1.0  0.03153  0.49527  0.85593  1.0000
  C   C269      1.0  0.90194  0.18028  0.05318  1.0000
  H   H437      1.0  0.64818  0.46689  0.92627  1.0000
  C   C270      1.0  0.95778  0.05836  0.83254  1.0000
  H   H438      1.0  0.07047  0.06971  0.88269  1.0000
  H   H439      1.0  0.82966  0.37965  0.83842  1.0000
  H   H440      1.0  0.61003  0.38696  0.94044  1.0000
  H   H441      1.0  0.57953  0.43620  0.88354  1.0000
  H   H442      1.0  0.59653  0.40576  0.99139  1.0000
  H   H443      1.0  0.84550  0.04888  0.87262  1.0000
  C   C271      1.0  0.81051  0.50176  0.05953  1.0000
  N   N30       1.0  0.77206  0.46900  0.07732  1.0000
  C   C272      1.0  0.89542  0.48389  0.82868  1.0000
  H   H444      1.0  0.84717  0.50157  0.07684  1.0000
  H   H445      1.0  0.90720  0.27227  0.07660  1.0000
  H   H446      1.0  0.60257  0.74244  0.15632  1.0000
  H   H447      1.0  0.91610  0.65470  0.18987  1.0000
  H   H448      1.0  0.85848  0.62946  0.30903  1.0000
  Fe  Fe62      1.0  0.67350  0.59390  0.25194  1.0000
  S   S113      1.0  0.71683  0.64924  0.28618  1.0000
  H   H449      1.0  0.88487  0.70289  0.21731  1.0000
  S   S114      1.0  0.64908  0.57357  0.10087  1.0000
  S   S115      1.0  0.61279  0.61690  0.20841  1.0000
  C   C273      1.0  0.03239  0.88559  0.29461  1.0000
  H   H450      1.0  0.68924  0.99875  0.19903  1.0000
  N   N31       1.0  0.88283  0.63459  0.24703  1.0000
  C   C274      1.0  0.98895  0.56171  0.10660  1.0000
  C   C275      1.0  0.90866  0.66966  0.22050  1.0000
  H   H451      1.0  0.88838  0.02283  0.30994  1.0000
  S   S116      1.0  0.57673  0.94726  0.08504  1.0000
  Fe  Fe63      1.0  0.64886  0.56164  0.16766  1.0000
  H   H452      1.0  0.68179  0.99145  0.14545  1.0000
  C   C276      1.0  0.02999  0.62624  0.14319  1.0000
  C   C277      1.0  0.04144  0.64914  0.10675  1.0000
  H   H453      1.0  0.62611  0.99626  0.17785  1.0000
  H   H454      1.0  0.91076  0.66977  0.29995  1.0000
  C   C278      1.0  0.00346  0.58254  0.14310  1.0000
  H   H455      1.0  0.80633  0.65316  0.22703  1.0000
  H   H456      1.0  0.81191  0.59527  0.24954  1.0000
  C   C279      1.0  0.06210  0.61091  0.29453  1.0000
  H   H457      1.0  0.84627  0.68661  0.28629  1.0000
  C   C280      1.0  0.06591  0.56173  0.30280  1.0000
  C   C281      1.0  0.83245  0.62135  0.22992  1.0000
  C   C282      1.0  0.87422  0.65600  0.28730  1.0000
  C   C283      1.0  0.59787  0.77446  0.13669  1.0000
  H   H458      1.0  0.83720  0.60501  0.19954  1.0000
  H   H459      1.0  0.99555  0.56429  0.17109  1.0000
  C   C284      1.0  0.66582  0.00990  0.17266  1.0000
  C   C285      1.0  0.91593  0.59129  0.25042  1.0000
  H   H460      1.0  0.92155  0.57331  0.22077  1.0000
  S   S117      1.0  0.06081  0.90482  0.21679  1.0000
  S   S118      1.0  0.01623  0.69990  0.30334  1.0000
  H   H461      1.0  0.01502  0.85339  0.28303  1.0000
  Fe  Fe64      1.0  0.06413  0.73028  0.25311  1.0000
  S   S119      1.0  0.02463  0.76610  0.20137  1.0000
  H   H462      1.0  0.63706  0.78641  0.12718  1.0000
  H   H463      1.0  0.89889  0.56489  0.27169  1.0000
  S   S120      1.0  0.62422  0.53789  0.28155  1.0000
  S   S121      1.0  0.61044  0.99218  0.27053  1.0000
  H   H464      1.0  0.94678  0.68046  0.23276  1.0000
  S   S122      1.0  0.58468  0.90040  0.19036  1.0000
  C   C286      1.0  0.02459  0.63913  0.31432  1.0000
  H   H465      1.0  0.04235  0.64168  0.17124  1.0000
  C   C287      1.0  0.58427  0.01429  0.31568  1.0000
  H   H466      1.0  0.95498  0.60032  0.26161  1.0000
  H   H467      1.0  0.74319  0.55182  0.30853  1.0000
  C   C288      1.0  0.05506  0.91836  0.26812  1.0000
  H   H468      1.0  0.58044  0.80325  0.15575  1.0000
  C   C289      1.0  0.58539  0.59057  0.08876  1.0000
  H   H469      1.0  0.59650  0.69309  0.09431  1.0000
  S   S123      1.0  0.71496  0.54464  0.20870  1.0000
  H   H470      1.0  0.98195  0.02854  0.29220  1.0000
  S   S124      1.0  0.82871  0.56652  0.43881  1.0000
  H   H471      1.0  0.57911  0.85231  0.44038  1.0000
  C   C290      1.0  0.61276  0.66289  0.35567  1.0000
  C   C291      1.0  0.99395  0.56904  0.34973  1.0000
  H   H472      1.0  0.88736  0.56523  0.53779  1.0000
  H   H473      1.0  0.58971  0.96409  0.50054  1.0000
  N   N32       1.0  0.60002  0.63350  0.39130  1.0000
  H   H474      1.0  0.80242  0.66184  0.41540  1.0000
  H   H475      1.0  0.62553  0.68639  0.43344  1.0000
  C   C292      1.0  0.79833  0.58854  0.39574  1.0000
  H   H476      1.0  0.58139  0.68930  0.34902  1.0000
  H   H477      1.0  0.01608  0.86807  0.35659  1.0000
  C   C293      1.0  0.78967  0.63782  0.39205  1.0000
  H   H478      1.0  0.79260  0.56051  0.53148  1.0000
  H   H479      1.0  0.61249  0.88067  0.48087  1.0000
  H   H480      1.0  0.96196  0.63982  0.35776  1.0000
  C   C294      1.0  0.75638  0.57589  0.33167  1.0000
  C   C295      1.0  0.78194  0.55753  0.36544  1.0000
  H   H481      1.0  0.67943  0.62003  0.40678  1.0000
  C   C296      1.0  0.76523  0.65623  0.35798  1.0000
  S   S125      1.0  0.06229  0.94242  0.40346  1.0000
  C   C297      1.0  0.64348  0.60029  0.39982  1.0000
  C   C298      1.0  0.99100  0.61817  0.34226  1.0000
  H   H482      1.0  0.96682  0.55324  0.37053  1.0000
  C   C299      1.0  0.61789  0.03007  0.34529  1.0000
  H   H483      1.0  0.65242  0.57663  0.37360  1.0000
  H   H484      1.0  0.58003  0.64428  0.45374  1.0000
  H   H485      1.0  0.63468  0.57694  0.42610  1.0000
  C   C300      1.0  0.59062  0.66515  0.42638  1.0000
  C   C301      1.0  0.03287  0.89394  0.33620  1.0000
  H   H486      1.0  0.64903  0.68329  0.35995  1.0000
  H   H487      1.0  0.75911  0.69446  0.35510  1.0000
  H   H488      1.0  0.59916  0.98355  0.44949  1.0000
  H   H489      1.0  0.62292  0.90020  0.42990  1.0000
  H   H490      1.0  0.99529  0.02821  0.38349  1.0000
  C   C302      1.0  0.59310  0.88735  0.45167  1.0000
  H   H491      1.0  0.65931  0.02702  0.34050  1.0000
  H   H492      1.0  0.95517  0.98900  0.35548  1.0000
  C   C303      1.0  0.03169  0.54081  0.33039  1.0000
  C   C304      1.0  0.05681  0.93467  0.35139  1.0000
  H   H493      1.0  0.92801  0.02387  0.39626  1.0000
  C   C305      1.0  0.95608  0.02458  0.37061  1.0000
  C   C306      1.0  0.74819  0.62530  0.32798  1.0000
  H   H494      1.0  0.61847  0.64032  0.32833  1.0000
  C   C307      1.0  0.59543  0.55376  0.79182  1.0000
  H   H495      1.0  0.05196  0.59908  0.78037  1.0000
  H   H496      1.0  0.83132  0.57806  0.59842  1.0000
  H   H497      1.0  0.86567  0.53142  0.62470  1.0000
  H   H498      1.0  0.59308  0.56822  0.60126  1.0000
  H   H499      1.0  0.03879  0.00131  0.72571  1.0000
  S   S126      1.0  0.57621  0.58189  0.71430  1.0000
  C   C308      1.0  0.04679  0.57000  0.80141  1.0000
  C   C309      1.0  0.83315  0.53880  0.60384  1.0000
  H   H500      1.0  0.03199  0.64780  0.04277  1.0000
  C   C310      1.0  0.03895  0.54179  0.87015  1.0000
  H   H501      1.0  0.62861  0.73812  0.06513  1.0000
  S   S127      1.0  0.03701  0.55414  0.92183  1.0000
  H   H502      1.0  0.98932  0.56957  0.04227  1.0000
  H   H503      1.0  0.96684  0.95098  0.88033  1.0000
  C   C311      1.0  0.97686  0.98685  0.87108  1.0000
  C   C312      1.0  0.04737  0.57904  0.84287  1.0000
  S   S128      1.0  0.06251  0.97440  0.91685  1.0000
  H   H504      1.0  0.79557  0.53929  0.05882  1.0000
  C   C313      1.0  0.59041  0.01621  0.02764  1.0000
  H   H505      1.0  0.62441  0.99577  0.01852  1.0000
  H   H506      1.0  0.05302  0.61508  0.85374  1.0000
  C   C314      1.0  0.02219  0.00761  0.88511  1.0000
  C   C315      1.0  0.58743  0.55613  0.83357  1.0000
  H   H507      1.0  0.61046  0.53379  0.85312  1.0000
  C   C316      1.0  0.02515  0.62913  0.07068  1.0000
  H   H508      1.0  0.75354  0.02277  0.86822  1.0000
  H   H509      1.0  0.60202  0.60382  0.02613  1.0000
  H   H510      1.0  0.59550  0.82225  0.06658  1.0000
  C   C317      1.0  0.00000  0.58515  0.07050  1.0000
  C   C318      1.0  0.94472  0.01216  0.84479  1.0000
  H   H511      1.0  0.58513  0.78786  0.83760  1.0000
  C   C319      1.0  0.57291  0.60519  0.04980  1.0000
  H   H512      1.0  0.91014  0.99559  0.83355  1.0000
  C   C320      1.0  0.59020  0.72655  0.07675  1.0000
