data_image0
_chemical_formula_structural       HS2FeHSHCFeHC4HCHC2FeCSHFeCH9SCHCSC4HSFeSHC5H6C2H3CHFeCH3NSHSHNSHCSH6SC2HC2H2CH2C2H3CH3CH2CFeCSFeSNS2CH2SC2SC2H4C3HFeHCH4C2HCHSC3HSH4CFeSCFeSHFe2S3HFeS2FeSFeHSNFeCHC2SC6H4C2H3CH2CFeH3CSH2SHSH6SH2CH2NHC2HCHC2H3CH4CH3SNCHCH3CH2SH2CHC4H4FeC2H2SH2NC2H3NCH3SCHCFeHCS3FeCHCHC3H2SH2FeSFeHCHCHSNHCHCSCHCH3CH3C3H2SHSH2FeH2C3FeHFeC2HCFeCFeS2FeSFeS2H6C2SCH3C4HSHC3NH2CH2SH2CH5C3FeH3SH2NCH2CFeS2FeSCFe2S3HFeS2FeSFeS2HC5H2C6H5C3H3CNCSCH3CH3CHC2HCH3CH2SFeS2FeS2CFeHS3HSC6H6C2H4C4H3NC3H4CH3FeNH4C2H5SH3CHCFeHSCFeHCHS2HCHNHSH7NC2H3C2H3FeC2H2C2H2NHCSC3HCH2CH2CH3SH2CSC3HN2HCH2C2HFeH4SC2H2CHCHCH2SCH2CH2CHCH2CH2CFeHC2H4SCSFeS2FeS2CFeHS2FeNSC6H6C4HC3H4C2HSH2SNH2C3H3CH2C2SH3CH4CH2CH3Fe2HSHCS2HC2HFeCH2NH2NHCH5CHCH3SH2SC2HC3H2C2H3CH4C2H3NCH2CHSH4CFeH2C2H3C2H5SFeC2HC2FeH3CH7CH3NCSHNCH6CHSHSHSFeS2FeS2FeHCHCH3CH2SH2C6H4CHFeSC4HCFeHCNHSHSH2CSHSNH2C3HC2HCH3NCH6CSCHCHSH3CH2S2H2C4H2FeCH2SHCSCSH2FeS2FeS2H5SHCSH3CHC6H5C2HC2FeSH2CH2CNH2CH3CFeNHCH2CHCHCS3C2HC3H3NH2CHFeCNSH8CH3FeH2C3H2C2H3CHCH3CNC2H3SH3CHSHC2H3CHSCHFeSCH2C2FeHFeC3SHCHNHCHCH2CH2FeH5SHCSCHCH2SH2C2H3C3H3CHNCH2SFeHCHCH8CH2C2H3NC2H2C3S3FeSFeHSCHSC3HCH3C3H5FeH2SH2CHCFeHCSC2H3C2H3NS2NHFeHCH3C2HC2FeH4CH3SCFeHSFeHCSC2SCSHC2HC2H2CH2CNC2SHSCH4CH4SH4SHNHCH2FeC2H3FeHC2FeHCHC2H2C2H2SC2H3CNCHNHFeHCHCH2CH3FeS2HCFeH3C2H3CH2SH5CSCH3CHCHCH4SNH4NH3SH5CH3CFeS2Fe2HS3CFeCHC5HC2NCHSH3CH2C2HC2H2CSHCNH2SH2FeH2CH6C2S2HCHCHCHFe3HSCSCS3CH3SNCSCH4CH3CH2CH3C2HCSH2CH2
_chemical_formula_sum              "H768 S192 Fe96 C480 N48"
_cell_length_a       42.9809
_cell_length_b       43.2258
_cell_length_c       47.2328
_cell_angle_alpha    89.6491
_cell_angle_beta     90.3317
_cell_angle_gamma    120.117

_space_group_name_H-M_alt    "P 1"
_space_group_IT_number       1

loop_
  _space_group_symop_operation_xyz
  'x, y, z'

loop_
  _atom_site_type_symbol
  _atom_site_label
  _atom_site_symmetry_multiplicity
  _atom_site_fract_x
  _atom_site_fract_y
  _atom_site_fract_z
  _atom_site_occupancy
  H   H1        1.0  0.16499  0.42571  0.11743  1.0000
  S   S1        1.0  0.11915  0.42814  0.16031  1.0000
  S   S2        1.0  0.06444  0.44036  0.22229  1.0000
  Fe  Fe1       1.0  0.38678  0.46890  0.06533  1.0000
  H   H2        1.0  0.15615  0.41422  0.06568  1.0000
  S   S3        1.0  0.33070  0.46116  0.06600  1.0000
  H   H3        1.0  0.44656  0.38428  0.23883  1.0000
  C   C1        1.0  0.11539  0.42592  0.12317  1.0000
  Fe  Fe2       1.0  0.38779  0.03213  0.15919  1.0000
  H   H4        1.0  0.40913  0.33880  0.18752  1.0000
  C   C2        1.0  0.31015  0.46608  0.03514  1.0000
  C   C3        1.0  0.13613  0.51583  0.09041  1.0000
  C   C4        1.0  0.14164  0.42398  0.10704  1.0000
  C   C5        1.0  0.27324  0.45442  0.03556  1.0000
  H   H5        1.0  0.06891  0.49046  0.17928  1.0000
  C   C6        1.0  0.40896  0.16838  0.10650  1.0000
  H   H6        1.0  0.25815  0.44353  0.05490  1.0000
  C   C7        1.0  0.10562  0.41338  0.06459  1.0000
  C   C8        1.0  0.13679  0.41773  0.07774  1.0000
  Fe  Fe3       1.0  0.06809  0.40982  0.18527  1.0000
  C   C9        1.0  0.43577  0.35495  0.24007  1.0000
  S   S4        1.0  0.38173  0.05220  0.05736  1.0000
  H   H7        1.0  0.39183  0.16345  0.08737  1.0000
  Fe  Fe4       1.0  0.46746  0.51684  0.05796  1.0000
  C   C10       1.0  0.08561  0.42418  0.10952  1.0000
  H   H8        1.0  0.39930  0.28801  0.21956  1.0000
  H   H9        1.0  0.06653  0.30216  0.08899  1.0000
  H   H10       1.0  0.35515  0.27985  0.22869  1.0000
  H   H11       1.0  0.46142  0.16032  0.08280  1.0000
  H   H12       1.0  0.39460  0.17146  0.12486  1.0000
  H   H13       1.0  0.39393  0.44496  0.15466  1.0000
  H   H14       1.0  0.45241  0.34854  0.22601  1.0000
  H   H15       1.0  0.14473  0.49564  0.09349  1.0000
  H   H16       1.0  0.36401  0.44034  0.20063  1.0000
  S   S5        1.0  0.39171  0.42022  0.07423  1.0000
  C   C11       1.0  0.52175  0.06019  0.14131  1.0000
  H   H17       1.0  0.10724  0.50281  0.09641  1.0000
  C   C12       1.0  0.35872  0.02971  0.26346  1.0000
  S   S6        1.0  0.39581  0.07766  0.18713  1.0000
  C   C13       1.0  0.05101  0.31595  0.08472  1.0000
  C   C14       1.0  0.12026  0.49912  0.04151  1.0000
  C   C15       1.0  0.39283  0.34420  0.20279  1.0000
  C   C16       1.0  0.38184  0.10509  0.11527  1.0000
  H   H18       1.0  0.36422  0.32897  0.19587  1.0000
  S   S7        1.0  0.47774  0.47166  0.06507  1.0000
  Fe  Fe5       1.0  0.43921  0.45718  0.10114  1.0000
  S   S8        1.0  0.46135  0.44768  0.14168  1.0000
  H   H19       1.0  0.38661  0.37307  0.25175  1.0000
  C   C17       1.0  0.43524  0.13551  0.08648  1.0000
  C   C18       1.0  0.40670  0.44190  0.22589  1.0000
  C   C19       1.0  0.44046  0.44685  0.17379  1.0000
  C   C20       1.0  0.45731  0.44703  0.19936  1.0000
  C   C21       1.0  0.44061  0.44488  0.22535  1.0000
  H   H20       1.0  0.48326  0.44867  0.19909  1.0000
  H   H21       1.0  0.45394  0.44547  0.24495  1.0000
  H   H22       1.0  0.12377  0.50826  0.01912  1.0000
  H   H23       1.0  0.53919  0.47394  0.01794  1.0000
  H   H24       1.0  0.36414  0.09829  0.09628  1.0000
  H   H25       1.0  0.49859  0.06325  0.14410  1.0000
  C   C22       1.0  0.40434  0.09848  0.24254  1.0000
  C   C23       1.0  0.38848  0.06954  0.22375  1.0000
  H   H26       1.0  0.42168  0.12523  0.23450  1.0000
  H   H27       1.0  0.43432  0.19426  0.10333  1.0000
  H   H28       1.0  0.34742  0.33044  0.24548  1.0000
  C   C24       1.0  0.40706  0.44501  0.17429  1.0000
  H   H29       1.0  0.05659  0.50759  0.24153  1.0000
  Fe  Fe6       1.0  0.42983  0.43998  0.03745  1.0000
  C   C25       1.0  0.39017  0.44240  0.20032  1.0000
  H   H30       1.0  0.28676  0.34827  0.02745  1.0000
  H   H31       1.0  0.44076  0.11308  0.08922  1.0000
  H   H32       1.0  0.05656  0.41453  0.07018  1.0000
  N   N1        1.0  0.41626  0.13880  0.11128  1.0000
  S   S9        1.0  0.43132  0.05102  0.12654  1.0000
  H   H33       1.0  0.40147  0.37311  0.20095  1.0000
  S   S10       1.0  0.42239  0.48652  0.02711  1.0000
  H   H34       1.0  0.09105  0.48585  0.04642  1.0000
  N   N2        1.0  0.39730  0.33473  0.23208  1.0000
  S   S11       1.0  0.09402  0.39602  0.03025  1.0000
  H   H35       1.0  0.41882  0.12970  0.06679  1.0000
  C   C26       1.0  0.08058  0.41762  0.08036  1.0000
  S   S12       1.0  0.38366  0.43583  0.25801  1.0000
  H   H36       1.0  0.46495  0.17148  0.13485  1.0000
  H   H37       1.0  0.44489  0.12427  0.14101  1.0000
  H   H38       1.0  0.06615  0.42735  0.12144  1.0000
  H   H39       1.0  0.06368  0.35384  0.13284  1.0000
  H   H40       1.0  0.38646  0.08236  0.11887  1.0000
  H   H41       1.0  0.36690  0.10624  0.13404  1.0000
  S   S13       1.0  0.43130  0.50433  0.09547  1.0000
  C   C27       1.0  0.38425  0.29597  0.23405  1.0000
  C   C28       1.0  0.40558  0.05607  0.02603  1.0000
  H   H42       1.0  0.42499  0.14790  0.15614  1.0000
  C   C29       1.0  0.43885  0.14612  0.13687  1.0000
  C   C30       1.0  0.42870  0.04219  0.02422  1.0000
  H   H43       1.0  0.06157  0.31216  0.14033  1.0000
  H   H44       1.0  0.07088  0.34488  0.08237  1.0000
  C   C31       1.0  0.06514  0.51330  0.17769  1.0000
  H   H45       1.0  0.12834  0.47848  0.04274  1.0000
  H   H46       1.0  0.38767  0.28827  0.25596  1.0000
  C   C32       1.0  0.37633  0.34383  0.25154  1.0000
  C   C33       1.0  0.36601  0.03504  0.23429  1.0000
  H   H47       1.0  0.44004  0.34876  0.26220  1.0000
  H   H48       1.0  0.18958  0.52517  0.05583  1.0000
  H   H49       1.0  0.50880  0.52685  0.12416  1.0000
  C   C34       1.0  0.06343  0.51666  0.26388  1.0000
  H   H50       1.0  0.52685  0.50973  0.16841  1.0000
  H   H51       1.0  0.33285  0.41187  0.02711  1.0000
  H   H52       1.0  0.51602  0.51570  0.01635  1.0000
  C   C35       1.0  0.04509  0.32446  0.13441  1.0000
  H   H53       1.0  0.43207  0.02858  0.04224  1.0000
  H   H54       1.0  0.45565  0.23330  0.45499  1.0000
  C   C36       1.0  0.06101  0.39297  0.34252  1.0000
  Fe  Fe7       1.0  0.12860  0.47588  0.42759  1.0000
  C   C37       1.0  0.25666  0.40709  0.41366  1.0000
  S   S14       1.0  0.11813  0.48849  0.38297  1.0000
  Fe  Fe8       1.0  0.18430  0.47488  0.46767  1.0000
  S   S15       1.0  0.23277  0.46725  0.46560  1.0000
  N   N3        1.0  0.26633  0.43661  0.39327  1.0000
  S   S16       1.0  0.13516  0.43123  0.44583  1.0000
  S   S17       1.0  0.09401  0.47438  0.46345  1.0000
  C   C38       1.0  0.26594  0.48340  0.49230  1.0000
  H   H55       1.0  0.22614  0.44798  0.40876  1.0000
  H   H56       1.0  0.44213  0.14333  0.47143  1.0000
  S   S18       1.0  0.17977  0.51944  0.44700  1.0000
  C   C39       1.0  0.05796  0.40341  0.31489  1.0000
  C   C40       1.0  0.36401  0.41844  0.47855  1.0000
  S   S19       1.0  0.38134  0.06517  0.45214  1.0000
  C   C41       1.0  0.28963  0.46998  0.49396  1.0000
  C   C42       1.0  0.43017  0.15344  0.48713  1.0000
  H   H57       1.0  0.30054  0.42416  0.36863  1.0000
  H   H58       1.0  0.37779  0.33571  0.27364  1.0000
  H   H59       1.0  0.27964  0.40243  0.41739  1.0000
  H   H60       1.0  0.08178  0.41049  0.38484  1.0000
  C   C43       1.0  0.09497  0.45513  0.35720  1.0000
  C   C44       1.0  0.07954  0.41874  0.36362  1.0000
  C   C45       1.0  0.07342  0.43980  0.30847  1.0000
  H   H61       1.0  0.28720  0.45000  0.47904  1.0000
  Fe  Fe9       1.0  0.10587  0.43452  0.48401  1.0000
  H   H62       1.0  0.09014  0.51947  0.26858  1.0000
  C   C46       1.0  0.37465  0.05868  0.28225  1.0000
  H   H63       1.0  0.37330  0.14354  0.45640  1.0000
  H   H64       1.0  0.24883  0.41305  0.43452  1.0000
  H   H65       1.0  0.33916  0.43450  0.44647  1.0000
  H   H66       1.0  0.30483  0.49281  0.39008  1.0000
  C   C47       1.0  0.23507  0.44163  0.38865  1.0000
  C   C48       1.0  0.29679  0.46984  0.40477  1.0000
  H   H67       1.0  0.44299  0.44387  0.42104  1.0000
  C   C49       1.0  0.50231  0.04852  0.36806  1.0000
  H   H68       1.0  0.42121  0.48272  0.44103  1.0000
  S   S20       1.0  0.53178  0.12188  0.36954  1.0000
  C   C50       1.0  0.53284  0.08216  0.36403  1.0000
  C   C51       1.0  0.09178  0.46554  0.32959  1.0000
  C   C52       1.0  0.27688  0.42790  0.36603  1.0000
  H   H69       1.0  0.25471  0.40271  0.35692  1.0000
  S   S21       1.0  0.36382  0.05148  0.31851  1.0000
  H   H70       1.0  0.44862  0.16336  0.50570  1.0000
  H   H71       1.0  0.40379  0.21559  0.48732  1.0000
  H   H72       1.0  0.35750  0.43080  0.49555  1.0000
  H   H73       1.0  0.47193  0.20324  0.44891  1.0000
  C   C53       1.0  0.35322  0.42009  0.45079  1.0000
  Fe  Fe10      1.0  0.41295  0.09382  0.41306  1.0000
  S   S22       1.0  0.46691  0.14345  0.41156  1.0000
  C   C54       1.0  0.36181  0.40436  0.42863  1.0000
  Fe  Fe11      1.0  0.40419  0.09194  0.34894  1.0000
  S   S23       1.0  0.45728  0.14251  0.34209  1.0000
  H   H74       1.0  0.07130  0.44808  0.28727  1.0000
  Fe  Fe12      1.0  0.47788  0.11842  0.37430  1.0000
  Fe  Fe13      1.0  0.44171  0.16353  0.37988  1.0000
  S   S24       1.0  0.45159  0.21853  0.39193  1.0000
  S   S25       1.0  0.42601  0.06688  0.37876  1.0000
  S   S26       1.0  0.38677  0.11499  0.38375  1.0000
  H   H75       1.0  0.39468  0.18742  0.44016  1.0000
  Fe  Fe14      1.0  0.41691  0.36713  0.32754  1.0000
  S   S27       1.0  0.36838  0.37358  0.32210  1.0000
  S   S28       1.0  0.40999  0.31344  0.31456  1.0000
  Fe  Fe15      1.0  0.46518  0.44642  0.34086  1.0000
  S   S29       1.0  0.42063  0.45853  0.33596  1.0000
  Fe  Fe16      1.0  0.38833  0.40797  0.36078  1.0000
  H   H76       1.0  0.04911  0.36487  0.34763  1.0000
  S   S30       1.0  0.43417  0.39779  0.36847  1.0000
  N   N4        1.0  0.47648  0.49610  0.43863  1.0000
  Fe  Fe17      1.0  0.40506  0.42340  0.29772  1.0000
  C   C55       1.0  0.39965  0.16691  0.45027  1.0000
  H   H77       1.0  0.35754  0.03496  0.50757  1.0000
  C   C56       1.0  0.39000  0.38338  0.46236  1.0000
  C   C57       1.0  0.37949  0.38530  0.43451  1.0000
  S   S31       1.0  0.15522  0.47519  0.50696  1.0000
  C   C58       1.0  0.43960  0.24437  0.37016  1.0000
  C   C59       1.0  0.44597  0.27769  0.37999  1.0000
  C   C60       1.0  0.43689  0.29911  0.36327  1.0000
  C   C61       1.0  0.42141  0.28733  0.33654  1.0000
  C   C62       1.0  0.41497  0.25396  0.32674  1.0000
  C   C63       1.0  0.42396  0.23250  0.34348  1.0000
  H   H78       1.0  0.45814  0.28709  0.40057  1.0000
  H   H79       1.0  0.44202  0.32476  0.37100  1.0000
  H   H80       1.0  0.40298  0.24465  0.30609  1.0000
  H   H81       1.0  0.41896  0.20691  0.33571  1.0000
  C   C64       1.0  0.40500  0.06192  0.48159  1.0000
  C   C65       1.0  0.45916  0.21189  0.46513  1.0000
  H   H82       1.0  0.41002  0.11551  0.28609  1.0000
  H   H83       1.0  0.47687  0.04633  0.37287  1.0000
  H   H84       1.0  0.51334  0.04985  0.45741  1.0000
  C   C66       1.0  0.44220  0.07594  0.48060  1.0000
  H   H85       1.0  0.45682  0.08831  0.46136  1.0000
  H   H86       1.0  0.32079  0.46683  0.40842  1.0000
  C   C67       1.0  0.38304  0.40069  0.48429  1.0000
  Fe  Fe18      1.0  0.14515  0.51506  0.48407  1.0000
  H   H87       1.0  0.38531  0.37226  0.41759  1.0000
  H   H88       1.0  0.46808  0.47799  0.39550  1.0000
  H   H89       1.0  0.48067  0.50158  0.48383  1.0000
  C   C68       1.0  0.47624  0.48174  0.46715  1.0000
  S   S32       1.0  0.35176  0.41040  0.39370  1.0000
  H   H90       1.0  0.44999  0.45740  0.47176  1.0000
  H   H91       1.0  0.40444  0.36934  0.46676  1.0000
  S   S33       1.0  0.52138  0.48995  0.35207  1.0000
  H   H92       1.0  0.49743  0.47431  0.46943  1.0000
  S   S34       1.0  0.06202  0.38993  0.50964  1.0000
  H   H93       1.0  0.40440  0.12992  0.49420  1.0000
  H   H94       1.0  0.28971  0.47711  0.42540  1.0000
  H   H95       1.0  0.49040  0.46088  0.41716  1.0000
  H   H96       1.0  0.23362  0.38157  0.40588  1.0000
  H   H97       1.0  0.07237  0.51142  0.49523  1.0000
  H   H98       1.0  0.24153  0.46402  0.37367  1.0000
  S   S35       1.0  0.45237  0.41501  0.30046  1.0000
  H   H99       1.0  0.47851  0.52422  0.36073  1.0000
  H   H100      1.0  0.44762  0.51698  0.41568  1.0000
  C   C69       1.0  0.46061  0.07407  0.50465  1.0000
  H   H101      1.0  0.38213  0.17209  0.50368  1.0000
  H   H102      1.0  0.21161  0.41709  0.37993  1.0000
  N   N5        1.0  0.42438  0.18164  0.47470  1.0000
  H   H103      1.0  0.41120  0.15771  0.43363  1.0000
  C   C70       1.0  0.46920  0.46851  0.41720  1.0000
  C   C71       1.0  0.53686  0.06992  0.44499  1.0000
  H   H104      1.0  0.47854  0.22399  0.48296  1.0000
  C   C72       1.0  0.44836  0.50620  0.43698  1.0000
  H   H105      1.0  0.53407  0.52362  0.51311  1.0000
  C   C73       1.0  0.39784  0.09302  0.27178  1.0000
  C   C74       1.0  0.40847  0.19429  0.49614  1.0000
  H   H106      1.0  0.10378  0.49366  0.32451  1.0000
  H   H107      1.0  0.48943  0.08514  0.50386  1.0000
  H   H108      1.0  0.28432  0.44958  0.35013  1.0000
  C   C75       1.0  0.38633  0.04585  0.50667  1.0000
  H   H109      1.0  0.54166  0.09695  0.45060  1.0000
  H   H110      1.0  0.34814  0.03751  0.38171  1.0000
  H   H111      1.0  0.52903  0.06567  0.42227  1.0000
  H   H112      1.0  0.53393  0.52129  0.43479  1.0000
  C   C76       1.0  0.26926  0.50917  0.51174  1.0000
  H   H113      1.0  0.25137  0.51996  0.51037  1.0000
  H   H114      1.0  0.45303  0.52698  0.45297  1.0000
  H   H115      1.0  0.11247  0.46052  0.58259  1.0000
  S   S36       1.0  0.11147  0.39722  0.63708  1.0000
  N   N6        1.0  0.24014  0.44629  0.59751  1.0000
  C   C77       1.0  0.41763  0.28553  0.72505  1.0000
  H   H116      1.0  0.24398  0.45445  0.55243  1.0000
  C   C78       1.0  0.05682  0.46755  0.59968  1.0000
  H   H117      1.0  0.27317  0.48872  0.62635  1.0000
  H   H118      1.0  0.27840  0.43488  0.61754  1.0000
  H   H119      1.0  0.13894  0.50484  0.56844  1.0000
  C   C79       1.0  0.40474  0.04384  0.53072  1.0000
  H   H120      1.0  0.46596  0.35065  0.70505  1.0000
  H   H121      1.0  0.20602  0.41338  0.56361  1.0000
  S   S37       1.0  0.06325  0.37739  0.71292  1.0000
  H   H122      1.0  0.19531  0.39758  0.61360  1.0000
  H   H123      1.0  0.19316  0.43715  0.62065  1.0000
  C   C80       1.0  0.39026  0.03398  0.73460  1.0000
  H   H124      1.0  0.28231  0.50028  0.58977  1.0000
  C   C81       1.0  0.50294  0.08374  0.71425  1.0000
  C   C82       1.0  0.11051  0.39879  0.55147  1.0000
  C   C83       1.0  0.12093  0.39977  0.57980  1.0000
  C   C84       1.0  0.09618  0.39148  0.60176  1.0000
  H   H125      1.0  0.14833  0.40754  0.58473  1.0000
  H   H126      1.0  0.12992  0.40559  0.53470  1.0000
  H   H127      1.0  0.12825  0.49831  0.60565  1.0000
  H   H128      1.0  0.39233  0.34500  0.70331  1.0000
  Fe  Fe19      1.0  0.08131  0.43233  0.73026  1.0000
  C   C85       1.0  0.45228  0.34994  0.72516  1.0000
  C   C86       1.0  0.07487  0.38847  0.54484  1.0000
  H   H129      1.0  0.28695  0.44689  0.58087  1.0000
  H   H130      1.0  0.43370  0.28394  0.74309  1.0000
  S   S38       1.0  0.10003  0.45902  0.68790  1.0000
  H   H131      1.0  0.53854  0.07360  0.64055  1.0000
  H   H132      1.0  0.04668  0.47730  0.54414  1.0000
  N   N7        1.0  0.50637  0.07173  0.74288  1.0000
  C   C87       1.0  0.41372  0.43970  0.68597  1.0000
  C   C88       1.0  0.31929  0.50725  0.53482  1.0000
  H   H133      1.0  0.40625  0.31998  0.68185  1.0000
  H   H134      1.0  0.36611  0.29700  0.70292  1.0000
  H   H135      1.0  0.37079  0.29560  0.75531  1.0000
  N   N8        1.0  0.08431  0.48954  0.57840  1.0000
  C   C89       1.0  0.40954  0.09625  0.74260  1.0000
  H   H136      1.0  0.43066  0.28434  0.70512  1.0000
  H   H137      1.0  0.46932  0.34967  0.74288  1.0000
  H   H138      1.0  0.39044  0.26125  0.72607  1.0000
  S   S39       1.0  0.47012  0.06063  0.64013  1.0000
  C   C90       1.0  0.26036  0.48460  0.60512  1.0000
  H   H139      1.0  0.09176  0.49014  0.53344  1.0000
  C   C91       1.0  0.39842  0.31900  0.75344  1.0000
  Fe  Fe20      1.0  0.07710  0.40395  0.66995  1.0000
  H   H140      1.0  0.52173  0.11288  0.71123  1.0000
  C   C92       1.0  0.04957  0.37825  0.56668  1.0000
  S   S40       1.0  0.41501  0.41435  0.73883  1.0000
  S   S41       1.0  0.40101  0.40274  0.51814  1.0000
  S   S42       1.0  0.47468  0.48987  0.55150  1.0000
  Fe  Fe21      1.0  0.45350  0.50124  0.59099  1.0000
  C   C93       1.0  0.22335  0.44207  0.56930  1.0000
  H   H141      1.0  0.45181  0.37540  0.72647  1.0000
  C   C94       1.0  0.43539  0.43848  0.70775  1.0000
  H   H142      1.0  0.04919  0.43892  0.59835  1.0000
  C   C95       1.0  0.46677  0.48050  0.65911  1.0000
  C   C96       1.0  0.48844  0.47852  0.68058  1.0000
  C   C97       1.0  0.47278  0.45737  0.70480  1.0000
  H   H143      1.0  0.51741  0.49354  0.67853  1.0000
  H   H144      1.0  0.48962  0.45617  0.72136  1.0000
  S   S43       1.0  0.48724  0.50985  0.63038  1.0000
  H   H145      1.0  0.41892  0.12294  0.73445  1.0000
  H   H146      1.0  0.20644  0.45486  0.56828  1.0000
  Fe  Fe22      1.0  0.39545  0.50791  0.55846  1.0000
  S   S44       1.0  0.39552  0.46176  0.58088  1.0000
  Fe  Fe23      1.0  0.41681  0.45493  0.53943  1.0000
  H   H147      1.0  0.07657  0.50000  0.75589  1.0000
  C   C98       1.0  0.44199  0.05804  0.52978  1.0000
  H   H148      1.0  0.52449  0.52253  0.73046  1.0000
  C   C99       1.0  0.40265  0.06844  0.72394  1.0000
  H   H149      1.0  0.41248  0.46210  0.64526  1.0000
  S   S45       1.0  0.40851  0.07717  0.68736  1.0000
  N   N9        1.0  0.41557  0.31861  0.72652  1.0000
  H   H150      1.0  0.39627  0.34351  0.75528  1.0000
  C   C100      1.0  0.42936  0.46064  0.66167  1.0000
  H   H151      1.0  0.38475  0.42503  0.68814  1.0000
  C   C101      1.0  0.21191  0.42648  0.61892  1.0000
  S   S46       1.0  0.46647  0.05677  0.55944  1.0000
  C   C102      1.0  0.39408  0.32010  0.70255  1.0000
  H   H152      1.0  0.22365  0.42836  0.64034  1.0000
  C   C103      1.0  0.26511  0.43214  0.59668  1.0000
  H   H153      1.0  0.24261  0.49647  0.60541  1.0000
  H   H154      1.0  0.47519  0.07859  0.71021  1.0000
  H   H155      1.0  0.06680  0.47652  0.62158  1.0000
  C   C104      1.0  0.29606  0.52124  0.53283  1.0000
  H   H156      1.0  0.11112  0.52261  0.66340  1.0000
  H   H157      1.0  0.25089  0.40336  0.59073  1.0000
  H   H158      1.0  0.46095  0.51117  0.72322  1.0000
  C   C105      1.0  0.07082  0.47537  0.54977  1.0000
  C   C106      1.0  0.06028  0.38010  0.59510  1.0000
  C   C107      1.0  0.11753  0.48832  0.58405  1.0000
  H   H159      1.0  0.09328  0.52440  0.72343  1.0000
  H   H160      1.0  0.06311  0.44675  0.54805  1.0000
  S   S47       1.0  0.41293  0.49836  0.51635  1.0000
  H   H161      1.0  0.46052  0.52176  0.75976  1.0000
  S   S48       1.0  0.35020  0.52002  0.56315  1.0000
  H   H162      1.0  0.39020  0.03139  0.54997  1.0000
  H   H163      1.0  0.50908  0.06952  0.69758  1.0000
  Fe  Fe24      1.0  0.41635  0.03873  0.66046  1.0000
  H   H164      1.0  0.33344  0.47039  0.51678  1.0000
  H   H165      1.0  0.47039  0.08680  0.76156  1.0000
  C   C108      1.0  0.48087  0.03295  0.74578  1.0000
  C   C109      1.0  0.54349  0.07878  0.74710  1.0000
  C   C110      1.0  0.31603  0.48167  0.51524  1.0000
  Fe  Fe25      1.0  0.44047  0.03039  0.60123  1.0000
  H   H166      1.0  0.42642  0.20557  0.51491  1.0000
  Fe  Fe26      1.0  0.04466  0.45049  0.68274  1.0000
  C   C111      1.0  0.09393  0.52724  0.74686  1.0000
  C   C112      1.0  0.09222  0.52695  0.58003  1.0000
  H   H167      1.0  0.51715  0.12067  0.76305  1.0000
  C   C113      1.0  0.49812  0.09135  0.76431  1.0000
  Fe  Fe27      1.0  0.12816  0.43092  0.99442  1.0000
  C   C114      1.0  0.25564  0.45658  0.01109  1.0000
  Fe  Fe28      1.0  0.12646  0.43707  0.92999  1.0000
  S   S49       1.0  0.17769  0.49009  0.92950  1.0000
  S   S50       1.0  0.09376  0.40428  0.89240  1.0000
  Fe  Fe29      1.0  0.19779  0.46502  0.96115  1.0000
  S   S51       1.0  0.25296  0.47170  0.95465  1.0000
  Fe  Fe30      1.0  0.15503  0.50333  0.96732  1.0000
  S   S52       1.0  0.14806  0.41094  0.95916  1.0000
  S   S53       1.0  0.10201  0.45224  0.96526  1.0000
  H   H168      1.0  0.24174  0.41476  0.86808  1.0000
  H   H169      1.0  0.20052  0.43194  0.91055  1.0000
  H   H170      1.0  0.06890  0.39412  0.79044  1.0000
  H   H171      1.0  0.53066  0.51803  0.93893  1.0000
  H   H172      1.0  0.15109  0.49749  0.81904  1.0000
  H   H173      1.0  0.27129  0.45983  0.85615  1.0000
  C   C115      1.0  0.40415  0.08966  0.77183  1.0000
  C   C116      1.0  0.27485  0.47035  0.98595  1.0000
  S   S54       1.0  0.17982  0.48299  0.99904  1.0000
  C   C117      1.0  0.31182  0.48223  0.98552  1.0000
  H   H174      1.0  0.29651  0.41244  0.97054  1.0000
  H   H175      1.0  0.51749  0.04636  0.96003  1.0000
  H   H176      1.0  0.16687  0.43020  0.88704  1.0000
  C   C118      1.0  0.10009  0.42185  0.85770  1.0000
  C   C119      1.0  0.12565  0.45745  0.85172  1.0000
  C   C120      1.0  0.13114  0.47000  0.82359  1.0000
  C   C121      1.0  0.42152  0.43829  0.96044  1.0000
  H   H177      1.0  0.24049  0.49471  0.89482  1.0000
  S   S55       1.0  0.11924  0.46371  0.76628  1.0000
  H   H178      1.0  0.14105  0.47527  0.86875  1.0000
  C   C122      1.0  0.44739  0.04582  0.99894  1.0000
  C   C123      1.0  0.19019  0.42586  0.88844  1.0000
  C   C124      1.0  0.22978  0.48649  0.87289  1.0000
  N   N10       1.0  0.21830  0.44852  0.86783  1.0000
  H   H179      1.0  0.32692  0.49329  0.96622  1.0000
  H   H180      1.0  0.26108  0.45079  0.89316  1.0000
  C   C125      1.0  0.24950  0.44321  0.87139  1.0000
  H   H181      1.0  0.17969  0.44169  0.83569  1.0000
  H   H182      1.0  0.27490  0.39303  0.00345  1.0000
  S   S56       1.0  0.50127  0.41858  0.77372  1.0000
  H   H183      1.0  0.17975  0.39689  0.88476  1.0000
  H   H184      1.0  0.20693  0.49153  0.87022  1.0000
  C   C126      1.0  0.20367  0.43852  0.83879  1.0000
  H   H185      1.0  0.19488  0.41007  0.83420  1.0000
  H   H186      1.0  0.22388  0.45544  0.82259  1.0000
  H   H187      1.0  0.30742  0.35159  0.95059  1.0000
  H   H188      1.0  0.52275  0.05471  0.89462  1.0000
  H   H189      1.0  0.53767  0.09035  0.91960  1.0000
  C   C127      1.0  0.11074  0.44724  0.80135  1.0000
  C   C128      1.0  0.32857  0.37350  0.96359  1.0000
  C   C129      1.0  0.28567  0.38777  0.98375  1.0000
  Fe  Fe31      1.0  0.45053  0.42064  0.77637  1.0000
  H   H190      1.0  0.48272  0.48674  0.99149  1.0000
  H   H191      1.0  0.35491  0.43339  0.99474  1.0000
  H   H192      1.0  0.50159  0.47154  0.94653  1.0000
  S   S57       1.0  0.38171  0.04570  0.81862  1.0000
  H   H193      1.0  0.05972  0.37165  0.83999  1.0000
  H   H194      1.0  0.25128  0.50449  0.85794  1.0000
  N   N11       1.0  0.31372  0.37849  0.99023  1.0000
  C   C130      1.0  0.51056  0.50974  0.99346  1.0000
  H   H195      1.0  0.50741  0.44584  0.99171  1.0000
  H   H196      1.0  0.35008  0.36680  0.96782  1.0000
  C   C131      1.0  0.29805  0.34520  0.00716  1.0000
  Fe  Fe32      1.0  0.46093  0.09431  0.90496  1.0000
  S   S58       1.0  0.50721  0.14785  0.89285  1.0000
  S   S59       1.0  0.46701  0.06717  0.94404  1.0000
  Fe  Fe33      1.0  0.42467  0.08625  0.84729  1.0000
  S   S60       1.0  0.46808  0.13941  0.83110  1.0000
  C   C132      1.0  0.08478  0.41185  0.80741  1.0000
  Fe  Fe34      1.0  0.50543  0.12337  0.85089  1.0000
  Fe  Fe35      1.0  0.46546  0.15910  0.87454  1.0000
  S   S61       1.0  0.47288  0.21326  0.88641  1.0000
  S   S62       1.0  0.46241  0.06908  0.86413  1.0000
  S   S63       1.0  0.41866  0.10668  0.88961  1.0000
  H   H197      1.0  0.50608  0.05683  0.82986  1.0000
  Fe  Fe36      1.0  0.47896  0.37948  0.80993  1.0000
  S   S64       1.0  0.42671  0.37957  0.81090  1.0000
  S   S65       1.0  0.47810  0.32789  0.79888  1.0000
  Fe  Fe37      1.0  0.52287  0.46132  0.80683  1.0000
  S   S66       1.0  0.47390  0.46691  0.80615  1.0000
  Fe  Fe38      1.0  0.45482  0.42569  0.84087  1.0000
  S   S67       1.0  0.42714  0.43866  0.87534  1.0000
  S   S68       1.0  0.50554  0.42247  0.84330  1.0000
  H   H198      1.0  0.36475  0.40189  0.01158  1.0000
  C   C133      1.0  0.34286  0.40770  0.00662  1.0000
  C   C134      1.0  0.43010  0.42900  0.91105  1.0000
  C   C135      1.0  0.43161  0.41353  0.96881  1.0000
  C   C136      1.0  0.44124  0.39664  0.94819  1.0000
  C   C137      1.0  0.44085  0.40463  0.91930  1.0000
  H   H199      1.0  0.44898  0.37733  0.95452  1.0000
  H   H200      1.0  0.44810  0.39143  0.90342  1.0000
  C   C138      1.0  0.47124  0.24349  0.86193  1.0000
  C   C139      1.0  0.47587  0.27613  0.87185  1.0000
  C   C140      1.0  0.47740  0.30207  0.85285  1.0000
  C   C141      1.0  0.47467  0.29563  0.82374  1.0000
  C   C142      1.0  0.46992  0.26295  0.81381  1.0000
  C   C143      1.0  0.46795  0.23684  0.83281  1.0000
  H   H201      1.0  0.47850  0.28147  0.89435  1.0000
  H   H202      1.0  0.48109  0.32716  0.86071  1.0000
  H   H203      1.0  0.46769  0.25776  0.79130  1.0000
  H   H204      1.0  0.46405  0.21171  0.82492  1.0000
  H   H205      1.0  0.41213  0.46463  0.92534  1.0000
  C   C144      1.0  0.53450  0.46984  0.99469  1.0000
  C   C145      1.0  0.44310  0.06332  0.97535  1.0000
  C   C146      1.0  0.42014  0.07737  0.97723  1.0000
  H   H206      1.0  0.08624  0.50527  0.97776  1.0000
  H   H207      1.0  0.26265  0.36597  0.97205  1.0000
  H   H208      1.0  0.41410  0.45149  0.97597  1.0000
  C   C147      1.0  0.53294  0.06114  0.83164  1.0000
  N   N12       1.0  0.53698  0.50169  0.98069  1.0000
  C   C148      1.0  0.40147  0.07377  0.00252  1.0000
  S   S69       1.0  0.43226  0.40324  0.00484  1.0000
  C   C149      1.0  0.39093  0.05500  0.78240  1.0000
  H   H209      1.0  0.06391  0.52766  0.79663  1.0000
  H   H210      1.0  0.40901  0.11114  0.78608  1.0000
  H   H211      1.0  0.34087  0.39829  0.95042  1.0000
  C   C150      1.0  0.07964  0.39918  0.83548  1.0000
  H   H212      1.0  0.41413  0.31833  0.77202  1.0000
  H   H213      1.0  0.41664  0.09086  0.95917  1.0000
  H   H214      1.0  0.50000  0.08272  0.78616  1.0000
  C   C151      1.0  0.42044  0.44574  0.93168  1.0000
  H   H215      1.0  0.52007  0.21447  0.84354  1.0000
  C   C152      1.0  0.52916  0.49459  0.95013  1.0000
  C   C153      1.0  0.52493  0.03010  0.94648  1.0000
  H   H216      1.0  0.38356  0.08449  0.00378  1.0000
  C   C154      1.0  0.53794  0.03156  0.83405  1.0000
  H   H217      1.0  0.46511  0.03489  0.99764  1.0000
  H   H218      1.0  0.35807  0.49028  0.00971  1.0000
  H   H219      1.0  0.31877  0.33781  0.01263  1.0000
  C   C155      1.0  0.32948  0.48034  0.01009  1.0000
  H   H220      1.0  0.27600  0.32238  0.99548  1.0000
  H   H221      1.0  0.22712  0.44725  0.01165  1.0000
  S   S70       1.0  0.09526  0.73552  0.02825  1.0000
  Fe  Fe39      1.0  0.12503  0.66257  0.18882  1.0000
  S   S71       1.0  0.07229  0.65665  0.20146  1.0000
  S   S72       1.0  0.12758  0.61960  0.16359  1.0000
  Fe  Fe40      1.0  0.16722  0.73673  0.21521  1.0000
  S   S73       1.0  0.11697  0.73578  0.22998  1.0000
  S   S74       1.0  0.22058  0.78605  0.22564  1.0000
  C   C156      1.0  0.07117  0.73035  0.12278  1.0000
  Fe  Fe41      1.0  0.09573  0.71325  0.18677  1.0000
  H   H222      1.0  0.14639  0.82064  0.12155  1.0000
  S   S75       1.0  0.51332  0.57187  0.04787  1.0000
  S   S76       1.0  0.14704  0.71789  0.17118  1.0000
  S   S77       1.0  0.06243  0.72867  0.15928  1.0000
  H   H223      1.0  0.13121  0.78440  0.17928  1.0000
  S   S78       1.0  0.29953  0.90096  0.12883  1.0000
  C   C157      1.0  0.24468  0.81739  0.19875  1.0000
  C   C158      1.0  0.27000  0.85279  0.20598  1.0000
  C   C159      1.0  0.28784  0.87877  0.18478  1.0000
  C   C160      1.0  0.28036  0.86929  0.15628  1.0000
  C   C161      1.0  0.25590  0.83370  0.14908  1.0000
  C   C162      1.0  0.23827  0.80781  0.17022  1.0000
  H   H224      1.0  0.27526  0.86029  0.22806  1.0000
  H   H225      1.0  0.30668  0.90618  0.19052  1.0000
  H   H226      1.0  0.25021  0.82617  0.12703  1.0000
  H   H227      1.0  0.21956  0.78045  0.16445  1.0000
  H   H228      1.0  0.17034  0.79683  0.15824  1.0000
  H   H229      1.0  0.08507  0.60152  0.04511  1.0000
  C   C163      1.0  0.09424  0.54687  0.17013  1.0000
  C   C164      1.0  0.08995  0.57690  0.16897  1.0000
  H   H230      1.0  0.05064  0.65454  0.10254  1.0000
  H   H231      1.0  0.17512  0.81184  0.19421  1.0000
  H   H232      1.0  0.12041  0.54979  0.16641  1.0000
  H   H233      1.0  0.10767  0.80832  0.14308  1.0000
  C   C165      1.0  0.08522  0.73400  0.06438  1.0000
  C   C166      1.0  0.05591  0.57274  0.17343  1.0000
  C   C167      1.0  0.10600  0.74189  0.11316  1.0000
  C   C168      1.0  0.11311  0.74432  0.08409  1.0000
  H   H234      1.0  0.12773  0.74981  0.12803  1.0000
  H   H235      1.0  0.14026  0.75367  0.07682  1.0000
  H   H236      1.0  0.35353  0.01264  0.21991  1.0000
  N   N13       1.0  0.15838  0.83882  0.16466  1.0000
  C   C169      1.0  0.14328  0.85097  0.18717  1.0000
  C   C170      1.0  0.13580  0.83009  0.13891  1.0000
  C   C171      1.0  0.15882  0.80658  0.17453  1.0000
  H   H237      1.0  0.14231  0.87521  0.18052  1.0000
  H   H238      1.0  0.15971  0.85763  0.20690  1.0000
  H   H239      1.0  0.13467  0.85372  0.13083  1.0000
  H   H240      1.0  0.20729  0.85940  0.14066  1.0000
  C   C172      1.0  0.19550  0.86736  0.15815  1.0000
  H   H241      1.0  0.11538  0.82976  0.19267  1.0000
  H   H242      1.0  0.07843  0.62096  0.12106  1.0000
  H   H243      1.0  0.19648  0.89255  0.15145  1.0000
  Fe  Fe42      1.0  0.09863  0.67919  0.24340  1.0000
  N   N14       1.0  0.14199  0.52914  0.06089  1.0000
  H   H244      1.0  0.35715  0.82439  0.15195  1.0000
  H   H245      1.0  0.08506  0.57104  0.22723  1.0000
  H   H246      1.0  0.21361  0.87356  0.17683  1.0000
  H   H247      1.0  0.15167  0.53783  0.10574  1.0000
  C   C173      1.0  0.35193  0.86223  0.10881  1.0000
  C   C174      1.0  0.04542  0.63952  0.08233  1.0000
  H   H248      1.0  0.04496  0.65694  0.06516  1.0000
  H   H249      1.0  0.32552  0.84527  0.11937  1.0000
  H   H250      1.0  0.05185  0.59528  0.17129  1.0000
  H   H251      1.0  0.11559  0.67799  0.09514  1.0000
  H   H252      1.0  0.37461  0.91662  0.14393  1.0000
  S   S79       1.0  0.34270  0.00665  0.12760  1.0000
  H   H253      1.0  0.41693  0.92205  0.10563  1.0000
  H   H254      1.0  0.49103  0.55005  0.14336  1.0000
  H   H255      1.0  0.09432  0.59956  0.09768  1.0000
  C   C175      1.0  0.07310  0.60684  0.10040  1.0000
  H   H256      1.0  0.35097  0.88541  0.09928  1.0000
  C   C176      1.0  0.41641  0.89785  0.11447  1.0000
  Fe  Fe43      1.0  0.42794  0.99822  0.13364  1.0000
  H   H257      1.0  0.10961  0.68019  0.05762  1.0000
  S   S80       1.0  0.47422  0.98769  0.13725  1.0000
  C   C177      1.0  0.53290  0.53596  0.17741  1.0000
  Fe  Fe44      1.0  0.34664  0.95721  0.13399  1.0000
  H   H258      1.0  0.40049  0.90547  0.16729  1.0000
  C   C178      1.0  0.37724  0.89405  0.15237  1.0000
  H   H259      1.0  0.52421  0.57303  0.11628  1.0000
  S   S81       1.0  0.38779  0.98111  0.16900  1.0000
  S   S82       1.0  0.38700  0.97141  0.09909  1.0000
  H   H260      1.0  0.43980  0.90768  0.12920  1.0000
  C   C179      1.0  0.38278  0.84279  0.14087  1.0000
  H   H261      1.0  0.35422  0.84659  0.09115  1.0000
  N   N15       1.0  0.38211  0.87420  0.12911  1.0000
  H   H262      1.0  0.40506  0.85100  0.15649  1.0000
  S   S83       1.0  0.15037  0.68145  0.23173  1.0000
  H   H263      1.0  0.06534  0.62660  0.03172  1.0000
  H   H264      1.0  0.42103  0.88397  0.09664  1.0000
  H   H265      1.0  0.13588  0.56733  0.03576  1.0000
  H   H266      1.0  0.38664  0.82725  0.12393  1.0000
  H   H267      1.0  0.35237  0.87674  0.16469  1.0000
  H   H268      1.0  0.18583  0.55513  0.03146  1.0000
  H   H269      1.0  0.13041  0.65597  0.07112  1.0000
  N   N16       1.0  0.07310  0.62958  0.07692  1.0000
  C   C180      1.0  0.09082  0.57869  0.24985  1.0000
  C   C181      1.0  0.10878  0.66235  0.07513  1.0000
  H   H270      1.0  0.14661  0.57932  0.07237  1.0000
  H   H271      1.0  0.10198  0.54498  0.06232  1.0000
  H   H272      1.0  0.19778  0.56803  0.06778  1.0000
  C   C182      1.0  0.06506  0.60987  0.04988  1.0000
  C   C183      1.0  0.13111  0.55645  0.05777  1.0000
  H   H273      1.0  0.52899  0.59602  0.17885  1.0000
  H   H274      1.0  0.53970  0.00581  0.22664  1.0000
  H   H275      1.0  0.54149  0.53216  0.07793  1.0000
  Fe  Fe45      1.0  0.38644  0.02279  0.09540  1.0000
  C   C184      1.0  0.18050  0.54511  0.05372  1.0000
  C   C185      1.0  0.51738  0.02610  0.13797  1.0000
  H   H276      1.0  0.09122  0.60449  0.25234  1.0000
  H   H277      1.0  0.11837  0.58368  0.25444  1.0000
  C   C186      1.0  0.05025  0.72234  0.07384  1.0000
  C   C187      1.0  0.51605  0.55309  0.13381  1.0000
  H   H278      1.0  0.04674  0.58163  0.10221  1.0000
  H   H279      1.0  0.50782  0.53160  0.18787  1.0000
  N   N17       1.0  0.06369  0.55061  0.26846  1.0000
  H   H280      1.0  0.08823  0.60563  0.37136  1.0000
  C   C188      1.0  0.51807  0.71398  0.36975  1.0000
  S   S84       1.0  0.09341  0.71639  0.40425  1.0000
  C   C189      1.0  0.10951  0.71530  0.34840  1.0000
  C   C190      1.0  0.10390  0.70059  0.32108  1.0000
  C   C191      1.0  0.07271  0.56166  0.29833  1.0000
  H   H281      1.0  0.12123  0.64231  0.45595  1.0000
  C   C192      1.0  0.34229  0.98220  0.41219  1.0000
  H   H282      1.0  0.13405  0.74001  0.35303  1.0000
  H   H283      1.0  0.12400  0.71399  0.30482  1.0000
  C   C193      1.0  0.04685  0.65111  0.33639  1.0000
  H   H284      1.0  0.33860  0.95015  0.36232  1.0000
  H   H285      1.0  0.26741  0.94854  0.37078  1.0000
  C   C194      1.0  0.10898  0.62663  0.38526  1.0000
  H   H286      1.0  0.53874  0.00933  0.45392  1.0000
  H   H287      1.0  0.06391  0.63889  0.41653  1.0000
  H   H288      1.0  0.27060  0.95347  0.40864  1.0000
  S   S85       1.0  0.14789  0.56249  0.50665  1.0000
  H   H289      1.0  0.34069  0.00311  0.27145  1.0000
  H   H290      1.0  0.05635  0.60681  0.44366  1.0000
  C   C195      1.0  0.08370  0.69822  0.36974  1.0000
  S   S86       1.0  0.07522  0.68130  0.48006  1.0000
  C   C196      1.0  0.28399  0.95040  0.38961  1.0000
  C   C197      1.0  0.33788  0.97550  0.36129  1.0000
  C   C198      1.0  0.50507  0.01751  0.36726  1.0000
  H   H291      1.0  0.28342  0.92445  0.39166  1.0000
  N   N18       1.0  0.32119  0.98060  0.38682  1.0000
  N   N19       1.0  0.10002  0.61815  0.41554  1.0000
  H   H292      1.0  0.07304  0.58722  0.30235  1.0000
  C   C199      1.0  0.04529  0.54149  0.49565  1.0000
  H   H293      1.0  0.32309  0.97501  0.34167  1.0000
  H   H294      1.0  0.13538  0.62912  0.38013  1.0000
  C   C200      1.0  0.09963  0.58462  0.42281  1.0000
  C   C201      1.0  0.50511  0.54417  0.35398  1.0000
  H   H295      1.0  0.34332  0.95716  0.41502  1.0000
  Fe  Fe46      1.0  0.05440  0.69472  0.44101  1.0000
  H   H296      1.0  0.33078  0.98662  0.43181  1.0000
  H   H297      1.0  0.54172  0.74387  0.31801  1.0000
  H   H298      1.0  0.51802  0.54955  0.44859  1.0000
  H   H299      1.0  0.51332  0.53887  0.41161  1.0000
  S   S87       1.0  0.51110  0.57608  0.50354  1.0000
  C   C202      1.0  0.51205  0.52789  0.43319  1.0000
  C   C203      1.0  0.05212  0.66622  0.36355  1.0000
  H   H300      1.0  0.15465  0.65187  0.42942  1.0000
  H   H301      1.0  0.11070  0.65243  0.37937  1.0000
  C   C204      1.0  0.08209  0.60443  0.50594  1.0000
  H   H302      1.0  0.37051  0.00474  0.41079  1.0000
  C   C205      1.0  0.32055  0.01436  0.38415  1.0000
  H   H303      1.0  0.07947  0.56171  0.40996  1.0000
  C   C206      1.0  0.12725  0.64774  0.43300  1.0000
  H   H304      1.0  0.53228  0.77976  0.35378  1.0000
  H   H305      1.0  0.05277  0.54109  0.31299  1.0000
  S   S88       1.0  0.06570  0.64778  0.28156  1.0000
  C   C207      1.0  0.51447  0.58034  0.35288  1.0000
  H   H306      1.0  0.49491  0.58794  0.35869  1.0000
  H   H307      1.0  0.30512  0.01435  0.36511  1.0000
  C   C208      1.0  0.07264  0.66831  0.31503  1.0000
  H   H308      1.0  0.36602  0.99778  0.35849  1.0000
  H   H309      1.0  0.12632  0.58694  0.41922  1.0000
  C   C209      1.0  0.53836  0.01999  0.36242  1.0000
  H   H310      1.0  0.09971  0.56585  0.30407  1.0000
  C   C210      1.0  0.06423  0.61377  0.42112  1.0000
  H   H311      1.0  0.51106  0.71483  0.39227  1.0000
  H   H312      1.0  0.49636  0.71321  0.35628  1.0000
  C   C211      1.0  0.04854  0.57506  0.49909  1.0000
  H   H313      1.0  0.48161  0.99167  0.37135  1.0000
  H   H314      1.0  0.09271  0.57736  0.44545  1.0000
  C   C212      1.0  0.53064  0.53425  0.34740  1.0000
  Fe  Fe47      1.0  0.05301  0.71019  0.50430  1.0000
  H   H315      1.0  0.08457  0.63016  0.50938  1.0000
  C   C213      1.0  0.10935  0.56686  0.50411  1.0000
  C   C214      1.0  0.07557  0.53746  0.49802  1.0000
  H   H316      1.0  0.51775  0.68826  0.36649  1.0000
  H   H317      1.0  0.30867  0.01952  0.40316  1.0000
  H   H318      1.0  0.12808  0.67342  0.42802  1.0000
  H   H319      1.0  0.13841  0.62317  0.51353  1.0000
  S   S89       1.0  0.54221  0.98149  0.36575  1.0000
  C   C215      1.0  0.11243  0.60032  0.50854  1.0000
  S   S90       1.0  0.08788  0.75086  0.53705  1.0000
  Fe  Fe48      1.0  0.15055  0.68898  0.69035  1.0000
  S   S91       1.0  0.09572  0.66924  0.70815  1.0000
  S   S92       1.0  0.16325  0.65228  0.66564  1.0000
  Fe  Fe49      1.0  0.18004  0.76382  0.71508  1.0000
  S   S93       1.0  0.12647  0.74977  0.73409  1.0000
  S   S94       1.0  0.22955  0.81657  0.72670  1.0000
  C   C216      1.0  0.51604  0.57416  0.70712  1.0000
  Fe  Fe50      1.0  0.10370  0.72189  0.69259  1.0000
  H   H320      1.0  0.11315  0.54426  0.56437  1.0000
  S   S95       1.0  0.17836  0.71405  0.73110  1.0000
  S   S96       1.0  0.15734  0.74016  0.67237  1.0000
  Fe  Fe51      1.0  0.12361  0.69849  0.74775  1.0000
  N   N20       1.0  0.29134  0.97089  0.68909  1.0000
  S   S97       1.0  0.33886  0.91053  0.62967  1.0000
  C   C217      1.0  0.26058  0.84147  0.69967  1.0000
  C   C218      1.0  0.29430  0.87072  0.70689  1.0000
  C   C219      1.0  0.31900  0.89168  0.68570  1.0000
  C   C220      1.0  0.30997  0.88366  0.65712  1.0000
  C   C221      1.0  0.27644  0.85421  0.64996  1.0000
  C   C222      1.0  0.25186  0.83319  0.67111  1.0000
  H   H321      1.0  0.30141  0.87705  0.72895  1.0000
  H   H322      1.0  0.34507  0.91383  0.69141  1.0000
  H   H323      1.0  0.26931  0.84780  0.62790  1.0000
  H   H324      1.0  0.22603  0.81080  0.66525  1.0000
  H   H325      1.0  0.11831  0.77394  0.63745  1.0000
  H   H326      1.0  0.30987  0.01892  0.66424  1.0000
  C   C223      1.0  0.13409  0.57974  0.66316  1.0000
  C   C224      1.0  0.12721  0.60814  0.66389  1.0000
  C   C225      1.0  0.09164  0.60093  0.66361  1.0000
  C   C226      1.0  0.10447  0.76359  0.59314  1.0000
  H   H327      1.0  0.16158  0.58519  0.66308  1.0000
  C   C227      1.0  0.09819  0.75670  0.62225  1.0000
  C   C228      1.0  0.07864  0.74134  0.57330  1.0000
  C   C229      1.0  0.30431  0.95818  0.71304  1.0000
  H   H328      1.0  0.30986  0.97521  0.73213  1.0000
  H   H329      1.0  0.08607  0.67506  0.55907  1.0000
  H   H330      1.0  0.49933  0.60407  0.74971  1.0000
  H   H331      1.0  0.48627  0.01736  0.72980  1.0000
  C   C230      1.0  0.06997  0.53709  0.66428  1.0000
  C   C231      1.0  0.52847  0.54424  0.74509  1.0000
  H   H332      1.0  0.12449  0.67813  0.54143  1.0000
  S   S98       1.0  0.51474  0.00963  0.67492  1.0000
  H   H333      1.0  0.08274  0.67161  0.61185  1.0000
  H   H334      1.0  0.50028  0.58680  0.69996  1.0000
  S   S99       1.0  0.45176  0.54813  0.57207  1.0000
  N   N21       1.0  0.12412  0.67125  0.58662  1.0000
  H   H335      1.0  0.09748  0.60761  0.75007  1.0000
  H   H336      1.0  0.12956  0.78614  0.58601  1.0000
  C   C232      1.0  0.28535  0.94811  0.66410  1.0000
  C   C233      1.0  0.16339  0.68564  0.58821  1.0000
  C   C234      1.0  0.10552  0.54426  0.66361  1.0000
  H   H337      1.0  0.32966  0.95862  0.70755  1.0000
  H   H338      1.0  0.34450  0.01033  0.67591  1.0000
  H   H339      1.0  0.12576  0.71185  0.61354  1.0000
  C   C235      1.0  0.06567  0.72795  0.63166  1.0000
  H   H340      1.0  0.31093  0.95019  0.65688  1.0000
  H   H341      1.0  0.51016  0.55217  0.69201  1.0000
  C   C236      1.0  0.10593  0.58810  0.74380  1.0000
  C   C237      1.0  0.06312  0.56550  0.66357  1.0000
  S   S100      1.0  0.05733  0.71908  0.66802  1.0000
  H   H342      1.0  0.08590  0.62252  0.66333  1.0000
  H   H343      1.0  0.11892  0.67259  0.63176  1.0000
  H   H344      1.0  0.24678  0.97864  0.67949  1.0000
  C   C238      1.0  0.04470  0.53897  0.74512  1.0000
  H   H345      1.0  0.11374  0.62249  0.56647  1.0000
  H   H346      1.0  0.26627  0.91935  0.66879  1.0000
  H   H347      1.0  0.26088  0.98581  0.71594  1.0000
  H   H348      1.0  0.29870  0.54137  0.54770  1.0000
  C   C239      1.0  0.10535  0.63177  0.58532  1.0000
  H   H349      1.0  0.23612  0.94108  0.70217  1.0000
  H   H350      1.0  0.27441  0.95606  0.64583  1.0000
  C   C240      1.0  0.04625  0.71230  0.58268  1.0000
  H   H351      1.0  0.53053  0.57700  0.59164  1.0000
  H   H352      1.0  0.12894  0.71518  0.56154  1.0000
  H   H353      1.0  0.17834  0.71537  0.58955  1.0000
  Fe  Fe52      1.0  0.38840  0.96504  0.63615  1.0000
  Fe  Fe53      1.0  0.46911  0.53393  0.53190  1.0000
  H   H354      1.0  0.28423  0.93018  0.71904  1.0000
  S   S101      1.0  0.38625  0.01328  0.62022  1.0000
  H   H355      1.0  0.07564  0.62005  0.58411  1.0000
  C   C241      1.0  0.11552  0.68544  0.56104  1.0000
  S   S102      1.0  0.41495  0.98957  0.67761  1.0000
  S   S103      1.0  0.44061  0.98034  0.61419  1.0000
  H   H356      1.0  0.13412  0.59887  0.75119  1.0000
  C   C242      1.0  0.31859  0.00823  0.68218  1.0000
  C   C243      1.0  0.25725  0.96905  0.69702  1.0000
  H   H357      1.0  0.17081  0.67546  0.60732  1.0000
  Fe  Fe54      1.0  0.46712  0.00976  0.65418  1.0000
  C   C244      1.0  0.11230  0.68224  0.61203  1.0000
  H   H358      1.0  0.17339  0.67796  0.56936  1.0000
  H   H359      1.0  0.38483  0.01243  0.72043  1.0000
  N   N22       1.0  0.50684  0.56064  0.73649  1.0000
  H   H360      1.0  0.11130  0.62037  0.60443  1.0000
  H   H361      1.0  0.54383  0.61136  0.75540  1.0000
  N   N23       1.0  0.08170  0.55215  0.75567  1.0000
  H   H362      1.0  0.10209  0.53832  0.60148  1.0000
  C   C245      1.0  0.51473  0.59062  0.75569  1.0000
  H   H363      1.0  0.10619  0.58751  0.72030  1.0000
  H   H364      1.0  0.06779  0.52886  0.57550  1.0000
  H   H365      1.0  0.45261  0.02664  0.74268  1.0000
  H   H366      1.0  0.45099  0.54528  0.73263  1.0000
  H   H367      1.0  0.32444  0.02634  0.70061  1.0000
  C   C246      1.0  0.46815  0.53359  0.73813  1.0000
  H   H368      1.0  0.12191  0.53633  0.75409  1.0000
  C   C247      1.0  0.38389  0.02716  0.76371  1.0000
  H   H369      1.0  0.04772  0.79277  0.51500  1.0000
  H   H370      1.0  0.53719  0.59150  0.83039  1.0000
  H   H371      1.0  0.15271  0.61959  0.97490  1.0000
  S   S104      1.0  0.11157  0.67072  0.79056  1.0000
  H   H372      1.0  0.16031  0.72696  0.83806  1.0000
  H   H373      1.0  0.20279  0.75281  0.85557  1.0000
  S   S105      1.0  0.07130  0.67613  0.96351  1.0000
  C   C248      1.0  0.08998  0.68020  0.81816  1.0000
  C   C249      1.0  0.07710  0.70390  0.81433  1.0000
  H   H374      1.0  0.09820  0.62542  0.97872  1.0000
  C   C250      1.0  0.12325  0.56194  0.97589  1.0000
  C   C251      1.0  0.18235  0.75478  0.84234  1.0000
  C   C252      1.0  0.08686  0.66444  0.84488  1.0000
  H   H375      1.0  0.09678  0.64609  0.84806  1.0000
  H   H376      1.0  0.53820  0.89217  0.79082  1.0000
  C   C253      1.0  0.12642  0.59587  0.97647  1.0000
  C   C254      1.0  0.09561  0.59923  0.97861  1.0000
  H   H377      1.0  0.19014  0.72756  0.79396  1.0000
  H   H378      1.0  0.37361  0.00031  0.77185  1.0000
  H   H379      1.0  0.18114  0.79224  0.77915  1.0000
  C   C255      1.0  0.22778  0.81094  0.82207  1.0000
  H   H380      1.0  0.07902  0.71595  0.79380  1.0000
  H   H381      1.0  0.22329  0.76912  0.77830  1.0000
  H   H382      1.0  0.54422  0.92405  0.81763  1.0000
  H   H383      1.0  0.24949  0.81017  0.83446  1.0000
  C   C256      1.0  0.21191  0.75531  0.79887  1.0000
  C   C257      1.0  0.17007  0.77701  0.79924  1.0000
  H   H384      1.0  0.17058  0.76785  0.85523  1.0000
  H   H385      1.0  0.15819  0.79050  0.81142  1.0000
  H   H386      1.0  0.52581  0.87776  0.82690  1.0000
  N   N24       1.0  0.19806  0.77452  0.81568  1.0000
  C   C258      1.0  0.07110  0.67239  0.86768  1.0000
  H   H387      1.0  0.14772  0.74999  0.79352  1.0000
  H   H388      1.0  0.06881  0.66008  0.88817  1.0000
  C   C259      1.0  0.08215  0.55428  0.78692  1.0000
  H   H389      1.0  0.50773  0.58129  0.77798  1.0000
  S   S106      1.0  0.16228  0.55836  0.97411  1.0000
  H   H390      1.0  0.23345  0.75326  0.81039  1.0000
  H   H391      1.0  0.24006  0.82631  0.80222  1.0000
  H   H392      1.0  0.51483  0.00482  0.83482  1.0000
  H   H393      1.0  0.21817  0.82625  0.83459  1.0000
  C   C260      1.0  0.05829  0.69615  0.86388  1.0000
  Fe  Fe55      1.0  0.05203  0.69759  0.99838  1.0000
  H   H394      1.0  0.50067  0.01208  0.93373  1.0000
  H   H395      1.0  0.54420  0.01070  0.89883  1.0000
  C   C261      1.0  0.06158  0.56860  0.98061  1.0000
  C   C262      1.0  0.08920  0.53149  0.97806  1.0000
  H   H396      1.0  0.10962  0.56372  0.79555  1.0000
  H   H397      1.0  0.07350  0.57326  0.79428  1.0000
  H   H398      1.0  0.51125  0.53345  0.98343  1.0000
  C   C263      1.0  0.06137  0.71187  0.83714  1.0000
  C   C264      1.0  0.05855  0.53482  0.98064  1.0000
  H   H399      1.0  0.53093  0.01324  0.96084  1.0000
  H   H400      1.0  0.05140  0.73018  0.83402  1.0000
  H   H401      1.0  0.52105  0.53225  0.76663  1.0000
  H   H402      1.0  0.53366  0.53245  0.82938  1.0000
  H   H403      1.0  0.48277  0.02297  0.76714  1.0000
  S   S107      1.0  0.62970  0.12553  0.13920  1.0000
  Fe  Fe56      1.0  0.67631  0.11560  0.14080  1.0000
  C   C265      1.0  0.69657  0.08883  0.04089  1.0000
  C   C266      1.0  0.55629  0.09055  0.14132  1.0000
  H   H404      1.0  0.63125  0.04193  0.25650  1.0000
  C   C267      1.0  0.58674  0.08700  0.13830  1.0000
  C   C268      1.0  0.58249  0.05288  0.13556  1.0000
  Fe  Fe57      1.0  0.01168  0.42713  0.20239  1.0000
  H   H405      1.0  0.60575  0.04981  0.13321  1.0000
  H   H406      1.0  0.96493  0.26477  0.24389  1.0000
  H   H407      1.0  0.01505  0.25655  0.11672  1.0000
  C   C269      1.0  0.68820  0.21916  0.12756  1.0000
  H   H408      1.0  0.98748  0.31085  0.25426  1.0000
  H   H409      1.0  0.65147  0.08285  0.01631  1.0000
  H   H410      1.0  0.68918  0.09788  0.05964  1.0000
  H   H411      1.0  0.67585  0.25161  0.17084  1.0000
  H   H412      1.0  0.76057  0.07148  0.01676  1.0000
  H   H413      1.0  0.75718  0.27293  0.12855  1.0000
  H   H414      1.0  0.62796  0.04317  0.19052  1.0000
  C   C270      1.0  0.62699  0.06198  0.24488  1.0000
  H   H415      1.0  0.69242  0.19790  0.11831  1.0000
  H   H416      1.0  0.69390  0.23938  0.11071  1.0000
  H   H417      1.0  0.71083  0.28473  0.14877  1.0000
  N   N25       1.0  0.02519  0.30963  0.10765  1.0000
  C   C271      1.0  0.69570  0.03833  0.23680  1.0000
  S   S108      1.0  0.67931  0.06698  0.12916  1.0000
  H   H418      1.0  0.65909  0.20610  0.13293  1.0000
  N   N26       1.0  0.71115  0.23534  0.15280  1.0000
  C   C272      1.0  0.00033  0.27078  0.11102  1.0000
  H   H419      1.0  0.72140  0.27571  0.18364  1.0000
  H   H420      1.0  0.03728  0.30662  0.06387  1.0000
  H   H421      1.0  0.67359  0.19393  0.18071  1.0000
  H   H422      1.0  0.56704  0.05951  0.19632  1.0000
  H   H423      1.0  0.02199  0.35669  0.09854  1.0000
  H   H424      1.0  0.70736  0.18623  0.16619  1.0000
  C   C273      1.0  0.96067  0.28737  0.24936  1.0000
  H   H425      1.0  0.98964  0.31744  0.08006  1.0000
  S   S109      1.0  0.97893  0.37602  0.22677  1.0000
  H   H426      1.0  0.02648  0.31988  0.15223  1.0000
  S   S110      1.0  0.01709  0.39975  0.16422  1.0000
  H   H427      1.0  0.98494  0.25875  0.09120  1.0000
  S   S111      1.0  0.99652  0.46957  0.19778  1.0000
  Fe  Fe58      1.0  0.99000  0.34977  0.19045  1.0000
  S   S112      1.0  0.95517  0.29528  0.17088  1.0000
  S   S113      1.0  0.69990  0.12039  0.18385  1.0000
  Fe  Fe59      1.0  0.75307  0.15598  0.16315  1.0000
  S   S114      1.0  0.76312  0.11071  0.15393  1.0000
  S   S115      1.0  0.78584  0.20909  0.18540  1.0000
  Fe  Fe60      1.0  0.73426  0.10608  0.11256  1.0000
  H   H428      1.0  0.75544  0.23130  0.13607  1.0000
  C   C274      1.0  0.70240  0.20733  0.17442  1.0000
  H   H429      1.0  0.62275  0.07814  0.26103  1.0000
  C   C275      1.0  0.59037  0.07191  0.21117  1.0000
  H   H430      1.0  0.88873  0.25083  0.24673  1.0000
  H   H431      1.0  0.58483  0.08760  0.22688  1.0000
  H   H432      1.0  0.71937  0.21830  0.19375  1.0000
  C   C276      1.0  0.72153  0.07258  0.24571  1.0000
  H   H433      1.0  0.73712  0.09309  0.23024  1.0000
  H   H434      1.0  0.55936  0.11680  0.14381  1.0000
  S   S116      1.0  0.75566  0.09792  0.07123  1.0000
  H   H435      1.0  0.76751  0.26359  0.16348  1.0000
  H   H436      1.0  0.98412  0.32259  0.11707  1.0000
  C   C277      1.0  0.90814  0.27196  0.17504  1.0000
  C   C278      1.0  0.88784  0.23814  0.16260  1.0000
  C   C279      1.0  0.85027  0.21861  0.16562  1.0000
  C   C280      1.0  0.83287  0.23278  0.18125  1.0000
  C   C281      1.0  0.85320  0.26655  0.19386  1.0000
  C   C282      1.0  0.89078  0.28618  0.19070  1.0000
  H   H437      1.0  0.90114  0.22697  0.15051  1.0000
  H   H438      1.0  0.83479  0.19260  0.15586  1.0000
  H   H439      1.0  0.83979  0.27765  0.20590  1.0000
  H   H440      1.0  0.90621  0.31237  0.20015  1.0000
  C   C283      1.0  0.74944  0.25161  0.14481  1.0000
  H   H441      1.0  0.98037  0.26518  0.12810  1.0000
  Fe  Fe61      1.0  0.70743  0.07506  0.17103  1.0000
  S   S117      1.0  0.72887  0.15433  0.12057  1.0000
  C   C284      1.0  0.72755  0.08594  0.04108  1.0000
  C   C285      1.0  0.70450  0.26311  0.16452  1.0000
  C   C286      1.0  0.00431  0.32731  0.10047  1.0000
  C   C287      1.0  0.73681  0.07409  0.01660  1.0000
  H   H442      1.0  0.61430  0.09107  0.19861  1.0000
  C   C288      1.0  0.03168  0.50972  0.18395  1.0000
  Fe  Fe62      1.0  0.03249  0.38703  0.24377  1.0000
  H   H443      1.0  0.95032  0.29406  0.23008  1.0000
  C   C289      1.0  0.67526  0.08030  0.01630  1.0000
  N   N27       1.0  0.59622  0.04451  0.22507  1.0000
  H   H444      1.0  0.65248  0.07999  0.23353  1.0000
  S   S118      1.0  0.04166  0.35759  0.20879  1.0000
  H   H445      1.0  0.91789  0.31477  0.26008  1.0000
  S   S119      1.0  0.68749  0.02790  0.20067  1.0000
  H   H446      1.0  0.55713  0.03321  0.25769  1.0000
  H   H447      1.0  0.90422  0.22285  0.26190  1.0000
  C   C290      1.0  0.56165  0.03076  0.44187  1.0000
  S   S120      1.0  0.64317  0.04691  0.38564  1.0000
  H   H448      1.0  0.91129  0.30309  0.29702  1.0000
  S   S121      1.0  0.66036  0.05917  0.46361  1.0000
  N   N28       1.0  0.93559  0.27839  0.27331  1.0000
  H   H449      1.0  0.55602  0.05217  0.49396  1.0000
  H   H450      1.0  0.95556  0.33350  0.28402  1.0000
  C   C291      1.0  0.56572  0.08442  0.35771  1.0000
  C   C292      1.0  0.56848  0.05343  0.35688  1.0000
  C   C293      1.0  0.57846  0.07230  0.48066  1.0000
  H   H451      1.0  0.58936  0.11032  0.35419  1.0000
  C   C294      1.0  0.72794  0.08004  0.27477  1.0000
  C   C295      1.0  0.95120  0.27131  0.29880  1.0000
  H   H452      1.0  0.67890  0.10298  0.51277  1.0000
  C   C296      1.0  0.68323  0.05957  0.49481  1.0000
  H   H453      1.0  0.60268  0.06999  0.48528  1.0000
  H   H454      1.0  0.93304  0.26439  0.31737  1.0000
  H   H455      1.0  0.97740  0.29529  0.30468  1.0000
  N   N29       1.0  0.56911  0.06676  0.45024  1.0000
  C   C297      1.0  0.59953  0.09408  0.43343  1.0000
  H   H456      1.0  0.74853  0.10635  0.28159  1.0000
  H   H457      1.0  0.95642  0.24888  0.29530  1.0000
  H   H458      1.0  0.59356  0.09035  0.41040  1.0000
  H   H459      1.0  0.58444  0.09929  0.48763  1.0000
  H   H460      1.0  0.62440  0.09262  0.43696  1.0000
  H   H461      1.0  0.01934  0.51857  0.49063  1.0000
  C   C298      1.0  0.92977  0.30873  0.27885  1.0000
  S   S122      1.0  0.71793  0.06316  0.33120  1.0000
  C   C299      1.0  0.70784  0.05366  0.29499  1.0000
  H   H462      1.0  0.59395  0.05549  0.35206  1.0000
  C   C300      1.0  0.69576  0.03568  0.49911  1.0000
  H   H463      1.0  0.00666  0.52498  0.27566  1.0000
  S   S123      1.0  0.03429  0.37030  0.28900  1.0000
  H   H464      1.0  0.04319  0.49479  0.27753  1.0000
  H   H465      1.0  0.88104  0.23887  0.28359  1.0000
  H   H466      1.0  0.60568  0.12161  0.43881  1.0000
  C   C301      1.0  0.90086  0.24631  0.26614  1.0000
  H   H467      1.0  0.86031  0.18813  0.50754  1.0000
  H   H468      1.0  0.79495  0.16413  0.51425  1.0000
  S   S124      1.0  0.70701  0.07757  0.65196  1.0000
  S   S125      1.0  0.66876  0.14275  0.64953  1.0000
  H   H469      1.0  0.55048  0.06429  0.73119  1.0000
  H   H470      1.0  0.77524  0.14805  0.54845  1.0000
  C   C302      1.0  0.90273  0.20943  0.72756  1.0000
  C   C303      1.0  0.59569  0.10454  0.64585  1.0000
  C   C304      1.0  0.62631  0.10610  0.65775  1.0000
  C   C305      1.0  0.62260  0.07794  0.67492  1.0000
  H   H471      1.0  0.59843  0.12606  0.63229  1.0000
  H   H472      1.0  0.64614  0.07908  0.68437  1.0000
  Fe  Fe63      1.0  0.71547  0.13311  0.65022  1.0000
  C   C306      1.0  0.83312  0.15044  0.57263  1.0000
  H   H473      1.0  0.64285  0.07796  0.57523  1.0000
  H   H474      1.0  0.82699  0.12284  0.56742  1.0000
  S   S126      1.0  0.03355  0.49318  0.66646  1.0000
  H   H475      1.0  0.89216  0.15740  0.69132  1.0000
  C   C307      1.0  0.71316  0.03643  0.52465  1.0000
  S   S127      1.0  0.02702  0.42745  0.72620  1.0000
  C   C308      1.0  0.64423  0.06345  0.59428  1.0000
  S   S128      1.0  0.02251  0.39720  0.66153  1.0000
  H   H476      1.0  0.03184  0.46900  0.59693  1.0000
  H   H477      1.0  0.56353  0.10778  0.74502  1.0000
  Fe  Fe64      1.0  0.00978  0.37434  0.70558  1.0000
  S   S129      1.0  0.95607  0.32715  0.71877  1.0000
  S   S130      1.0  0.75001  0.14925  0.61127  1.0000
  Fe  Fe65      1.0  0.79626  0.16811  0.64180  1.0000
  S   S131      1.0  0.79363  0.11506  0.64316  1.0000
  S   S132      1.0  0.85086  0.21369  0.62904  1.0000
  H   H478      1.0  0.76585  0.13421  0.74221  1.0000
  H   H479      1.0  0.81273  0.14784  0.58821  1.0000
  H   H480      1.0  0.85997  0.12054  0.71241  1.0000
  H   H481      1.0  0.83728  0.13170  0.75665  1.0000
  H   H482      1.0  0.02182  0.36972  0.56164  1.0000
  S   S133      1.0  0.76226  0.15741  0.68070  1.0000
  H   H483      1.0  0.71009  0.10461  0.55752  1.0000
  C   C309      1.0  0.86008  0.17339  0.52702  1.0000
  S   S134      1.0  0.76284  0.07181  0.71557  1.0000
  H   H484      1.0  0.90522  0.14832  0.72524  1.0000
  H   H485      1.0  0.86662  0.22164  0.56614  1.0000
  H   H486      1.0  0.81959  0.20472  0.57079  1.0000
  C   C310      1.0  0.85995  0.15989  0.75633  1.0000
  H   H487      1.0  0.04067  0.37246  0.61178  1.0000
  C   C311      1.0  0.92659  0.29804  0.69266  1.0000
  C   C312      1.0  0.88995  0.27621  0.69906  1.0000
  C   C313      1.0  0.86622  0.25091  0.67942  1.0000
  C   C314      1.0  0.87914  0.24691  0.65342  1.0000
  C   C315      1.0  0.91560  0.26924  0.64676  1.0000
  C   C316      1.0  0.93927  0.29479  0.66629  1.0000
  H   H488      1.0  0.87992  0.27899  0.71929  1.0000
  H   H489      1.0  0.83796  0.23462  0.68437  1.0000
  H   H490      1.0  0.92576  0.26654  0.62658  1.0000
  H   H491      1.0  0.96746  0.31145  0.66118  1.0000
  H   H492      1.0  0.02570  0.51184  0.75361  1.0000
  C   C317      1.0  0.84206  0.17134  0.71081  1.0000
  C   C318      1.0  0.83995  0.20622  0.55548  1.0000
  H   H493      1.0  0.88748  0.18811  0.53659  1.0000
  C   C319      1.0  0.58822  0.04854  0.68034  1.0000
  C   C320      1.0  0.76265  0.11510  0.75843  1.0000
  Fe  Fe66      1.0  0.75622  0.10263  0.67968  1.0000
  S   S135      1.0  0.73951  0.06061  0.57785  1.0000
  H   H494      1.0  0.89552  0.22799  0.73806  1.0000
  H   H495      1.0  0.67168  0.06698  0.59536  1.0000
  C   C321      1.0  0.75927  0.08225  0.75093  1.0000
  H   H496      1.0  0.91186  0.22000  0.70574  1.0000
  H   H497      1.0  0.81840  0.14385  0.71024  1.0000
  C   C322      1.0  0.71817  0.06104  0.54594  1.0000
  N   N30       1.0  0.87198  0.17237  0.72707  1.0000
  H   H498      1.0  0.78952  0.12276  0.52793  1.0000
  H   H499      1.0  0.64116  0.07698  0.61308  1.0000
  C   C323      1.0  0.88289  0.14861  0.71343  1.0000
  H   H500      1.0  0.85516  0.14659  0.52044  1.0000
  H   H501      1.0  0.57571  0.03395  0.61162  1.0000
  H   H502      1.0  0.83312  0.18910  0.72028  1.0000
  C   C324      1.0  0.70594  0.08517  0.54149  1.0000
  Fe  Fe67      1.0  0.74508  0.09550  0.61523  1.0000
  N   N31       1.0  0.83244  0.17015  0.54719  1.0000
  H   H503      1.0  0.83982  0.22205  0.53687  1.0000
  C   C325      1.0  0.56154  0.07487  0.65075  1.0000
  H   H504      1.0  0.85968  0.16457  0.58358  1.0000
  H   H505      1.0  0.84988  0.17994  0.68846  1.0000
  C   C326      1.0  0.79652  0.15047  0.53379  1.0000
  H   H506      1.0  0.92619  0.21128  0.73917  1.0000
  C   C327      1.0  0.68836  0.08428  0.51608  1.0000
  H   H507      1.0  0.57709  0.03516  0.57370  1.0000
  C   C328      1.0  0.55756  0.04689  0.66819  1.0000
  S   S136      1.0  0.55670  0.13340  0.83008  1.0000
  S   S137      1.0  0.66643  0.06763  0.88228  1.0000
  S   S138      1.0  0.57847  0.50913  0.80175  1.0000
  C   C329      1.0  0.58639  0.07857  0.94604  1.0000
  C   C330      1.0  0.54591  0.07313  0.90821  1.0000
  H   H508      1.0  0.63351  0.28480  0.84773  1.0000
  C   C331      1.0  0.56258  0.09589  0.83122  1.0000
  C   C332      1.0  0.59733  0.10077  0.83205  1.0000
  C   C333      1.0  0.60235  0.07116  0.83465  1.0000
  H   H509      1.0  0.55457  0.46335  0.98607  1.0000
  H   H510      1.0  0.62045  0.12749  0.83114  1.0000
  H   H511      1.0  0.62926  0.07518  0.83509  1.0000
  N   N32       1.0  0.57588  0.25249  0.84971  1.0000
  H   H512      1.0  0.61533  0.24014  0.83428  1.0000
  H   H513      1.0  0.56860  0.09064  0.89394  1.0000
  C   C334      1.0  0.54646  0.22348  0.83330  1.0000
  H   H514      1.0  0.61123  0.27314  0.81389  1.0000
  Fe  Fe68      1.0  0.66865  0.03859  0.92094  1.0000
  C   C335      1.0  0.61056  0.26317  0.83580  1.0000
  N   N33       1.0  0.55597  0.05312  0.92820  1.0000
  S   S139      1.0  0.65748  0.05916  0.96124  1.0000
  H   H515      1.0  0.75247  0.03228  0.76649  1.0000
  H   H516      1.0  0.59248  0.30637  0.86243  1.0000
  H   H517      1.0  0.55001  0.19973  0.83168  1.0000
  H   H518      1.0  0.73573  0.14851  0.92850  1.0000
  H   H519      1.0  0.74988  0.04614  0.81690  1.0000
  H   H520      1.0  0.56797  0.29289  0.82950  1.0000
  H   H521      1.0  0.85026  0.17645  0.76690  1.0000
  H   H522      1.0  0.03228  0.51105  0.98224  1.0000
  C   C336      1.0  0.68446  0.06840  0.99187  1.0000
  H   H523      1.0  0.59358  0.06429  0.96219  1.0000
  H   H524      1.0  0.79969  0.16690  0.88893  1.0000
  H   H525      1.0  0.61091  0.09520  0.93316  1.0000
  Fe  Fe69      1.0  0.71107  0.06032  0.86592  1.0000
  H   H526      1.0  0.58001  0.21598  0.87852  1.0000
  H   H527      1.0  0.88206  0.16107  0.76950  1.0000
  C   C337      1.0  0.75487  0.05761  0.77215  1.0000
  C   C338      1.0  0.71517  0.06502  0.99212  1.0000
  C   C339      1.0  0.76230  0.12340  0.78717  1.0000
  H   H528      1.0  0.54831  0.48803  0.93977  1.0000
  H   H529      1.0  0.83401  0.18757  0.91560  1.0000
  C   C340      1.0  0.74487  0.12900  0.92446  1.0000
  C   C341      1.0  0.57263  0.03653  0.83617  1.0000
  H   H530      1.0  0.79724  0.19627  0.91441  1.0000
  H   H531      1.0  0.76509  0.14885  0.79297  1.0000
  H   H532      1.0  0.73876  0.12066  0.90193  1.0000
  C   C342      1.0  0.79396  0.11698  0.92582  1.0000
  H   H533      1.0  0.77494  0.13342  0.97529  1.0000
  C   C343      1.0  0.80461  0.17520  0.91161  1.0000
  H   H534      1.0  0.72215  0.05529  0.97358  1.0000
  H   H535      1.0  0.81966  0.16761  0.96602  1.0000
  H   H536      1.0  0.72816  0.10506  0.93783  1.0000
  C   C344      1.0  0.79074  0.15614  0.96048  1.0000
  N   N34       1.0  0.78358  0.14437  0.93063  1.0000
  C   C345      1.0  0.75730  0.09839  0.80832  1.0000
  C   C346      1.0  0.75335  0.06542  0.80070  1.0000
  H   H537      1.0  0.78846  0.10723  0.90352  1.0000
  H   H538      1.0  0.77876  0.09338  0.93995  1.0000
  H   H539      1.0  0.82310  0.12772  0.92995  1.0000
  S   S140      1.0  0.75608  0.10826  0.84426  1.0000
  H   H540      1.0  0.55015  0.23125  0.88974  1.0000
  H   H541      1.0  0.78323  0.17681  0.96487  1.0000
  H   H542      1.0  0.57973  0.09685  0.95761  1.0000
  C   C347      1.0  0.57018  0.28347  0.85102  1.0000
  H   H543      1.0  0.59791  0.26072  0.89184  1.0000
  S   S141      1.0  0.71663  0.03548  0.90621  1.0000
  H   H544      1.0  0.58953  0.04721  0.89772  1.0000
  C   C348      1.0  0.57611  0.23959  0.87873  1.0000
  C   C349      1.0  0.56669  0.03071  0.91216  1.0000
  H   H545      1.0  0.54708  0.07008  0.76852  1.0000
  H   H546      1.0  0.54477  0.23226  0.81144  1.0000
  H   H547      1.0  0.54487  0.27650  0.86242  1.0000
  C   C350      1.0  0.69374  0.69709  0.14569  1.0000
  H   H548      1.0  0.57254  0.54254  0.13162  1.0000
  S   S142      1.0  0.69471  0.68850  0.05876  1.0000
  C   C351      1.0  0.72189  0.79047  0.06046  1.0000
  H   H549      1.0  0.66103  0.77024  0.03168  1.0000
  Fe  Fe70      1.0  0.72535  0.71610  0.01952  1.0000
  S   S143      1.0  0.64153  0.68310  0.22013  1.0000
  C   C352      1.0  0.68436  0.81294  0.07778  1.0000
  H   H550      1.0  0.74429  0.80729  0.07527  1.0000
  H   H551      1.0  0.60957  0.00460  0.21301  1.0000
  C   C353      1.0  0.55660  0.57729  0.05035  1.0000
  C   C354      1.0  0.65783  0.75686  0.05258  1.0000
  Fe  Fe71      1.0  0.65103  0.70930  0.26343  1.0000
  H   H552      1.0  0.72654  0.80528  0.04008  1.0000
  Fe  Fe72      1.0  0.71106  0.64824  0.04844  1.0000
  C   C355      1.0  0.66834  0.68301  0.16767  1.0000
  C   C356      1.0  0.67427  0.70174  0.19319  1.0000
  C   C357      1.0  0.02778  0.54555  0.26175  1.0000
  S   S144      1.0  0.66883  0.59044  0.05351  1.0000
  H   H553      1.0  0.72380  0.76641  0.05574  1.0000
  C   C358      1.0  0.54789  0.02251  0.13538  1.0000
  H   H554      1.0  0.58723  0.58866  0.12436  1.0000
  N   N35       1.0  0.68645  0.78034  0.07266  1.0000
  H   H555      1.0  0.01984  0.53655  0.23952  1.0000
  C   C359      1.0  0.62578  0.58554  0.05220  1.0000
  H   H556      1.0  0.65796  0.80632  0.08705  1.0000
  C   C360      1.0  0.58506  0.60549  0.03578  1.0000
  H   H557      1.0  0.64413  0.65740  0.16500  1.0000
  H   H558      1.0  0.65860  0.73194  0.04830  1.0000
  C   C361      1.0  0.68189  0.76115  0.09974  1.0000
  H   H559      1.0  0.68904  0.68228  0.12624  1.0000
  H   H560      1.0  0.63061  0.74884  0.06083  1.0000
  Fe  Fe73      1.0  0.78782  0.70426  0.03442  1.0000
  H   H561      1.0  0.65569  0.98535  0.25014  1.0000
  H   H562      1.0  0.84771  0.71999  0.15338  1.0000
  H   H563      1.0  0.89111  0.72485  0.14672  1.0000
  H   H564      1.0  0.88620  0.76373  0.14873  1.0000
  H   H565      1.0  0.81561  0.73235  0.11533  1.0000
  S   S145      1.0  0.75711  0.74915  0.12157  1.0000
  H   H566      1.0  0.68774  0.82805  0.05775  1.0000
  C   C362      1.0  0.61954  0.60953  0.03659  1.0000
  S   S146      1.0  0.77694  0.74896  0.04296  1.0000
  C   C363      1.0  0.90013  0.75455  0.09493  1.0000
  H   H567      1.0  0.82263  0.67880  0.11253  1.0000
  C   C364      1.0  0.87311  0.73559  0.14116  1.0000
  H   H568      1.0  0.91893  0.74435  0.09900  1.0000
  H   H569      1.0  0.60209  0.53870  0.07883  1.0000
  S   S147      1.0  0.84693  0.72666  0.02511  1.0000
  H   H570      1.0  0.91392  0.78323  0.10108  1.0000
  H   H571      1.0  0.86611  0.68398  0.10550  1.0000
  C   C365      1.0  0.57763  0.56803  0.14144  1.0000
  C   C366      1.0  0.70571  0.73480  0.19652  1.0000
  H   H572      1.0  0.85384  0.77615  0.11079  1.0000
  H   H573      1.0  0.70576  0.83125  0.09275  1.0000
  H   H574      1.0  0.89554  0.75338  0.07162  1.0000
  C   C367      1.0  0.72515  0.73018  0.14903  1.0000
  C   C368      1.0  0.59732  0.55726  0.06670  1.0000
  C   C369      1.0  0.84181  0.74776  0.10413  1.0000
  H   H575      1.0  0.75521  0.77466  0.17717  1.0000
  H   H576      1.0  0.83592  0.74673  0.08107  1.0000
  H   H577      1.0  0.84261  0.69293  0.07821  1.0000
  C   C370      1.0  0.73100  0.74902  0.17445  1.0000
  H   H578      1.0  0.00087  0.53649  0.18519  1.0000
  N   N36       1.0  0.86591  0.73339  0.11038  1.0000
  C   C371      1.0  0.84856  0.69562  0.10133  1.0000
  H   H579      1.0  0.71050  0.74944  0.21607  1.0000
  H   H580      1.0  0.02864  0.71463  0.05867  1.0000
  S   S148      1.0  0.76163  0.67496  0.07473  1.0000
  Fe  Fe74      1.0  0.74733  0.71763  0.08136  1.0000
  H   H581      1.0  0.01637  0.71231  0.11036  1.0000
  C   C372      1.0  0.02687  0.53927  0.18093  1.0000
  H   H582      1.0  0.60007  0.57638  0.15692  1.0000
  C   C373      1.0  0.56288  0.55333  0.06597  1.0000
  H   H583      1.0  0.64116  0.63089  0.02472  1.0000
  H   H584      1.0  0.01803  0.61555  0.08355  1.0000
  H   H585      1.0  0.03792  0.58538  0.05003  1.0000
  H   H586      1.0  0.70338  0.77791  0.11526  1.0000
  H   H587      1.0  0.65551  0.75310  0.10972  1.0000
  H   H588      1.0  0.58037  0.62407  0.02359  1.0000
  H   H589      1.0  0.68343  0.73646  0.09668  1.0000
  H   H590      1.0  0.56694  0.99805  0.25150  1.0000
  C   C374      1.0  0.67576  0.01187  0.25698  1.0000
  H   H591      1.0  0.54476  0.99624  0.13280  1.0000
  H   H592      1.0  0.58099  0.01070  0.18831  1.0000
  C   C375      1.0  0.60391  0.02482  0.20331  1.0000
  C   C376      1.0  0.56354  0.01927  0.24091  1.0000
  H   H593      1.0  0.55373  0.54326  0.19417  1.0000
  H   H594      1.0  0.57487  0.60727  0.18428  1.0000
  H   H595      1.0  0.56200  0.61984  0.15191  1.0000
  N   N37       1.0  0.54491  0.56385  0.15520  1.0000
  C   C377      1.0  0.55301  0.59822  0.16810  1.0000
  C   C378      1.0  0.04335  0.72102  0.10305  1.0000
  H   H596      1.0  0.02725  0.57091  0.26433  1.0000
  H   H597      1.0  0.91954  0.74398  0.01573  1.0000
  C   C379      1.0  0.86495  0.69992  0.01443  1.0000
  C   C380      1.0  0.74343  0.75478  0.43948  1.0000
  C   C381      1.0  0.80240  0.61214  0.47857  1.0000
  S   S149      1.0  0.64504  0.90698  0.40107  1.0000
  S   S150      1.0  0.60517  0.97015  0.41973  1.0000
  S   S151      1.0  0.62886  0.97366  0.35293  1.0000
  Fe  Fe75      1.0  0.65172  0.76803  0.29988  1.0000
  S   S152      1.0  0.64696  0.81781  0.29558  1.0000
  Fe  Fe76      1.0  0.61043  0.69030  0.31988  1.0000
  H   H598      1.0  0.54768  0.78161  0.38959  1.0000
  S   S153      1.0  0.65107  0.74121  0.34088  1.0000
  C   C382      1.0  0.70438  0.96640  0.33516  1.0000
  H   H599      1.0  0.67906  0.95379  0.32257  1.0000
  S   S154      1.0  0.01040  0.57943  0.49398  1.0000
  C   C383      1.0  0.77454  0.55354  0.50011  1.0000
  C   C384      1.0  0.56506  0.56053  0.33879  1.0000
  C   C385      1.0  0.57384  0.59640  0.33648  1.0000
  H   H600      1.0  0.62842  0.68529  0.41199  1.0000
  C   C386      1.0  0.66550  0.63234  0.41998  1.0000
  H   H601      1.0  0.60013  0.61609  0.32919  1.0000
  H   H602      1.0  0.59569  0.60691  0.43190  1.0000
  H   H603      1.0  0.69188  0.01651  0.48285  1.0000
  C   C387      1.0  0.64499  0.84086  0.32552  1.0000
  C   C388      1.0  0.63139  0.86419  0.32244  1.0000
  C   C389      1.0  0.63064  0.88407  0.34559  1.0000
  H   H604      1.0  0.66578  0.99918  0.30127  1.0000
  H   H605      1.0  0.59919  0.58987  0.39811  1.0000
  H   H606      1.0  0.62149  0.86699  0.30201  1.0000
  H   H607      1.0  0.61985  0.90175  0.34301  1.0000
  H   H608      1.0  0.03182  0.65302  0.37967  1.0000
  Fe  Fe77      1.0  0.64165  0.95729  0.39457  1.0000
  H   H609      1.0  0.65928  0.62545  0.44276  1.0000
  H   H610      1.0  0.76284  0.98673  0.28066  1.0000
  S   S155      1.0  0.66472  0.59026  0.50128  1.0000
  H   H611      1.0  0.66844  0.81960  0.35452  1.0000
  H   H612      1.0  0.64041  0.63984  0.48782  1.0000
  C   C390      1.0  0.60356  0.61430  0.40939  1.0000
  H   H613      1.0  0.69415  0.65407  0.41866  1.0000
  C   C391      1.0  0.58325  0.61120  0.49423  1.0000
  Fe  Fe78      1.0  0.69169  0.73103  0.31987  1.0000
  H   H614      1.0  0.67397  0.69802  0.42047  1.0000
  C   C392      1.0  0.73782  0.57768  0.48324  1.0000
  S   S156      1.0  0.65090  0.67806  0.30168  1.0000
  C   C393      1.0  0.54888  0.60659  0.34407  1.0000
  C   C394      1.0  0.64569  0.67563  0.42166  1.0000
  H   H615      1.0  0.66695  0.85460  0.39556  1.0000
  H   H616      1.0  0.69880  0.95174  0.35567  1.0000
  H   H617      1.0  0.64721  0.62853  0.36486  1.0000
  C   C395      1.0  0.65059  0.65214  0.37681  1.0000
  C   C396      1.0  0.64379  0.88099  0.37196  1.0000
  H   H618      1.0  0.63349  0.66156  0.36645  1.0000
  H   H619      1.0  0.75233  0.53359  0.51369  1.0000
  H   H620      1.0  0.58860  0.76469  0.32649  1.0000
  N   N38       1.0  0.55354  0.74495  0.36251  1.0000
  S   S157      1.0  0.69582  0.76179  0.27992  1.0000
  S   S158      1.0  0.60719  0.71778  0.28054  1.0000
  N   N39       1.0  0.64131  0.64356  0.40700  1.0000
  H   H621      1.0  0.58474  0.62216  0.39985  1.0000
  Fe  Fe79      1.0  0.59714  0.99166  0.37861  1.0000
  H   H622      1.0  0.67902  0.67362  0.37414  1.0000
  C   C397      1.0  0.86003  0.69849  0.49954  1.0000
  H   H623      1.0  0.58486  0.55304  0.33350  1.0000
  H   H624      1.0  0.66317  0.60845  0.40918  1.0000
  H   H625      1.0  0.63869  0.67027  0.44448  1.0000
  C   C398      1.0  0.61737  0.61455  0.49351  1.0000
  C   C399      1.0  0.65672  0.85709  0.37519  1.0000
  H   H626      1.0  0.55477  0.02576  0.41900  1.0000
  C   C400      1.0  0.73012  0.77066  0.42066  1.0000
  C   C401      1.0  0.65743  0.83713  0.35202  1.0000
  Fe  Fe80      1.0  0.01968  0.63428  0.48383  1.0000
  H   H627      1.0  0.74534  0.92688  0.30195  1.0000
  H   H628      1.0  0.58030  0.63414  0.48949  1.0000
  H   H629      1.0  0.71700  0.91194  0.33272  1.0000
  H   H630      1.0  0.69921  0.91556  0.29925  1.0000
  C   C402      1.0  0.72348  0.92850  0.31311  1.0000
  H   H631      1.0  0.02248  0.62624  0.33178  1.0000
  H   H632      1.0  0.71759  0.77584  0.37716  1.0000
  H   H633      1.0  0.72172  0.78872  0.42866  1.0000
  S   S159      1.0  0.75784  0.68089  0.49645  1.0000
  C   C403      1.0  0.62159  0.58528  0.49994  1.0000
  Fe  Fe81      1.0  0.98390  0.67781  0.47004  1.0000
  H   H634      1.0  0.82900  0.61962  0.48815  1.0000
  S   S160      1.0  0.93426  0.68196  0.46062  1.0000
  Fe  Fe82      1.0  0.74549  0.72426  0.50690  1.0000
  H   H635      1.0  0.84291  0.70924  0.49374  1.0000
  C   C404      1.0  0.76661  0.98225  0.33744  1.0000
  S   S161      1.0  0.99995  0.64533  0.44289  1.0000
  C   C405      1.0  0.74078  0.98650  0.29303  1.0000
  C   C406      1.0  0.72760  0.76325  0.39152  1.0000
  S   S162      1.0  0.73670  0.73095  0.34458  1.0000
  C   C407      1.0  0.68139  0.01970  0.28598  1.0000
  S   S163      1.0  0.74588  0.76434  0.47589  1.0000
  H   H636      1.0  0.58274  0.71972  0.37749  1.0000
  C   C408      1.0  0.90490  0.67107  0.51427  1.0000
  C   C409      1.0  0.90575  0.68336  0.48667  1.0000
  H   H637      1.0  0.88355  0.70633  0.45800  1.0000
  C   C410      1.0  0.75467  0.73180  0.42895  1.0000
  C   C411      1.0  0.88310  0.69687  0.47936  1.0000
  H   H638      1.0  0.76563  0.72005  0.44319  1.0000
  H   H639      1.0  0.76255  0.70804  0.39161  1.0000
  C   C412      1.0  0.73936  0.74072  0.38097  1.0000
  H   H640      1.0  0.71106  0.99421  0.34008  1.0000
  H   H641      1.0  0.80160  0.63730  0.47549  1.0000
  C   C413      1.0  0.55712  0.54901  0.50759  1.0000
  N   N40       1.0  0.73384  0.96589  0.31965  1.0000
  C   C414      1.0  0.75309  0.72520  0.39973  1.0000
  C   C415      1.0  0.56152  0.74253  0.33248  1.0000
  S   S164      1.0  0.69122  0.01056  0.40334  1.0000
  H   H642      1.0  0.78957  0.98254  0.32644  1.0000
  S   S165      1.0  0.56087  0.65208  0.34474  1.0000
  C   C416      1.0  0.58150  0.74461  0.38065  1.0000
  H   H643      1.0  0.77481  0.01039  0.34293  1.0000
  H   H644      1.0  0.73462  0.56520  0.46211  1.0000
  H   H645      1.0  0.76212  0.96726  0.35771  1.0000
  H   H646      1.0  0.01110  0.78245  0.49121  1.0000
  C   C417      1.0  0.02160  0.79230  0.51292  1.0000
  H   H647      1.0  0.71644  0.97501  0.27921  1.0000
  H   H648      1.0  0.94934  0.75825  0.50980  1.0000
  H   H649      1.0  0.56100  0.71700  0.32811  1.0000
  H   H650      1.0  0.74851  0.01483  0.29726  1.0000
  S   S166      1.0  0.03723  0.72837  0.46501  1.0000
  H   H651      1.0  0.60861  0.76768  0.37579  1.0000
  H   H652      1.0  0.97885  0.72164  0.51050  1.0000
  H   H653      1.0  0.80148  0.60096  0.45722  1.0000
  H   H654      1.0  0.73556  0.60206  0.48019  1.0000
  S   S167      1.0  0.99854  0.66189  0.51122  1.0000
  H   H655      1.0  0.58547  0.02749  0.44546  1.0000
  N   N41       1.0  0.77245  0.58645  0.49664  1.0000
  H   H656      1.0  0.04292  0.59221  0.40796  1.0000
  C   C418      1.0  0.55313  0.77857  0.36707  1.0000
  H   H657      1.0  0.59434  0.52938  0.51116  1.0000
  H   H658      1.0  0.57628  0.74622  0.40349  1.0000
  Fe  Fe83      1.0  0.65370  0.02472  0.42530  1.0000
  C   C419      1.0  0.59127  0.55222  0.50632  1.0000
  C   C420      1.0  0.55315  0.57867  0.50185  1.0000
  H   H659      1.0  0.71453  0.55886  0.49653  1.0000
  H   H660      1.0  0.77272  0.54071  0.47933  1.0000
  H   H661      1.0  0.57946  0.80236  0.36148  1.0000
  Fe  Fe84      1.0  0.67589  0.02765  0.36306  1.0000
  H   H662      1.0  0.80043  0.55941  0.51020  1.0000
  C   C421      1.0  0.78340  0.84539  0.71955  1.0000
  C   C422      1.0  0.61963  0.00726  0.61928  1.0000
  Fe  Fe85      1.0  0.70537  0.64462  0.51785  1.0000
  H   H663      1.0  0.04339  0.53685  0.72160  1.0000
  C   C423      1.0  0.98950  0.73258  0.53190  1.0000
  H   H664      1.0  0.64973  0.70001  0.65321  1.0000
  C   C424      1.0  0.62169  0.00849  0.56818  1.0000
  C   C425      1.0  0.70151  0.71225  0.63702  1.0000
  H   H665      1.0  0.78358  0.82816  0.70214  1.0000
  H   H666      1.0  0.01487  0.73207  0.53471  1.0000
  C   C426      1.0  0.03953  0.70602  0.61184  1.0000
  C   C427      1.0  0.67785  0.71056  0.65819  1.0000
  H   H667      1.0  0.56346  0.56172  0.62747  1.0000
  H   H668      1.0  0.60086  0.97970  0.56663  1.0000
  S   S168      1.0  0.68445  0.69655  0.60278  1.0000
  C   C428      1.0  0.59408  0.62988  0.61049  1.0000
  C   C429      1.0  0.69039  0.72255  0.68580  1.0000
  H   H669      1.0  0.67197  0.72107  0.70197  1.0000
  H   H670      1.0  0.59878  0.97839  0.61970  1.0000
  H   H671      1.0  0.02625  0.69474  0.56763  1.0000
  C   C430      1.0  0.58550  0.57026  0.61174  1.0000
  N   N42       1.0  0.58785  0.59896  0.59310  1.0000
  C   C431      1.0  0.01076  0.78291  0.56324  1.0000
  H   H672      1.0  0.64648  0.00925  0.62055  1.0000
  N   N43       1.0  0.99577  0.76921  0.53481  1.0000
  H   H673      1.0  0.75275  0.58418  0.53892  1.0000
  Fe  Fe86      1.0  0.71921  0.69590  0.56705  1.0000
  H   H674      1.0  0.81016  0.87021  0.72008  1.0000
  C   C432      1.0  0.72677  0.73651  0.69233  1.0000
  H   H675      1.0  0.71512  0.80343  0.73424  1.0000
  C   C433      1.0  0.55382  0.58554  0.57716  1.0000
  H   H676      1.0  0.64425  0.62131  0.58446  1.0000
  H   H677      1.0  0.74988  0.86057  0.76045  1.0000
  C   C434      1.0  0.85942  0.68650  0.52718  1.0000
  H   H678      1.0  0.61475  0.58733  0.56013  1.0000
  H   H679      1.0  0.71801  0.80249  0.69663  1.0000
  H   H680      1.0  0.61636  0.01960  0.63884  1.0000
  Fe  Fe87      1.0  0.78124  0.69086  0.54042  1.0000
  S   S169      1.0  0.83055  0.68757  0.55301  1.0000
  S   S170      1.0  0.77290  0.73744  0.54961  1.0000
  H   H681      1.0  0.99205  0.76579  0.58023  1.0000
  C   C435      1.0  0.88206  0.67299  0.53452  1.0000
  Fe  Fe88      1.0  0.70843  0.74842  0.76325  1.0000
  H   H682      1.0  0.72262  0.01771  0.52792  1.0000
  H   H683      1.0  0.55863  0.99313  0.59223  1.0000
  H   H684      1.0  0.75928  0.85756  0.67059  1.0000
  C   C436      1.0  0.58040  0.02167  0.59266  1.0000
  C   C437      1.0  0.73788  0.72623  0.64356  1.0000
  H   H685      1.0  0.73713  0.87947  0.68569  1.0000
  H   H686      1.0  0.57100  0.62299  0.62477  1.0000
  H   H687      1.0  0.77392  0.62757  0.52284  1.0000
  C   C438      1.0  0.61803  0.61014  0.57312  1.0000
  H   H688      1.0  0.77865  0.74924  0.67605  1.0000
  H   H689      1.0  0.62049  0.02198  0.54838  1.0000
  S   S171      1.0  0.69139  0.68707  0.52517  1.0000
  H   H690      1.0  0.57978  0.54612  0.59936  1.0000
  H   H691      1.0  0.88156  0.66351  0.55587  1.0000
  H   H692      1.0  0.75630  0.72766  0.62740  1.0000
  H   H693      1.0  0.01433  0.68374  0.61910  1.0000
  H   H694      1.0  0.59833  0.65291  0.59699  1.0000
  C   C439      1.0  0.96130  0.76866  0.53107  1.0000
  S   S172      1.0  0.74393  0.75285  0.72642  1.0000
  C   C440      1.0  0.75382  0.87495  0.73996  1.0000
  H   H695      1.0  0.80094  0.60970  0.53553  1.0000
  H   H696      1.0  0.94102  0.75103  0.54703  1.0000
  H   H697      1.0  0.96483  0.79586  0.53316  1.0000
  C   C441      1.0  0.71919  0.81943  0.71475  1.0000
  H   H698      1.0  0.61857  0.63945  0.62392  1.0000
  C   C442      1.0  0.75910  0.87329  0.68914  1.0000
  H   H699      1.0  0.03564  0.56010  0.66369  1.0000
  C   C443      1.0  0.75045  0.73845  0.67112  1.0000
  H   H700      1.0  0.61105  0.57921  0.62362  1.0000
  H   H701      1.0  0.78042  0.83053  0.73966  1.0000
  H   H702      1.0  0.54802  0.56188  0.56416  1.0000
  H   H703      1.0  0.73149  0.88092  0.73816  1.0000
  S   S173      1.0  0.72932  0.65025  0.56100  1.0000
  N   N44       1.0  0.61644  0.02518  0.59358  1.0000
  H   H704      1.0  0.78504  0.89907  0.68921  1.0000
  H   H705      1.0  0.77953  0.90081  0.74151  1.0000
  H   H706      1.0  0.97003  0.71412  0.54791  1.0000
  H   H707      1.0  0.64846  0.01020  0.56859  1.0000
  N   N45       1.0  0.75391  0.85331  0.71585  1.0000
  H   H708      1.0  0.69606  0.82415  0.71296  1.0000
  H   H709      1.0  0.62022  0.63133  0.55835  1.0000
  H   H710      1.0  0.01594  0.81060  0.56630  1.0000
  S   S174      1.0  0.65513  0.74622  0.76177  1.0000
  H   H711      1.0  0.02726  0.82032  0.51443  1.0000
  H   H712      1.0  0.55466  0.60628  0.56254  1.0000
  H   H713      1.0  0.92159  0.65981  0.51992  1.0000
  H   H714      1.0  0.03670  0.78334  0.56662  1.0000
  H   H715      1.0  0.55776  0.56424  0.74546  1.0000
  C   C444      1.0  0.77509  0.60254  0.52471  1.0000
  H   H716      1.0  0.03458  0.55718  0.75121  1.0000
  H   H717      1.0  0.54511  0.59447  0.70518  1.0000
  H   H718      1.0  0.58540  0.02701  0.69390  1.0000
  C   C445      1.0  0.55774  0.58864  0.81959  1.0000
  Fe  Fe89      1.0  0.67616  0.98366  0.88557  1.0000
  S   S175      1.0  0.62853  0.98481  0.90381  1.0000
  S   S176      1.0  0.67447  0.00838  0.84409  1.0000
  Fe  Fe90      1.0  0.67932  0.79009  0.79432  1.0000
  Fe  Fe91      1.0  0.64088  0.70888  0.79900  1.0000
  H   H719      1.0  0.62653  0.60223  0.85157  1.0000
  S   S177      1.0  0.58678  0.65924  0.80581  1.0000
  S   S178      1.0  0.65996  0.75248  0.83164  1.0000
  S   S179      1.0  0.67758  0.84089  0.78583  1.0000
  C   C446      1.0  0.58612  0.61827  0.80614  1.0000
  Fe  Fe92      1.0  0.03225  0.68282  0.93582  1.0000
  C   C447      1.0  0.58183  0.55118  0.80468  1.0000
  H   H720      1.0  0.71395  0.67903  0.87378  1.0000
  C   C448      1.0  0.61074  0.58105  0.79189  1.0000
  C   C449      1.0  0.61278  0.61449  0.79247  1.0000
  C   C450      1.0  0.60870  0.93592  0.80091  1.0000
  C   C451      1.0  0.58438  0.87354  0.81292  1.0000
  C   C452      1.0  0.67952  0.90821  0.86129  1.0000
  H   H721      1.0  0.68945  0.91240  0.78955  1.0000
  C   C453      1.0  0.67432  0.85321  0.84273  1.0000
  C   C454      1.0  0.67942  0.86687  0.81519  1.0000
  N   N46       1.0  0.65708  0.64533  0.88045  1.0000
  C   C455      1.0  0.68539  0.92223  0.83379  1.0000
  H   H722      1.0  0.63490  0.64751  0.92064  1.0000
  S   S180      1.0  0.03829  0.70691  0.89188  1.0000
  H   H723      1.0  0.61976  0.92223  0.85402  1.0000
  H   H724      1.0  0.58982  0.93976  0.85465  1.0000
  H   H725      1.0  0.66881  0.69848  0.86974  1.0000
  C   C456      1.0  0.67428  0.87378  0.86565  1.0000
  H   H726      1.0  0.88501  0.69218  0.91382  1.0000
  H   H727      1.0  0.60838  0.96109  0.80529  1.0000
  C   C457      1.0  0.69172  0.65149  0.86904  1.0000
  C   C458      1.0  0.59184  0.91588  0.84912  1.0000
  H   H728      1.0  0.63449  0.58852  0.88538  1.0000
  C   C459      1.0  0.69610  0.75332  0.93518  1.0000
  C   C460      1.0  0.66046  0.65170  0.91133  1.0000
  H   H729      1.0  0.57870  0.86591  0.79022  1.0000
  H   H730      1.0  0.58057  0.53778  0.00753  1.0000
  C   C461      1.0  0.88949  0.66898  0.91268  1.0000
  S   S181      1.0  0.67745  0.93229  0.89060  1.0000
  H   H731      1.0  0.67005  0.82665  0.84640  1.0000
  C   C462      1.0  0.54608  0.89967  0.81332  1.0000
  N   N47       1.0  0.58275  0.90621  0.81904  1.0000
  H   H732      1.0  0.64387  0.66550  0.84346  1.0000
  H   H733      1.0  0.60188  0.60292  0.88176  1.0000
  S   S182      1.0  0.73824  0.67367  0.00729  1.0000
  H   H734      1.0  0.62188  0.66703  0.87500  1.0000
  H   H735      1.0  0.67419  0.75748  0.94108  1.0000
  Fe  Fe93      1.0  0.71244  0.75336  0.82806  1.0000
  H   H736      1.0  0.67000  0.86287  0.88689  1.0000
  H   H737      1.0  0.68152  0.67967  0.91628  1.0000
  C   C463      1.0  0.62873  0.60808  0.87465  1.0000
  H   H738      1.0  0.60252  0.92976  0.77804  1.0000
  H   H739      1.0  0.69041  0.94908  0.83030  1.0000
  H   H740      1.0  0.69286  0.76345  0.89072  1.0000
  H   H741      1.0  0.69058  0.64841  0.84559  1.0000
  H   H742      1.0  0.66817  0.63380  0.92251  1.0000
  H   H743      1.0  0.57609  0.55751  0.97549  1.0000
  C   C464      1.0  0.68511  0.90152  0.81079  1.0000
  C   C465      1.0  0.64746  0.67016  0.86663  1.0000
  S   S183      1.0  0.02230  0.57121  0.98428  1.0000
  S   S184      1.0  0.69227  0.70743  0.79781  1.0000
  H   H744      1.0  0.63666  0.94152  0.80453  1.0000
  C   C466      1.0  0.85831  0.64313  0.00011  1.0000
  H   H745      1.0  0.63110  0.57809  0.78086  1.0000
  C   C467      1.0  0.70657  0.75660  0.90665  1.0000
  H   H746      1.0  0.69940  0.63255  0.87831  1.0000
  C   C468      1.0  0.89573  0.65895  0.99713  1.0000
  H   H747      1.0  0.75660  0.73347  0.96429  1.0000
  Fe  Fe94      1.0  0.02398  0.62338  0.97607  1.0000
  Fe  Fe95      1.0  0.63019  0.01377  0.86390  1.0000
  Fe  Fe96      1.0  0.97336  0.65360  0.98062  1.0000
  H   H748      1.0  0.91313  0.62860  0.88754  1.0000
  S   S185      1.0  0.57813  0.99929  0.84187  1.0000
  C   C469      1.0  0.75302  0.74319  0.91988  1.0000
  S   S186      1.0  0.74784  0.75323  0.86339  1.0000
  C   C470      1.0  0.93394  0.69698  0.87562  1.0000
  S   S187      1.0  0.98656  0.62779  0.94522  1.0000
  S   S188      1.0  0.91358  0.63263  0.98498  1.0000
  S   S189      1.0  0.01718  0.70923  0.96983  1.0000
  C   C471      1.0  0.95215  0.70634  0.92462  1.0000
  H   H749      1.0  0.95952  0.65632  0.89740  1.0000
  H   H750      1.0  0.98055  0.71558  0.91865  1.0000
  H   H751      1.0  0.94913  0.73037  0.92610  1.0000
  S   S190      1.0  0.73354  0.79448  0.79351  1.0000
  N   N48       1.0  0.92670  0.68024  0.90400  1.0000
  C   C472      1.0  0.93144  0.64867  0.90321  1.0000
  S   S191      1.0  0.69989  0.73965  0.99153  1.0000
  C   C473      1.0  0.71391  0.74470  0.95603  1.0000
  H   H752      1.0  0.88351  0.65622  0.93408  1.0000
  H   H753      1.0  0.92566  0.63506  0.92421  1.0000
  H   H754      1.0  0.93090  0.72109  0.87545  1.0000
  H   H755      1.0  0.77518  0.73937  0.91407  1.0000
  C   C474      1.0  0.74242  0.73967  0.94832  1.0000
  H   H756      1.0  0.61146  0.87736  0.81783  1.0000
  H   H757      1.0  0.86945  0.64921  0.89767  1.0000
  H   H758      1.0  0.91528  0.67807  0.85944  1.0000
  C   C475      1.0  0.73502  0.75142  0.89896  1.0000
  H   H759      1.0  0.96194  0.70558  0.86871  1.0000
  H   H760      1.0  0.94769  0.69437  0.94618  1.0000
  C   C476      1.0  0.84292  0.66350  0.00889  1.0000
  H   H761      1.0  0.63445  0.63703  0.78162  1.0000
  H   H762      1.0  0.94666  0.70772  0.00078  1.0000
  H   H763      1.0  0.59431  0.52795  0.97471  1.0000
  C   C477      1.0  0.55561  0.55517  0.81892  1.0000
  C   C478      1.0  0.91780  0.69533  0.00295  1.0000
  H   H764      1.0  0.56471  0.85044  0.82590  1.0000
  C   C479      1.0  0.90239  0.71576  0.01148  1.0000
  S   S192      1.0  0.00686  0.64434  0.01241  1.0000
  H   H765      1.0  0.57364  0.89375  0.86353  1.0000
  H   H766      1.0  0.81405  0.65109  0.01112  1.0000
  C   C480      1.0  0.57360  0.53258  0.98465  1.0000
  H   H767      1.0  0.57551  0.01604  0.92657  1.0000
  H   H768      1.0  0.84114  0.61497  0.99563  1.0000
