data_image0
_chemical_formula_structural       C2HC2HCHCSHNCSHFeHCFeHCH3C2FeSH2CS2HCHCHSH2C2SC2HCH7CH2CH3FeHSC3FeCSC3H2C2H3SHSCHCNH2C2H5FeH3SCHC2SHSH2CH4C5HC2HFeS2HSHSHFe2HSNHFeSCH2C2HCH3CSFeHFeS2CHC2HSHCHFeH4S2C3H2C2H3NFeNCS2H2C2H2CH3C3NH4SH3NC4SCSH4FeH2C3HCH3NH5FeCHNCHCH2CH5CH3SC2H2C2HCH4CHC2H2C2SHC2HCH5C2HCHCHFeSCFeS2FeHFeS3C2NH3S2C2H2CHC2H6NH2C2HCHC2HC2H2SNS2CSHFeS2HC2HC3H5C2H3CH3CH2CH3Fe2H2NH2CHC2H2CH3C2H3CH2C2SH3NCSH5NC2SCHCHCH6FeHSH3CHSHC2H2CSC2HFeH4C4H5CNH2C3HCH2CH2CHNH3SHFeS2FeSNFeSFeHS2HCHSH4CH3C7S2HCHNH4CHC2H5CHC2HCHFeS2CH2SC2H2C4H5CHC2FeCHS3CFeC2H5CHNC2H4SCHFeCFeCNHCH7CSHSC6H9CH8FeH2C2FeSC2HCHC2HCS2H3CFeSFeS2Fe2CSHCSHCNCH3FeH4CH2CH2CSH3C2S2CH2CHCH2FeSHFeS2NHSH2SHSHFe2SH4C2HCHCH2C2SH6CH2NCHCSC2H2FeS2HFeSHCFeHC4H3CH5SH2C
_chemical_formula_sum              "C240 H384 S96 N24 Fe48"
_cell_length_a       28.089
_cell_length_b       28.0066
_cell_length_c       32.3843
_cell_angle_alpha    89.7183
_cell_angle_beta     90.2549
_cell_angle_gamma    120.199

_space_group_name_H-M_alt    "P 1"
_space_group_IT_number       1

loop_
  _space_group_symop_operation_xyz
  'x, y, z'

loop_
  _atom_site_type_symbol
  _atom_site_label
  _atom_site_symmetry_multiplicity
  _atom_site_fract_x
  _atom_site_fract_y
  _atom_site_fract_z
  _atom_site_occupancy
  C   C1        1.0  0.30663  0.30624  0.20457  1.0000
  C   C2        1.0  0.45486  0.19508  0.17180  1.0000
  H   H1        1.0  0.44430  0.19220  0.20419  1.0000
  C   C3        1.0  0.48878  0.17522  0.15808  1.0000
  C   C4        1.0  0.32645  0.34773  0.13686  1.0000
  H   H2        1.0  0.32574  0.34744  0.21953  1.0000
  C   C5        1.0  0.43328  0.21742  0.14338  1.0000
  H   H3        1.0  0.10072  0.27181  0.11662  1.0000
  C   C6        1.0  0.44636  0.22105  0.10129  1.0000
  S   S1        1.0  0.41609  0.24620  0.06603  1.0000
  H   H4        1.0  0.32725  0.25507  0.11564  1.0000
  N   N1        1.0  0.33336  0.30957  0.16463  1.0000
  C   C7        1.0  0.30758  0.25411  0.14572  1.0000
  S   S2        1.0  0.51366  0.14388  0.19244  1.0000
  H   H5        1.0  0.31160  0.22421  0.16611  1.0000
  Fe  Fe1       1.0  0.23508  0.40469  0.22272  1.0000
  H   H6        1.0  0.39938  0.30409  0.19395  1.0000
  C   C8        1.0  0.39272  0.33038  0.17144  1.0000
  Fe  Fe2       1.0  0.50605  0.15732  0.26036  1.0000
  H   H7        1.0  0.40594  0.23132  0.15400  1.0000
  C   C9        1.0  0.05180  0.31001  0.10453  1.0000
  H   H8        1.0  0.26287  0.23748  0.13984  1.0000
  H   H9        1.0  0.41386  0.37305  0.18424  1.0000
  H   H10       1.0  0.26191  0.29167  0.20061  1.0000
  C   C10       1.0  0.13137  0.34770  0.15064  1.0000
  C   C11       1.0  0.37861  0.06817  0.07634  1.0000
  Fe  Fe3       1.0  0.34700  0.44662  0.26211  1.0000
  S   S3        1.0  0.18535  0.34221  0.17375  1.0000
  H   H11       1.0  0.07896  0.43855  0.04232  1.0000
  H   H12       1.0  0.41385  0.33124  0.14216  1.0000
  C   C12       1.0  0.09530  0.30662  0.12321  1.0000
  S   S4        1.0  0.42323  0.43970  0.25737  1.0000
  S   S5        1.0  0.26340  0.37482  0.27658  1.0000
  H   H13       1.0  0.34566  0.35094  0.10621  1.0000
  C   C13       1.0  0.48157  0.20258  0.08786  1.0000
  H   H14       1.0  0.31071  0.27777  0.22652  1.0000
  C   C14       1.0  0.41788  0.38112  0.28195  1.0000
  H   H15       1.0  0.28202  0.33367  0.13168  1.0000
  S   S6        1.0  0.31951  0.47276  0.20559  1.0000
  H   H16       1.0  0.34567  0.39001  0.15025  1.0000
  H   H17       1.0  0.15208  0.42457  0.17982  1.0000
  C   C15       1.0  0.08083  0.39616  0.14021  1.0000
  C   C16       1.0  0.12418  0.39263  0.15899  1.0000
  S   S7        1.0  0.21560  0.45846  0.26199  1.0000
  C   C17       1.0  0.50185  0.17878  0.11603  1.0000
  C   C18       1.0  0.04441  0.35471  0.11314  1.0000
  H   H18       1.0  0.07525  0.43082  0.14688  1.0000
  C   C19       1.0  0.45924  0.36771  0.27665  1.0000
  H   H19       1.0  0.49248  0.20575  0.05566  1.0000
  H   H20       1.0  0.49529  0.39443  0.25848  1.0000
  H   H21       1.0  0.42182  0.08295  0.06673  1.0000
  H   H22       1.0  0.39362  0.06314  0.15812  1.0000
  H   H23       1.0  0.37797  0.10246  0.09308  1.0000
  H   H24       1.0  0.13130  0.48843  0.22659  1.0000
  H   H25       1.0  0.43563  0.04322  0.13021  1.0000
  C   C20       1.0  0.04982  0.51214  0.06616  1.0000
  H   H26       1.0  0.13726  0.50693  0.03917  1.0000
  H   H27       1.0  0.29966  0.03402  0.13484  1.0000
  C   C21       1.0  0.39233  0.02954  0.13900  1.0000
  H   H28       1.0  0.06778  0.50928  0.26467  1.0000
  H   H29       1.0  0.35398  0.06057  0.04767  1.0000
  H   H30       1.0  0.02981  0.47390  0.08523  1.0000
  Fe  Fe4       1.0  0.46136  0.19906  0.32742  1.0000
  H   H31       1.0  0.39649  0.07826  0.50540  1.0000
  S   S8        1.0  0.40039  0.22606  0.34373  1.0000
  C   C22       1.0  0.37185  0.34676  0.30590  1.0000
  C   C23       1.0  0.31618  0.44043  0.40956  1.0000
  C   C24       1.0  0.30421  0.30792  0.47704  1.0000
  Fe  Fe5       1.0  0.48806  0.10958  0.34822  1.0000
  C   C25       1.0  0.28305  0.43538  0.49173  1.0000
  S   S9        1.0  0.43139  0.11428  0.30108  1.0000
  C   C26       1.0  0.33649  0.44685  0.48307  1.0000
  C   C27       1.0  0.30077  0.24306  0.42657  1.0000
  C   C28       1.0  0.42952  0.05925  0.45201  1.0000
  H   H32       1.0  0.39451  0.45876  0.43516  1.0000
  H   H33       1.0  0.43799  0.09633  0.43548  1.0000
  C   C29       1.0  0.40764  0.28511  0.31857  1.0000
  C   C30       1.0  0.24632  0.42682  0.45925  1.0000
  H   H34       1.0  0.28137  0.32199  0.45682  1.0000
  H   H35       1.0  0.32897  0.44167  0.37797  1.0000
  H   H36       1.0  0.32955  0.27124  0.34060  1.0000
  S   S10       1.0  0.21662  0.41987  0.37795  1.0000
  H   H37       1.0  0.39465  0.26233  0.46300  1.0000
  S   S11       1.0  0.38318  0.45738  0.52298  1.0000
  C   C31       1.0  0.26283  0.42948  0.41811  1.0000
  H   H38       1.0  0.40233  0.32623  0.40733  1.0000
  C   C32       1.0  0.36615  0.29834  0.32329  1.0000
  N   N2        1.0  0.33754  0.29098  0.45255  1.0000
  H   H39       1.0  0.20494  0.41799  0.46600  1.0000
  H   H40       1.0  0.40402  0.37444  0.44463  1.0000
  C   C33       1.0  0.35308  0.44960  0.44198  1.0000
  C   C34       1.0  0.37608  0.33741  0.42595  1.0000
  H   H41       1.0  0.27624  0.25329  0.40493  1.0000
  H   H42       1.0  0.27122  0.20720  0.44563  1.0000
  H   H43       1.0  0.35367  0.34985  0.40392  1.0000
  H   H44       1.0  0.34082  0.35759  0.31151  1.0000
  H   H45       1.0  0.33055  0.34270  0.49811  1.0000
  Fe  Fe6       1.0  0.25328  0.43587  0.31432  1.0000
  H   H46       1.0  0.26986  0.43290  0.52341  1.0000
  H   H47       1.0  0.32467  0.22914  0.40772  1.0000
  H   H48       1.0  0.34157  0.24081  0.50137  1.0000
  S   S12       1.0  0.33919  0.50571  0.30416  1.0000
  C   C35       1.0  0.40592  0.04888  0.49161  1.0000
  H   H49       1.0  0.39770  0.31096  0.50056  1.0000
  C   C36       1.0  0.36927  0.27556  0.48065  1.0000
  C   C37       1.0  0.44126  0.02123  0.43370  1.0000
  S   S13       1.0  0.51260  0.19102  0.37756  1.0000
  H   H50       1.0  0.27344  0.27348  0.49658  1.0000
  S   S14       1.0  0.47116  0.03301  0.38412  1.0000
  H   H51       1.0  0.15110  0.51753  0.29990  1.0000
  H   H52       1.0  0.51583  0.04158  0.52773  1.0000
  C   C38       1.0  0.45434  0.31999  0.29524  1.0000
  H   H53       1.0  0.48704  0.31085  0.29194  1.0000
  H   H54       1.0  0.06416  0.23515  0.63411  1.0000
  H   H55       1.0  0.47809  0.08575  0.57269  1.0000
  H   H56       1.0  0.15218  0.32448  0.63800  1.0000
  C   C39       1.0  0.38135  0.38929  0.77219  1.0000
  C   C40       1.0  0.06368  0.27354  0.63401  1.0000
  C   C41       1.0  0.11352  0.32404  0.63623  1.0000
  C   C42       1.0  0.49548  0.07551  0.60008  1.0000
  C   C43       1.0  0.41552  0.11016  0.77897  1.0000
  H   H57       1.0  0.48819  0.47528  0.71673  1.0000
  C   C44       1.0  0.06272  0.37275  0.63407  1.0000
  C   C45       1.0  0.11307  0.37373  0.63631  1.0000
  H   H58       1.0  0.37744  0.42128  0.75646  1.0000
  Fe  Fe7       1.0  0.37197  0.51652  0.66600  1.0000
  S   S15       1.0  0.33448  0.32536  0.70279  1.0000
  S   S16       1.0  0.32369  0.50997  0.60914  1.0000
  H   H59       1.0  0.45452  0.10909  0.77720  1.0000
  S   S17       1.0  0.30081  0.44791  0.69971  1.0000
  H   H60       1.0  0.06218  0.41109  0.63401  1.0000
  S   S18       1.0  0.27550  0.37594  0.61340  1.0000
  H   H61       1.0  0.37193  0.06606  0.70462  1.0000
  Fe  Fe8       1.0  0.34919  0.45069  0.58701  1.0000
  Fe  Fe9       1.0  0.32853  0.39362  0.67026  1.0000
  H   H62       1.0  0.05496  0.25860  0.75286  1.0000
  S   S19       1.0  0.17456  0.43764  0.63980  1.0000
  N   N3        1.0  0.36703  0.05523  0.77066  1.0000
  H   H63       1.0  0.46227  0.03535  0.61245  1.0000
  Fe  Fe10      1.0  0.25429  0.43665  0.64061  1.0000
  S   S20       1.0  0.40407  0.46359  0.64148  1.0000
  C   C46       1.0  0.36309  0.33837  0.75288  1.0000
  H   H64       1.0  0.41818  0.14174  0.75664  1.0000
  H   H65       1.0  0.35338  0.25732  0.75900  1.0000
  C   C47       1.0  0.36765  0.29681  0.77375  1.0000
  C   C48       1.0  0.31630  0.05856  0.77405  1.0000
  H   H66       1.0  0.31642  0.08904  0.75179  1.0000
  C   C49       1.0  0.50014  0.51480  0.73291  1.0000
  H   H67       1.0  0.50505  0.10751  0.62394  1.0000
  H   H68       1.0  0.40852  0.03363  0.72517  1.0000
  H   H69       1.0  0.50315  0.50776  0.76643  1.0000
  C   C50       1.0  0.37088  0.03698  0.72864  1.0000
  S   S21       1.0  0.46017  0.18658  0.97103  1.0000
  Fe  Fe11      1.0  0.44343  0.30078  0.91492  1.0000
  H   H70       1.0  0.41791  0.47799  0.97176  1.0000
  Fe  Fe12      1.0  0.40393  0.17864  0.91889  1.0000
  S   S22       1.0  0.35099  0.09697  0.88788  1.0000
  S   S23       1.0  0.37339  0.23041  0.94863  1.0000
  C   C51       1.0  0.30959  0.04743  0.92458  1.0000
  H   H71       1.0  0.26008  0.03709  0.02190  1.0000
  C   C52       1.0  0.29978  0.06392  0.96275  1.0000
  C   C53       1.0  0.39022  0.30594  0.81373  1.0000
  H   H72       1.0  0.31649  0.10730  0.96930  1.0000
  S   S24       1.0  0.46933  0.24785  0.88156  1.0000
  H   H73       1.0  0.31195  0.07177  0.80553  1.0000
  C   C54       1.0  0.09713  0.47782  0.02440  1.0000
  H   H74       1.0  0.41669  0.44117  0.92639  1.0000
  Fe  Fe13      1.0  0.43585  0.24497  0.99822  1.0000
  H   H75       1.0  0.41352  0.12494  0.81051  1.0000
  H   H76       1.0  0.50781  0.45276  0.94479  1.0000
  H   H77       1.0  0.41734  0.43760  0.82710  1.0000
  H   H78       1.0  0.39312  0.27348  0.82966  1.0000
  S   S25       1.0  0.43724  0.36960  0.88314  1.0000
  S   S26       1.0  0.50348  0.32056  0.96718  1.0000
  C   C55       1.0  0.40851  0.35680  0.83305  1.0000
  C   C56       1.0  0.40397  0.39844  0.81219  1.0000
  C   C57       1.0  0.43093  0.48314  0.93886  1.0000
  H   H79       1.0  0.49633  0.48507  0.87682  1.0000
  H   H80       1.0  0.36454  0.02814  0.83327  1.0000
  C   C58       1.0  0.26796  0.02420  0.99252  1.0000
  C   C59       1.0  0.51944  0.49423  0.95736  1.0000
  H   H81       1.0  0.50883  0.48891  0.99076  1.0000
  H   H82       1.0  0.10549  0.46857  0.99277  1.0000
  H   H83       1.0  0.40844  0.50034  0.92179  1.0000
  N   N4        1.0  0.05989  0.50081  0.02351  1.0000
  Fe  Fe14      1.0  0.52338  0.26115  0.93650  1.0000
  N   N5        1.0  0.49125  0.51907  0.93482  1.0000
  C   C60       1.0  0.08145  0.66914  0.20873  1.0000
  S   S27       1.0  0.07619  0.67191  0.26267  1.0000
  S   S28       1.0  0.10287  0.65223  0.07043  1.0000
  H   H84       1.0  0.48506  0.70215  0.11209  1.0000
  H   H85       1.0  0.41429  0.62090  0.27884  1.0000
  C   C61       1.0  0.13207  0.70392  0.18959  1.0000
  C   C62       1.0  0.15496  0.53281  0.21750  1.0000
  H   H86       1.0  0.42605  0.64076  0.19236  1.0000
  H   H87       1.0  0.08887  0.54199  0.08190  1.0000
  C   C63       1.0  0.09476  0.66025  0.12345  1.0000
  H   H88       1.0  0.18070  0.65492  0.25874  1.0000
  H   H89       1.0  0.48932  0.64909  0.17205  1.0000
  H   H90       1.0  0.28155  0.96257  0.13408  1.0000
  C   C64       1.0  0.47159  0.66883  0.19164  1.0000
  C   C65       1.0  0.09389  0.55344  0.25567  1.0000
  C   C66       1.0  0.46079  0.74812  0.20226  1.0000
  N   N6        1.0  0.15196  0.56852  0.24962  1.0000
  H   H91       1.0  0.07607  0.56044  0.22706  1.0000
  H   H92       1.0  0.17814  0.72598  0.13288  1.0000
  H   H93       1.0  0.49309  0.84480  0.03852  1.0000
  H   H94       1.0  0.22896  0.64036  0.23328  1.0000
  S   S29       1.0  0.31897  0.61010  0.23593  1.0000
  H   H95       1.0  0.17018  0.63327  0.20586  1.0000
  H   H96       1.0  0.33866  0.93386  0.09642  1.0000
  H   H97       1.0  0.42067  0.69206  0.13115  1.0000
  N   N7        1.0  0.48637  0.72423  0.17591  1.0000
  C   C67       1.0  0.35563  0.97274  0.07807  1.0000
  C   C68       1.0  0.18446  0.62687  0.23636  1.0000
  C   C69       1.0  0.13869  0.69958  0.14708  1.0000
  C   C70       1.0  0.03724  0.63010  0.18510  1.0000
  S   S30       1.0  0.23674  0.80348  0.06832  1.0000
  C   C71       1.0  0.46621  0.71954  0.13301  1.0000
  S   S31       1.0  0.38424  0.82695  0.04475  1.0000
  H   H98       1.0  0.47611  0.76052  0.12031  1.0000
  H   H99       1.0  0.16644  0.73405  0.20779  1.0000
  H   H100      1.0  0.48720  0.67108  0.22366  1.0000
  H   H101      1.0  0.47156  0.79022  0.19163  1.0000
  Fe  Fe15      1.0  0.30277  0.52442  0.24916  1.0000
  H   H102      1.0  0.08998  0.57880  0.28037  1.0000
  H   H103      1.0  0.47463  0.75168  0.23499  1.0000
  C   C72       1.0  0.04408  0.62531  0.14261  1.0000
  C   C73       1.0  0.30023  0.00146  0.11565  1.0000
  C   C74       1.0  0.40789  0.78042  0.03770  1.0000
  H   H104      1.0  0.37743  0.99244  0.15913  1.0000
  C   C75       1.0  0.36152  0.65594  0.27426  1.0000
  H   H105      1.0  0.41503  0.72206  0.20204  1.0000
  H   H106      1.0  0.19838  0.54359  0.21187  1.0000
  H   H107      1.0  0.31748  0.70047  0.27625  1.0000
  N   N8        1.0  0.35672  0.01794  0.10226  1.0000
  H   H108      1.0  0.27265  0.99409  0.08872  1.0000
  H   H109      1.0  0.13781  0.53715  0.18759  1.0000
  H   H110      1.0  0.39760  0.98360  0.06763  1.0000
  H   H111      1.0  0.32931  0.96331  0.05001  1.0000
  H   H112      1.0  0.21838  0.57205  0.28537  1.0000
  Fe  Fe16      1.0  0.17349  0.72470  0.03821  1.0000
  C   C76       1.0  0.44141  0.69079  0.31930  1.0000
  H   H113      1.0  0.03931  0.73837  0.47841  1.0000
  N   N9        1.0  0.41547  0.62582  0.44491  1.0000
  C   C77       1.0  0.38506  0.58803  0.41045  1.0000
  H   H114      1.0  0.49327  0.63461  0.42699  1.0000
  C   C78       1.0  0.38571  0.73432  0.31891  1.0000
  H   H115      1.0  0.41442  0.69141  0.47863  1.0000
  H   H116      1.0  0.39526  0.68706  0.42537  1.0000
  C   C79       1.0  0.39215  0.66186  0.45309  1.0000
  H   H117      1.0  0.34082  0.56014  0.41822  1.0000
  H   H118      1.0  0.11922  0.77947  0.52702  1.0000
  H   H119      1.0  0.43233  0.62018  0.50914  1.0000
  H   H120      1.0  0.42837  0.56601  0.47733  1.0000
  H   H121      1.0  0.34787  0.63731  0.46165  1.0000
  C   C80       1.0  0.41049  0.59314  0.48232  1.0000
  H   H122      1.0  0.17322  0.58785  0.31362  1.0000
  H   H123      1.0  0.36665  0.56577  0.49131  1.0000
  H   H124      1.0  0.37751  0.76579  0.33023  1.0000
  S   S32       1.0  0.47329  0.77841  0.37208  1.0000
  C   C81       1.0  0.40585  0.96255  0.49499  1.0000
  C   C82       1.0  0.43096  0.73154  0.33409  1.0000
  H   H125      1.0  0.39659  0.92503  0.51127  1.0000
  H   H126      1.0  0.43830  0.94323  0.44138  1.0000
  C   C83       1.0  0.42966  0.97304  0.45543  1.0000
  C   C84       1.0  0.47425  0.66031  0.43377  1.0000
  H   H127      1.0  0.40260  0.56136  0.40256  1.0000
  C   C85       1.0  0.39366  0.00038  0.51309  1.0000
  H   H128      1.0  0.38655  0.61123  0.38203  1.0000
  H   H129      1.0  0.47957  0.68584  0.40589  1.0000
  H   H130      1.0  0.47597  0.68797  0.33106  1.0000
  H   H131      1.0  0.49840  0.68938  0.45904  1.0000
  C   C86       1.0  0.35172  0.69732  0.28841  1.0000
  H   H132      1.0  0.05861  0.67757  0.52177  1.0000
  C   C87       1.0  0.40617  0.65244  0.28996  1.0000
  C   C88       1.0  0.17459  0.56111  0.28888  1.0000
  H   H133      1.0  0.41512  0.69367  0.71708  1.0000
  H   H134      1.0  0.05786  0.64609  0.64948  1.0000
  C   C89       1.0  0.25088  0.65958  0.59950  1.0000
  C   C90       1.0  0.42307  0.64948  0.66579  1.0000
  S   S33       1.0  0.42439  0.59849  0.69670  1.0000
  H   H135      1.0  0.10143  0.82601  0.70981  1.0000
  C   C91       1.0  0.27966  0.80672  0.77622  1.0000
  C   C92       1.0  0.41279  0.73037  0.65883  1.0000
  H   H136      1.0  0.42490  0.68435  0.56470  1.0000
  C   C93       1.0  0.42576  0.64692  0.62280  1.0000
  H   H137      1.0  0.28546  0.59347  0.56798  1.0000
  H   H138      1.0  0.16381  0.59359  0.64669  1.0000
  H   H139      1.0  0.14759  0.57357  0.59363  1.0000
  H   H140      1.0  0.33514  0.99526  0.72176  1.0000
  H   H141      1.0  0.05003  0.67586  0.57666  1.0000
  C   C94       1.0  0.41722  0.69161  0.68384  1.0000
  C   C95       1.0  0.09085  0.77986  0.55076  1.0000
  H   H142      1.0  0.24868  0.55639  0.65678  1.0000
  C   C96       1.0  0.24090  0.57346  0.57573  1.0000
  H   H143      1.0  0.43118  0.61503  0.60874  1.0000
  C   C97       1.0  0.42242  0.68621  0.59791  1.0000
  H   H144      1.0  0.25729  0.62120  0.67408  1.0000
  Fe  Fe17      1.0  0.36892  0.81839  0.61207  1.0000
  S   S34       1.0  0.41043  0.90644  0.63387  1.0000
  C   C98       1.0  0.06753  0.68544  0.66261  1.0000
  Fe  Fe18      1.0  0.25426  0.79812  0.62779  1.0000
  S   S35       1.0  0.28504  0.88457  0.65008  1.0000
  S   S36       1.0  0.16695  0.72689  0.62407  1.0000
  Fe  Fe19      1.0  0.34484  0.91104  0.59727  1.0000
  H   H145      1.0  0.27383  0.79416  0.74431  1.0000
  Fe  Fe20      1.0  0.34763  0.87313  0.68487  1.0000
  S   S37       1.0  0.36755  0.90543  0.75012  1.0000
  S   S38       1.0  0.30784  0.82548  0.57149  1.0000
  S   S39       1.0  0.31273  0.78456  0.66653  1.0000
  C   C99       1.0  0.11971  0.73189  0.65655  1.0000
  C   C100      1.0  0.13218  0.78227  0.67438  1.0000
  N   N10       1.0  0.23163  0.60147  0.61073  1.0000
  H   H146      1.0  0.24321  0.68137  0.62492  1.0000
  H   H147      1.0  0.40812  0.76274  0.67283  1.0000
  H   H148      1.0  0.17212  0.81832  0.66973  1.0000
  S   S40       1.0  0.36469  0.98930  0.56292  1.0000
  S   S41       1.0  0.40946  0.77489  0.58357  1.0000
  C   C101      1.0  0.09206  0.78659  0.69704  1.0000
  C   C102      1.0  0.03930  0.74057  0.70182  1.0000
  H   H149      1.0  0.22900  0.66268  0.57179  1.0000
  H   H150      1.0  0.29584  0.68272  0.59280  1.0000
  C   C103      1.0  0.41550  0.72770  0.61583  1.0000
  H   H151      1.0  0.49652  0.98904  0.56640  1.0000
  C   C104      1.0  0.26260  0.59973  0.64720  1.0000
  C   C105      1.0  0.17220  0.57322  0.62053  1.0000
  H   H152      1.0  0.30751  0.62004  0.64071  1.0000
  H   H153      1.0  0.09305  0.82061  0.54901  1.0000
  H   H154      1.0  0.46561  0.52322  0.72872  1.0000
  H   H155      1.0  0.51336  0.57772  0.66609  1.0000
  H   H156      1.0  0.22627  0.52931  0.58310  1.0000
  H   H157      1.0  0.10743  0.77728  0.58145  1.0000
  N   N11       1.0  0.03389  0.73377  0.54478  1.0000
  H   H158      1.0  0.21837  0.57416  0.54761  1.0000
  H   H159      1.0  0.15624  0.52924  0.62933  1.0000
  C   C106      1.0  0.02744  0.68973  0.68529  1.0000
  C   C107      1.0  0.03323  0.68069  0.54677  1.0000
  H   H160      1.0  0.27888  0.01787  0.76797  1.0000
  C   C108      1.0  0.32193  0.85937  0.78737  1.0000
  H   H161      1.0  0.12023  0.77163  0.77983  1.0000
  C   C109      1.0  0.44827  0.70859  0.02235  1.0000
  C   C110      1.0  0.44054  0.77242  0.91657  1.0000
  H   H162      1.0  0.21313  0.72864  0.79761  1.0000
  C   C111      1.0  0.39873  0.79123  0.85820  1.0000
  C   C112      1.0  0.50788  0.57385  0.95234  1.0000
  H   H163      1.0  0.12819  0.73182  0.82001  1.0000
  H   H164      1.0  0.29417  0.97815  0.88643  1.0000
  S   S42       1.0  0.47285  0.66349  0.01150  1.0000
  N   N12       1.0  0.40084  0.78967  0.90380  1.0000
  S   S43       1.0  0.15325  0.76649  0.98741  1.0000
  S   S44       1.0  0.21478  0.91985  0.02430  1.0000
  C   C113      1.0  0.41837  0.84513  0.92063  1.0000
  S   S45       1.0  0.23468  0.71467  0.00008  1.0000
  H   H165      1.0  0.46007  0.87638  0.90944  1.0000
  Fe  Fe21      1.0  0.22046  0.76426  0.95202  1.0000
  S   S46       1.0  0.20695  0.73817  0.88517  1.0000
  S   S47       1.0  0.28735  0.84587  0.97527  1.0000
  H   H166      1.0  0.48282  0.80170  0.90518  1.0000
  C   C114      1.0  0.25124  0.78565  0.84799  1.0000
  C   C115      1.0  0.24491  0.76974  0.80649  1.0000
  H   H167      1.0  0.33070  0.70744  0.90800  1.0000
  C   C116      1.0  0.34565  0.74983  0.91999  1.0000
  C   C117      1.0  0.32810  0.87542  0.82888  1.0000
  C   C118      1.0  0.29228  0.83897  0.85898  1.0000
  H   H168      1.0  0.12584  0.58393  0.01322  1.0000
  H   H169      1.0  0.09904  0.73393  0.89054  1.0000
  H   H170      1.0  0.36074  0.91598  0.83790  1.0000
  H   H171      1.0  0.29686  0.85222  0.89058  1.0000
  H   H172      1.0  0.48688  0.59364  0.93659  1.0000
  C   C119      1.0  0.08572  0.55278  0.99941  1.0000
  C   C120      1.0  0.14496  0.83027  0.84915  1.0000
  H   H173      1.0  0.38624  0.75016  0.84454  1.0000
  H   H174      1.0  0.36309  0.64400  0.02232  1.0000
  H   H175      1.0  0.17533  0.81994  0.86223  1.0000
  C   C121      1.0  0.25675  0.95152  0.94632  1.0000
  H   H176      1.0  0.43944  0.82172  0.84494  1.0000
  H   H177      1.0  0.38938  0.85950  0.91152  1.0000
  H   H178      1.0  0.24001  0.90817  0.93986  1.0000
  C   C122      1.0  0.24793  0.96818  0.98480  1.0000
  H   H179      1.0  0.36841  0.80299  0.84738  1.0000
  H   H180      1.0  0.05920  0.57188  0.99885  1.0000
  C   C123      1.0  0.37127  0.72376  0.03328  1.0000
  H   H181      1.0  0.49767  0.57101  0.98579  1.0000
  H   H182      1.0  0.31476  0.76178  0.91117  1.0000
  H   H183      1.0  0.13968  0.85649  0.87232  1.0000
  Fe  Fe22      1.0  0.22136  0.84442  0.01453  1.0000
  Fe  Fe23      1.0  0.29654  0.79711  0.02635  1.0000
  H   H184      1.0  0.41990  0.84514  0.95506  1.0000
  H   H185      1.0  0.42846  0.73055  0.90478  1.0000
  N   N13       1.0  0.09207  0.77978  0.83971  1.0000
  H   H186      1.0  0.44294  0.77071  0.95072  1.0000
  H   H187      1.0  0.34587  0.74774  0.95431  1.0000
  C   C124      1.0  0.28710  0.99113  0.91601  1.0000
  H   H188      1.0  0.09341  0.54589  0.96692  1.0000
  C   C125      1.0  0.48474  0.76519  0.02716  1.0000
  C   C126      1.0  0.07001  0.74645  0.87776  1.0000
  H   H189      1.0  0.06125  0.71019  0.79858  1.0000
  H   H190      1.0  0.48595  0.54320  0.87257  1.0000
  C   C127      1.0  0.50705  0.52547  0.89078  1.0000
  H   H191      1.0  0.16361  0.85573  0.82095  1.0000
  H   H192      1.0  0.06715  0.81937  0.79442  1.0000
  H   H193      1.0  0.06310  0.76998  0.90232  1.0000
  C   C128      1.0  0.10086  0.74693  0.80820  1.0000
  C   C129      1.0  0.39148  0.68785  0.02571  1.0000
  H   H194      1.0  0.04519  0.82087  0.84632  1.0000
  H   H195      1.0  0.32745  0.70753  0.03601  1.0000
  H   H196      1.0  0.32827  0.97352  0.79665  1.0000
  C   C130      1.0  0.36537  0.01497  0.80110  1.0000
  H   H197      1.0  0.40211  0.00994  0.79840  1.0000
  H   H198      1.0  0.03011  0.70799  0.87177  1.0000
  C   C131      1.0  0.05238  0.79538  0.82373  1.0000
  C   C132      1.0  0.46464  0.80095  0.03520  1.0000
  S   S48       1.0  0.99082  0.36076  0.09002  1.0000
  H   H199      1.0  0.61861  0.22205  0.13633  1.0000
  H   H200      1.0  0.80300  0.03767  0.08641  1.0000
  H   H201      1.0  0.63793  0.21703  0.21028  1.0000
  N   N14       1.0  0.72282  0.02898  0.09294  1.0000
  C   C133      1.0  0.72446  0.27213  0.15917  1.0000
  S   S49       1.0  0.86472  0.21184  0.07183  1.0000
  H   H202      1.0  0.60741  0.27834  0.14722  1.0000
  H   H203      1.0  0.62751  0.27375  0.22084  1.0000
  H   H204      1.0  0.61984  0.20034  0.05645  1.0000
  H   H205      1.0  0.75562  0.11693  0.09289  1.0000
  H   H206      1.0  0.65635  0.28576  0.10832  1.0000
  N   N15       1.0  0.68347  0.28796  0.17095  1.0000
  C   C134      1.0  0.77291  0.03219  0.11081  1.0000
  C   C135      1.0  0.71066  0.34879  0.17389  1.0000
  S   S50       1.0  0.72580  0.20673  0.05634  1.0000
  C   C136      1.0  0.63959  0.26781  0.13929  1.0000
  H   H207      1.0  0.69072  0.27748  0.23624  1.0000
  C   C137      1.0  0.73787  0.08129  0.07127  1.0000
  H   H208      1.0  0.74327  0.28985  0.12856  1.0000
  C   C138      1.0  0.65900  0.26298  0.21135  1.0000
  H   H209      1.0  0.75841  0.28673  0.18223  1.0000
  H   H210      1.0  0.70524  0.22647  0.15645  1.0000
  H   H211      1.0  0.70171  0.05395  0.14936  1.0000
  H   H212      1.0  0.79440  0.06781  0.13225  1.0000
  H   H213      1.0  0.76909  0.09039  0.04676  1.0000
  H   H214      1.0  0.74376  0.36541  0.19780  1.0000
  Fe  Fe24      1.0  0.93156  0.29283  0.04762  1.0000
  H   H215      1.0  0.68079  0.36215  0.18245  1.0000
  S   S51       1.0  0.79652  0.50172  0.24165  1.0000
  H   H216      1.0  0.72985  0.36909  0.14403  1.0000
  H   H217      1.0  0.68137  0.42129  0.24754  1.0000
  H   H218      1.0  0.70156  0.08011  0.05623  1.0000
  C   C139      1.0  0.68345  0.01980  0.12641  1.0000
  H   H219      1.0  0.52763  0.16302  0.10507  1.0000
  S   S52       1.0  0.53142  0.24223  0.28276  1.0000
  H   H220      1.0  0.02394  0.27793  0.08365  1.0000
  C   C140      1.0  0.76103  0.44123  0.27115  1.0000
  C   C141      1.0  0.70375  0.40861  0.26781  1.0000
  H   H221      1.0  0.81318  0.05256  0.47237  1.0000
  H   H222      1.0  0.56380  0.03178  0.34456  1.0000
  C   C142      1.0  0.78558  0.43975  0.42193  1.0000
  S   S53       1.0  0.66886  0.28419  0.34869  1.0000
  C   C143      1.0  0.70342  0.03911  0.52635  1.0000
  C   C144      1.0  0.67510  0.36059  0.29181  1.0000
  H   H223      1.0  0.78546  0.34392  0.41495  1.0000
  Fe  Fe25      1.0  0.58034  0.22701  0.33061  1.0000
  H   H224      1.0  0.80036  0.48282  0.43230  1.0000
  H   H225      1.0  0.63089  0.33711  0.29029  1.0000
  H   H226      1.0  0.74289  0.42278  0.40989  1.0000
  H   H227      1.0  0.71333  0.39304  0.48384  1.0000
  C   C145      1.0  0.76308  0.34746  0.44193  1.0000
  C   C146      1.0  0.70368  0.34435  0.31850  1.0000
  C   C147      1.0  0.78965  0.42532  0.29807  1.0000
  C   C148      1.0  0.60557  0.03689  0.34849  1.0000
  H   H228      1.0  0.69511  0.06511  0.42823  1.0000
  H   H229      1.0  0.86569  0.46932  0.47916  1.0000
  H   H230      1.0  0.64081  0.11117  0.43739  1.0000
  H   H231      1.0  0.87086  0.42609  0.44118  1.0000
  H   H232      1.0  0.78357  0.36391  0.34136  1.0000
  C   C149      1.0  0.75801  0.06097  0.51379  1.0000
  N   N16       1.0  0.78794  0.40537  0.45582  1.0000
  H   H233      1.0  0.76401  0.32048  0.46695  1.0000
  H   H234      1.0  0.81209  0.44252  0.39552  1.0000
  C   C150      1.0  0.67954  0.05520  0.39590  1.0000
  C   C151      1.0  0.75717  0.40802  0.49181  1.0000
  C   C152      1.0  0.76107  0.37665  0.32135  1.0000
  H   H235      1.0  0.71936  0.33040  0.43229  1.0000
  C   C153      1.0  0.84595  0.42617  0.46777  1.0000
  H   H236      1.0  0.65522  0.13619  0.38504  1.0000
  H   H237      1.0  0.77538  0.45111  0.50346  1.0000
  C   C154      1.0  0.62660  0.10067  0.40483  1.0000
  H   H238      1.0  0.84932  0.40069  0.49287  1.0000
  H   H239      1.0  0.58541  0.09721  0.40257  1.0000
  C   C155      1.0  0.77082  0.03528  0.48211  1.0000
  H   H240      1.0  0.71011  0.08895  0.37578  1.0000
  N   N17       1.0  0.62419  0.04891  0.39192  1.0000
  H   H241      1.0  0.75788  0.38226  0.51788  1.0000
  H   H242      1.0  0.83395  0.44993  0.30036  1.0000
  H   H243      1.0  0.63396  0.07080  0.32747  1.0000
  S   S54       1.0  0.56025  0.14496  0.30499  1.0000
  H   H244      1.0  0.79041  0.09774  0.52838  1.0000
  Fe  Fe26      1.0  0.87286  0.21169  0.62810  1.0000
  S   S55       1.0  0.79672  0.13908  0.65424  1.0000
  S   S56       1.0  0.95143  0.20868  0.63263  1.0000
  Fe  Fe27      1.0  0.81235  0.27072  0.60273  1.0000
  S   S57       1.0  0.73148  0.20346  0.62693  1.0000
  N   N18       1.0  0.54473  0.07229  0.58898  1.0000
  Fe  Fe28      1.0  0.78055  0.20291  0.68161  1.0000
  S   S58       1.0  0.74551  0.19019  0.74600  1.0000
  Fe  Fe29      1.0  0.75465  0.14571  0.59728  1.0000
  H   H245      1.0  0.92428  0.25446  0.72714  1.0000
  S   S59       1.0  0.85995  0.27525  0.66004  1.0000
  S   S60       1.0  0.83211  0.21323  0.56853  1.0000
  H   H246      1.0  0.57678  0.08737  0.65105  1.0000
  C   C156      1.0  0.77942  0.39403  0.67823  1.0000
  H   H247      1.0  0.77968  0.32189  0.65609  1.0000
  S   S61       1.0  0.81858  0.34620  0.57243  1.0000
  H   H248      1.0  0.85329  0.28930  0.75073  1.0000
  H   H249      1.0  0.76574  0.31324  0.76278  1.0000
  H   H250      1.0  0.97435  0.32195  0.62996  1.0000
  H   H251      1.0  0.56625  0.02597  0.54794  1.0000
  C   C157      1.0  0.81033  0.47010  0.62998  1.0000
  H   H252      1.0  0.88184  0.19849  0.76157  1.0000
  H   H253      1.0  0.62562  0.12578  0.56436  1.0000
  H   H254      1.0  0.90949  0.18590  0.71575  1.0000
  C   C158      1.0  0.81887  0.43893  0.60009  1.0000
  C   C159      1.0  0.58806  0.12678  0.57364  1.0000
  C   C160      1.0  0.01292  0.32228  0.63181  1.0000
  C   C161      1.0  0.79076  0.44764  0.66920  1.0000
  C   C162      1.0  0.01329  0.27256  0.63194  1.0000
  C   C163      1.0  0.80802  0.38544  0.60950  1.0000
  C   C164      1.0  0.78831  0.36312  0.64862  1.0000
  S   S62       1.0  0.68573  0.07167  0.56466  1.0000
  S   S63       1.0  0.78017  0.48532  0.70768  1.0000
  H   H255      1.0  0.76388  0.37640  0.70820  1.0000
  C   C165      1.0  0.56491  0.05648  0.62589  1.0000
  H   H256      1.0  0.83452  0.45654  0.56997  1.0000
  N   N19       1.0  0.96851  0.22600  0.76460  1.0000
  H   H257      1.0  0.57376  0.14014  0.54614  1.0000
  H   H258      1.0  0.02331  0.28838  0.72178  1.0000
  H   H259      1.0  0.60089  0.15922  0.59772  1.0000
  H   H260      1.0  0.60193  0.05334  0.61871  1.0000
  C   C166      1.0  0.91883  0.21577  0.74136  1.0000
  H   H261      1.0  0.69744  0.30260  0.75724  1.0000
  C   C167      1.0  0.01636  0.24931  0.73646  1.0000
  C   C168      1.0  0.95972  0.17335  0.78211  1.0000
  H   H262      1.0  0.01005  0.22009  0.71100  1.0000
  H   H263      1.0  0.58818  0.50923  0.70801  1.0000
  H   H264      1.0  0.95160  0.14274  0.75729  1.0000
  H   H265      1.0  0.73068  0.40039  0.77555  1.0000
  H   H266      1.0  0.81871  0.51129  0.62266  1.0000
  C   C169      1.0  0.53025  0.03041  0.55632  1.0000
  H   H267      1.0  0.79926  0.41200  0.78002  1.0000
  C   C170      1.0  0.72733  0.30260  0.77988  1.0000
  C   C171      1.0  0.84201  0.27107  0.78117  1.0000
  H   H268      1.0  0.98457  0.30517  0.78632  1.0000
  C   C172      1.0  0.79165  0.22247  0.78721  1.0000
  H   H269      1.0  0.57443  0.23065  0.00498  1.0000
  Fe  Fe30      1.0  0.88811  0.26642  0.95906  1.0000
  S   S64       1.0  0.81704  0.18287  0.97609  1.0000
  S   S65       1.0  0.90970  0.30604  0.89554  1.0000
  C   C173      1.0  0.71906  0.25086  0.98249  1.0000
  H   H270      1.0  0.69265  0.35294  0.86260  1.0000
  H   H271      1.0  0.75923  0.25649  0.97590  1.0000
  S   S66       1.0  0.95172  0.25578  0.99398  1.0000
  C   C174      1.0  0.83191  0.03732  0.99845  1.0000
  C   C175      1.0  0.80234  0.04087  0.96491  1.0000
  H   H272      1.0  0.94435  0.24860  0.82083  1.0000
  H   H273      1.0  0.81140  0.08077  0.95331  1.0000
  C   C176      1.0  0.86310  0.27376  0.85453  1.0000
  C   C177      1.0  0.81245  0.22556  0.86063  1.0000
  C   C178      1.0  0.77662  0.20030  0.82710  1.0000
  C   C179      1.0  0.77854  0.34052  0.84294  1.0000
  H   H274      1.0  0.76893  0.42851  0.82232  1.0000
  H   H275      1.0  0.92379  0.15470  0.80345  1.0000
  H   H276      1.0  0.80068  0.20781  0.89115  1.0000
  H   H277      1.0  0.73735  0.16310  0.83205  1.0000
  H   H278      1.0  0.99644  0.17950  0.79983  1.0000
  C   C180      1.0  0.76024  0.39802  0.79735  1.0000
  H   H279      1.0  0.71388  0.28622  0.92473  1.0000
  C   C181      1.0  0.61462  0.23615  0.99862  1.0000
  C   C182      1.0  0.64106  0.26026  0.96134  1.0000
  Fe  Fe31      1.0  0.80827  0.22597  0.03129  1.0000
  C   C183      1.0  0.87743  0.29682  0.81481  1.0000
  H   H280      1.0  0.78647  0.36814  0.86984  1.0000
  S   S67       1.0  0.88176  0.09687  0.02407  1.0000
  S   S68       1.0  0.87383  0.31037  0.01117  1.0000
  S   S69       1.0  0.61027  0.28168  0.92388  1.0000
  C   C184      1.0  0.69329  0.26763  0.95343  1.0000
  Fe  Fe32      1.0  0.87927  0.17541  0.01502  1.0000
  C   C185      1.0  0.64048  0.21934  0.02783  1.0000
  C   C186      1.0  0.00698  0.46065  0.00406  1.0000
  H   H281      1.0  0.76366  0.29814  0.85530  1.0000
  H   H282      1.0  0.91611  0.33473  0.81005  1.0000
  H   H283      1.0  0.98633  0.42106  0.02159  1.0000
  H   H284      1.0  0.66830  0.28235  0.84931  1.0000
  H   H285      1.0  0.97788  0.47666  0.00299  1.0000
  C   C187      1.0  0.69283  0.22686  0.01978  1.0000
  H   H286      1.0  0.81867  0.35408  0.82749  1.0000
  N   N20       1.0  0.73813  0.34155  0.81408  1.0000
  C   C188      1.0  0.97907  0.26543  0.79840  1.0000
  C   C189      1.0  0.68620  0.32483  0.83627  1.0000
  H   H287      1.0  0.70996  0.25948  0.79146  1.0000
  H   H288      1.0  0.01690  0.27500  0.81608  1.0000
  H   H289      1.0  0.01286  0.45062  0.97194  1.0000
  H   H290      1.0  0.65458  0.32520  0.81568  1.0000
  S   S70       1.0  0.92564  0.64827  0.25109  1.0000
  C   C190      1.0  0.79795  0.71991  0.20806  1.0000
  H   H291      1.0  0.84000  0.74106  0.22199  1.0000
  Fe  Fe33      1.0  0.99092  0.64301  0.28743  1.0000
  C   C191      1.0  0.69720  0.98283  0.06319  1.0000
  Fe  Fe34      1.0  0.67393  0.74165  0.04839  1.0000
  C   C192      1.0  0.77232  0.63647  0.24685  1.0000
  N   N21       1.0  0.77536  0.65962  0.20516  1.0000
  H   H292      1.0  0.85448  0.66934  0.19131  1.0000
  C   C193      1.0  0.81166  0.64859  0.17890  1.0000
  H   H293      1.0  0.80065  0.73872  0.17712  1.0000
  H   H294      1.0  0.99812  0.60289  0.19973  1.0000
  H   H295      1.0  0.02250  0.53030  0.06664  1.0000
  H   H296      1.0  0.74589  0.64460  0.26784  1.0000
  H   H297      1.0  0.79704  0.60354  0.17734  1.0000
  H   H298      1.0  0.69116  0.64078  0.20618  1.0000
  H   H299      1.0  0.75541  0.59096  0.24589  1.0000
  C   C194      1.0  0.54690  0.76042  0.17683  1.0000
  S   S71       1.0  0.66168  0.89363  0.22778  1.0000
  H   H300      1.0  0.00989  0.59473  0.12457  1.0000
  S   S72       1.0  0.70795  0.74175  0.11153  1.0000
  C   C195      1.0  0.67980  0.85433  0.19660  1.0000
  C   C196      1.0  0.68366  0.81010  0.21312  1.0000
  C   C197      1.0  0.69369  0.77626  0.18703  1.0000
  C   C198      1.0  0.70014  0.78681  0.14450  1.0000
  C   C199      1.0  0.69812  0.83214  0.12833  1.0000
  C   C200      1.0  0.68746  0.86550  0.15430  1.0000
  H   H301      1.0  0.67804  0.80136  0.24584  1.0000
  H   H302      1.0  0.69509  0.74122  0.19969  1.0000
  H   H303      1.0  0.70543  0.84187  0.09587  1.0000
  H   H304      1.0  0.68459  0.89961  0.14163  1.0000
  H   H305      1.0  0.81369  0.66402  0.14684  1.0000
  H   H306      1.0  0.56338  0.76507  0.20883  1.0000
  H   H307      1.0  0.72030  0.65082  0.15556  1.0000
  H   H308      1.0  0.70148  0.58811  0.18366  1.0000
  H   H309      1.0  0.68737  0.94288  0.07774  1.0000
  C   C201      1.0  0.71959  0.63356  0.18681  1.0000
  H   H310      1.0  0.77155  0.72966  0.22766  1.0000
  H   H311      1.0  0.81384  0.65502  0.26133  1.0000
  H   H312      1.0  0.56789  0.74373  0.15749  1.0000
  H   H313      1.0  0.55974  0.80270  0.16529  1.0000
  H   H314      1.0  0.76320  0.99404  0.12830  1.0000
  H   H315      1.0  0.67130  0.98069  0.14353  1.0000
  H   H316      1.0  0.65844  0.97820  0.05004  1.0000
  H   H317      1.0  0.83590  0.80730  0.28500  1.0000
  Fe  Fe35      1.0  0.86819  0.56529  0.27850  1.0000
  H   H318      1.0  0.64527  0.01748  0.11413  1.0000
  H   H319      1.0  0.84359  0.98235  0.03856  1.0000
  C   C202      1.0  0.01335  0.73925  0.50396  1.0000
  C   C203      1.0  0.88235  0.58249  0.50633  1.0000
  Fe  Fe36      1.0  0.91914  0.59819  0.36388  1.0000
  S   S73       1.0  0.84747  0.59867  0.33382  1.0000
  C   C204      1.0  0.88839  0.59802  0.46459  1.0000
  C   C205      1.0  0.81177  0.77378  0.30626  1.0000
  H   H320      1.0  0.87987  0.65005  0.41948  1.0000
  C   C206      1.0  0.87515  0.63765  0.45157  1.0000
  H   H321      1.0  0.81836  0.67423  0.36203  1.0000
  C   C207      1.0  0.85205  0.64768  0.52222  1.0000
  C   C208      1.0  0.66175  0.99118  0.50737  1.0000
  H   H322      1.0  0.81965  0.80757  0.51415  1.0000
  C   C209      1.0  0.85707  0.66245  0.48035  1.0000
  S   S74       1.0  0.91422  0.56883  0.42958  1.0000
  S   S75       1.0  0.98123  0.68405  0.34375  1.0000
  H   H323      1.0  0.72488  0.65344  0.38198  1.0000
  H   H324      1.0  0.84776  0.69371  0.47019  1.0000
  H   H325      1.0  0.72457  0.74494  0.49146  1.0000
  C   C210      1.0  0.72915  0.98787  0.46273  1.0000
  Fe  Fe37      1.0  0.56257  0.80977  0.35940  1.0000
  S   S76       1.0  0.61985  0.89849  0.34206  1.0000
  Fe  Fe38      1.0  0.64959  0.77791  0.35123  1.0000
  S   S77       1.0  0.58627  0.77421  0.30711  1.0000
  S   S78       1.0  0.66318  0.70648  0.36195  1.0000
  Fe  Fe39      1.0  0.68064  0.89148  0.38315  1.0000
  Fe  Fe40      1.0  0.64842  0.86238  0.29308  1.0000
  C   C211      1.0  0.80164  0.69820  0.34902  1.0000
  S   S79       1.0  0.62059  0.80600  0.40535  1.0000
  H   H326      1.0  0.76788  0.82423  0.39334  1.0000
  C   C212      1.0  0.73757  0.75770  0.45894  1.0000
  S   S80       1.0  0.89739  0.75416  0.30435  1.0000
  H   H327      1.0  0.74209  0.78592  0.30430  1.0000
  C   C213      1.0  0.72750  0.71883  0.34491  1.0000
  N   N22       1.0  0.78515  0.81453  0.45649  1.0000
  C   C214      1.0  0.80241  0.82849  0.41297  1.0000
  H   H328      1.0  0.61952  0.97365  0.51744  1.0000
  H   H329      1.0  0.83694  0.87178  0.40962  1.0000
  H   H330      1.0  0.89272  0.55210  0.51675  1.0000
  Fe  Fe41      1.0  0.91062  0.68154  0.30935  1.0000
  H   H331      1.0  0.74738  0.72724  0.44526  1.0000
  H   H332      1.0  0.86797  0.86035  0.47985  1.0000
  H   H333      1.0  0.73450  0.85203  0.45480  1.0000
  H   H334      1.0  0.58318  0.96341  0.41035  1.0000
  C   C215      1.0  0.67451  0.96564  0.47545  1.0000
  H   H335      1.0  0.64224  0.92875  0.46087  1.0000
  H   H336      1.0  0.81626  0.80081  0.39987  1.0000
  C   C216      1.0  0.74885  0.68674  0.36053  1.0000
  H   H337      1.0  0.80385  0.89728  0.47093  1.0000
  H   H338      1.0  0.97074  0.70482  0.49843  1.0000
  C   C217      1.0  0.83126  0.81806  0.48111  1.0000
  S   S81       1.0  0.71446  0.86312  0.33239  1.0000
  H   H339      1.0  0.70141  0.75393  0.44178  1.0000
  H   H340      1.0  0.84394  0.78868  0.46956  1.0000
  H   H341      1.0  0.01251  0.77845  0.50137  1.0000
  C   C218      1.0  0.83294  0.74138  0.32153  1.0000
  C   C219      1.0  0.75879  0.76197  0.31741  1.0000
  S   S82       1.0  0.74685  0.95831  0.42222  1.0000
  S   S83       1.0  0.93467  0.55669  0.31050  1.0000
  C   C220      1.0  0.76923  0.85377  0.47281  1.0000
  H   H342      1.0  0.75604  0.84480  0.50563  1.0000
  H   H343      1.0  0.60308  0.99801  0.33776  1.0000
  C   C221      1.0  0.86395  0.60703  0.53503  1.0000
  H   H344      1.0  0.59664  0.01132  0.45162  1.0000
  C   C222      1.0  0.58496  0.00287  0.41851  1.0000
  H   H345      1.0  0.54244  0.99587  0.41533  1.0000
  H   H346      1.0  0.67925  0.01659  0.38722  1.0000
  Fe  Fe42      1.0  0.83223  0.65985  0.62539  1.0000
  S   S84       1.0  0.88452  0.62816  0.65309  1.0000
  H   H347      1.0  0.60399  0.54436  0.75686  1.0000
  Fe  Fe43      1.0  0.78405  0.66486  0.70880  1.0000
  S   S85       1.0  0.83270  0.63410  0.74342  1.0000
  S   S86       1.0  0.85689  0.72712  0.67223  1.0000
  N   N23       1.0  0.55248  0.56080  0.71677  1.0000
  H   H348      1.0  0.60520  0.64787  0.72705  1.0000
  S   S87       1.0  0.75505  0.60018  0.65931  1.0000
  H   H349      1.0  0.85950  0.59483  0.56710  1.0000
  H   H350      1.0  0.63715  0.58185  0.71082  1.0000
  S   S88       1.0  0.72626  0.68978  0.73758  1.0000
  H   H351      1.0  0.98745  0.65358  0.69011  1.0000
  S   S89       1.0  0.98855  0.74756  0.72789  1.0000
  H   H352      1.0  0.95479  0.70083  0.57410  1.0000
  Fe  Fe44      1.0  0.90328  0.69075  0.70276  1.0000
  Fe  Fe45      1.0  0.80947  0.57393  0.69110  1.0000
  S   S90       1.0  0.83423  0.68303  0.55812  1.0000
  H   H353      1.0  0.53299  0.62308  0.73402  1.0000
  H   H354      1.0  0.57080  0.60870  0.77233  1.0000
  H   H355      1.0  0.53314  0.01551  0.63816  1.0000
  H   H356      1.0  0.01244  0.73126  0.60879  1.0000
  C   C223      1.0  0.59729  0.54840  0.72341  1.0000
  C   C224      1.0  0.56589  0.61236  0.73856  1.0000
  H   H357      1.0  0.58544  0.60225  0.65895  1.0000
  C   C225      1.0  0.54663  0.56789  0.67211  1.0000
  H   H358      1.0  0.99714  0.77440  0.57685  1.0000
  C   C226      1.0  0.99808  0.73516  0.57755  1.0000
  H   H359      1.0  0.99065  0.64493  0.54346  1.0000
  H   H360      1.0  0.53617  0.52971  0.65461  1.0000
  C   C227      1.0  0.67859  0.64349  0.87280  1.0000
  C   C228      1.0  0.71906  0.63345  0.80945  1.0000
  S   S91       1.0  0.66282  0.62718  0.92529  1.0000
  H   H361      1.0  0.86680  0.88825  0.89522  1.0000
  H   H362      1.0  0.85981  0.83252  0.86357  1.0000
  H   H363      1.0  0.76954  0.83253  0.91612  1.0000
  H   H364      1.0  0.71455  0.59170  0.86670  1.0000
  H   H365      1.0  0.77013  0.89692  0.00556  1.0000
  H   H366      1.0  0.55295  0.60213  0.94909  1.0000
  C   C229      1.0  0.70462  0.61987  0.85109  1.0000
  H   H367      1.0  0.64366  0.69634  0.86847  1.0000
  H   H368      1.0  0.76245  0.77607  0.88521  1.0000
  N   N24       1.0  0.79755  0.85454  0.85374  1.0000
  C   C230      1.0  0.79252  0.90462  0.85461  1.0000
  H   H369      1.0  0.71618  0.80232  0.87811  1.0000
  C   C231      1.0  0.85476  0.86951  0.86389  1.0000
  S   S92       1.0  0.60803  0.65993  0.02451  1.0000
  C   C232      1.0  0.66493  0.67903  0.85224  1.0000
  C   C233      1.0  0.67853  0.69186  0.81041  1.0000
  H   H370      1.0  0.80376  0.92480  0.88551  1.0000
  H   H371      1.0  0.88451  0.89991  0.84136  1.0000
  Fe  Fe46      1.0  0.66987  0.80265  0.97242  1.0000
  S   S93       1.0  0.72230  0.76579  0.98930  1.0000
  S   S94       1.0  0.69814  0.88093  0.93620  1.0000
  H   H372      1.0  0.81963  0.93563  0.83132  1.0000
  Fe  Fe47      1.0  0.65185  0.68760  0.96383  1.0000
  S   S95       1.0  0.60317  0.72614  0.94224  1.0000
  H   H373      1.0  0.81098  0.85843  0.78807  1.0000
  C   C234      1.0  0.82063  0.98527  0.01268  1.0000
  Fe  Fe48      1.0  0.56494  0.70530  0.00501  1.0000
  H   H374      1.0  0.01174  0.75821  0.81674  1.0000
  C   C235      1.0  0.75980  0.81446  0.88457  1.0000
  C   C236      1.0  0.76156  0.99259  0.94575  1.0000
  C   C237      1.0  0.74955  0.94062  0.96053  1.0000
  C   C238      1.0  0.77905  0.93692  0.99407  1.0000
  H   H375      1.0  0.56510  0.52046  0.95487  1.0000
  H   H376      1.0  0.73962  0.61543  0.79315  1.0000
  H   H377      1.0  0.73897  0.99558  0.91966  1.0000
  C   C239      1.0  0.78310  0.82954  0.81216  1.0000
  H   H378      1.0  0.66770  0.71916  0.79456  1.0000
  H   H379      1.0  0.74938  0.89450  0.84836  1.0000
  H   H380      1.0  0.78599  0.79132  0.81051  1.0000
  H   H381      1.0  0.74024  0.81797  0.80347  1.0000
  H   H382      1.0  0.55234  0.55304  0.88693  1.0000
  S   S96       1.0  0.62727  0.78539  0.03370  1.0000
  H   H383      1.0  0.52836  0.78176  0.02401  1.0000
  H   H384      1.0  0.72515  0.98973  0.03682  1.0000
  C   C240      1.0  0.70676  0.67010  0.78919  1.0000
