data_image0
_chemical_formula_structural       C2H2SNC3H3CFeS2FeS2FeSFeS2C2HCH3C5H7SH6CH3CHCH2SCH3C2H6NH2CHCH2CHCHFeS2FeSFe2S2C2H5SC5H3C3SH4CNH4CHNH6C2FeS2HFeC3H4NH2C4H5SHFeH3SH3CHC5H2S2CHFeSCH3CHCHC4H3CH2C2H2CHNHNSHCHCHFeHFeS2CH2CHCH3CHC4H3C2H4CH2CH3SNHC2HNCSHCSFeH2FeSCHSHSHSHC4H5CHC2H2C2H3CHS2H3FeSHFeS2FeS2FeSFeS2C6H4SC3NH2SH2C2FeH3CNH3CHCH5C2H3CS2CHFeHCH2CFeS4FeCFeSHSHFeSCHC3FeHC4H3CH2CHNC2H3CH6C2HCHSH2C2HNH2CH5CSHSCHFeSHFeS2FeS2FeSFeS2C6H4SHFeNH2C4H2CSH2SCH3CH3CHSH4C2HCH8FeCNHC2H3CH3C2H2FeH2CH2FeHCH3CHFeSCSCFeHFeCS2CHSH4CH2SC3SH5NCSH3CHNCH2CNH3CH2CH3C2H2C2HC4HCH7NHCHCH3CFeSFeS2FeSFeS3H3CNH4C7H4C2H5CHCH4CHNCH4SHC2HC2H3SHC2NHC3H7SC2H3NH2CHC2HC4HCHCH2CHCH2CH2FeSFeS2FeSFeS3CH2CHCH2C6HCH6CHCNH4CNH4CNHCHSH2CHCHCHSCH6FeSHFeS2FeSFeS2C7H4CHNHCHCH2CH3CH2CHCHSCH3SNCHCH3CHCH5CH3NH4CNHC3HC2SH4CHC2HCH2NHNHCH7CH2CHFeSHFeS2FeSFeS2C7H6SHCHCH3CH10CHC2H8CNCHCH3SCH3NC2HCHCH2CSCFeSFeSFeS2Fe2S3C2HC3HC3H2NHCHC3H2CH2C2HCHNCHFeHSH3SHFeHCH4C2HCHSHCH3CH2CFeHS2H6CSCFeS2FeS2Fe2S3C2H4CH5CHCHSC5H3CHNH4CH4CH5C3HC2HFeSFeSFeS2Fe2S3CH2C3H3C3H3CH2CH5FeSHFeH2SC2H3C2NC2H2CH2SCHCH2C2H2SH3FeSC3FeS2FeS2Fe2S3C2H2CH2CH3CH3SC5H2CH3CH3NCH3CHCHCNH3CHCH3CHSHSCFe2CSCHSC3FeH2C2HCHSHSH3CH4C3H2SC5H3CH3NC3HCH4CH5CHSHC2HCNHSFeH2SHFeHC2HSH4NFeCSHCHC2H2CH2C2SC2SHCSHCH2C2HSH4C2H4CHC2HC4NHSH3CH2FeHSCH2CHSFeCH2FeS2HS2FeHFeSHCH2C6HCH2CHC3H3SH5C3H2CNSCH2C2H3NH4SH2SH2CHSHFeC2FeS4Fe2HSH3CHC6HCH3FeHC2H2NC3HCH4CH2NSH4SHCH2CH2C
_chemical_formula_sum              "C480 H768 S192 N48 Fe96"
_cell_length_a       50.1857
_cell_length_b       49.7651
_cell_length_c       40.3412
_cell_angle_alpha    89.6651
_cell_angle_beta     90.2084
_cell_angle_gamma    120.168

_space_group_name_H-M_alt    "P 1"
_space_group_IT_number       1

loop_
  _space_group_symop_operation_xyz
  'x, y, z'

loop_
  _atom_site_type_symbol
  _atom_site_label
  _atom_site_symmetry_multiplicity
  _atom_site_fract_x
  _atom_site_fract_y
  _atom_site_fract_z
  _atom_site_occupancy
  C   C1        1.0  0.25787  0.38043  0.31772  1.0000
  C   C2        1.0  0.04043  0.45311  0.43358  1.0000
  H   H1        1.0  0.05074  0.32203  0.27255  1.0000
  H   H2        1.0  0.26316  0.35354  0.37357  1.0000
  S   S1        1.0  0.25334  0.39672  0.42280  1.0000
  N   N1        1.0  0.02905  0.42942  0.40717  1.0000
  C   C3        1.0  0.05440  0.42475  0.39592  1.0000
  C   C4        1.0  0.03081  0.30061  0.26230  1.0000
  C   C5        1.0  0.04920  0.35194  0.39771  1.0000
  H   H3        1.0  0.24475  0.38150  0.33936  1.0000
  H   H4        1.0  0.24146  0.36007  0.30269  1.0000
  H   H5        1.0  0.05604  0.34746  0.21771  1.0000
  C   C6        1.0  0.04377  0.34809  0.43200  1.0000
  Fe  Fe1       1.0  0.14139  0.42718  0.30248  1.0000
  S   S2        1.0  0.11027  0.42543  0.34352  1.0000
  S   S3        1.0  0.19132  0.43834  0.30990  1.0000
  Fe  Fe2       1.0  0.09342  0.41830  0.24828  1.0000
  S   S4        1.0  0.05987  0.41670  0.28558  1.0000
  S   S5        1.0  0.08171  0.41077  0.19321  1.0000
  Fe  Fe3       1.0  0.10056  0.45613  0.31041  1.0000
  S   S6        1.0  0.09482  0.49398  0.33409  1.0000
  Fe  Fe4       1.0  0.07237  0.38629  0.31481  1.0000
  S   S7        1.0  0.13392  0.46062  0.27086  1.0000
  S   S8        1.0  0.10382  0.38526  0.27603  1.0000
  C   C7        1.0  0.03908  0.38656  0.14281  1.0000
  C   C8        1.0  0.25459  0.43554  0.37166  1.0000
  H   H6        1.0  0.05981  0.47572  0.42456  1.0000
  C   C9        1.0  0.04394  0.39454  0.17656  1.0000
  H   H7        1.0  0.07420  0.44681  0.38641  1.0000
  H   H8        1.0  0.07257  0.36383  0.38837  1.0000
  H   H9        1.0  0.05853  0.39134  0.12727  1.0000
  C   C10       1.0  0.23671  0.41075  0.39318  1.0000
  C   C11       1.0  0.20441  0.39514  0.38992  1.0000
  C   C12       1.0  0.19009  0.40386  0.36531  1.0000
  C   C13       1.0  0.20796  0.42808  0.34323  1.0000
  C   C14       1.0  0.24028  0.44383  0.34660  1.0000
  H   H10       1.0  0.19032  0.37595  0.40639  1.0000
  H   H11       1.0  0.16524  0.39145  0.36300  1.0000
  H   H12       1.0  0.25431  0.46270  0.32976  1.0000
  H   H13       1.0  0.06302  0.35719  0.44906  1.0000
  H   H14       1.0  0.06315  0.41615  0.41636  1.0000
  H   H15       1.0  0.10754  0.50716  0.26357  1.0000
  H   H16       1.0  0.04678  0.40748  0.37547  1.0000
  S   S9        1.0  0.03036  0.34276  0.33264  1.0000
  H   H17       1.0  0.03652  0.46264  0.36878  1.0000
  H   H18       1.0  0.03976  0.28587  0.25235  1.0000
  H   H19       1.0  0.25712  0.32891  0.33856  1.0000
  H   H20       1.0  0.26492  0.40177  0.30260  1.0000
  H   H21       1.0  0.04884  0.44568  0.45537  1.0000
  H   H22       1.0  0.02200  0.39472  0.22217  1.0000
  C   C15       1.0  0.02436  0.33947  0.37561  1.0000
  H   H23       1.0  0.02446  0.33119  0.18907  1.0000
  H   H24       1.0  0.04535  0.31137  0.19764  1.0000
  H   H25       1.0  0.02278  0.35055  0.25948  1.0000
  C   C16       1.0  0.03601  0.32522  0.20905  1.0000
  H   H26       1.0  0.02188  0.45734  0.44252  1.0000
  C   C17       1.0  0.10344  0.32155  0.87885  1.0000
  H   H27       1.0  0.03837  0.43841  0.91781  1.0000
  H   H28       1.0  0.03454  0.31747  0.86490  1.0000
  S   S10       1.0  0.25123  0.41178  0.93325  1.0000
  C   C18       1.0  0.09414  0.36307  0.86440  1.0000
  H   H29       1.0  0.05586  0.38309  0.95097  1.0000
  H   H30       1.0  0.12690  0.33443  0.86761  1.0000
  H   H31       1.0  0.21897  0.30622  0.85140  1.0000
  C   C19       1.0  0.04775  0.40820  0.67247  1.0000
  C   C20       1.0  0.07935  0.32072  0.82654  1.0000
  H   H32       1.0  0.02371  0.38425  0.71687  1.0000
  H   H33       1.0  0.04884  0.38381  0.57803  1.0000
  H   H34       1.0  0.09523  0.29626  0.87731  1.0000
  H   H35       1.0  0.25542  0.40146  0.86209  1.0000
  H   H36       1.0  0.07852  0.36957  0.85166  1.0000
  H   H37       1.0  0.03548  0.29201  0.57875  1.0000
  N   N2        1.0  0.08203  0.32935  0.86192  1.0000
  H   H38       1.0  0.02610  0.46027  0.96734  1.0000
  H   H39       1.0  0.11722  0.37664  0.85258  1.0000
  C   C21       1.0  0.05418  0.36703  0.56610  1.0000
  H   H40       1.0  0.20971  0.27499  0.88018  1.0000
  C   C22       1.0  0.03691  0.37093  0.93381  1.0000
  H   H41       1.0  0.21215  0.31041  0.89425  1.0000
  H   H42       1.0  0.09643  0.37071  0.89065  1.0000
  C   C23       1.0  0.02150  0.38809  0.69081  1.0000
  H   H43       1.0  0.10589  0.32790  0.90558  1.0000
  C   C24       1.0  0.22265  0.30073  0.87723  1.0000
  H   H44       1.0  0.07072  0.29547  0.82349  1.0000
  Fe  Fe5       1.0  0.13449  0.42245  0.80087  1.0000
  S   S11       1.0  0.11196  0.43539  0.84085  1.0000
  S   S12       1.0  0.17021  0.40691  0.80805  1.0000
  Fe  Fe6       1.0  0.09465  0.42906  0.74562  1.0000
  S   S13       1.0  0.06978  0.44279  0.78179  1.0000
  Fe  Fe7       1.0  0.11614  0.47237  0.80533  1.0000
  Fe  Fe8       1.0  0.06768  0.40482  0.81384  1.0000
  S   S14       1.0  0.14189  0.46183  0.76684  1.0000
  S   S15       1.0  0.08950  0.38887  0.77617  1.0000
  C   C25       1.0  0.05130  0.31246  0.87773  1.0000
  C   C26       1.0  0.04941  0.34095  0.61831  1.0000
  H   H45       1.0  0.07491  0.35187  0.62007  1.0000
  H   H46       1.0  0.06314  0.39687  0.89112  1.0000
  H   H47       1.0  0.06454  0.42879  0.62442  1.0000
  H   H48       1.0  0.02569  0.45888  0.89119  1.0000
  H   H49       1.0  0.04162  0.28687  0.87707  1.0000
  S   S16       1.0  0.02182  0.36881  0.83489  1.0000
  C   C27       1.0  0.22974  0.41129  0.89781  1.0000
  C   C28       1.0  0.20491  0.41657  0.90207  1.0000
  C   C29       1.0  0.18703  0.41628  0.87483  1.0000
  C   C30       1.0  0.19338  0.41001  0.84298  1.0000
  C   C31       1.0  0.21817  0.40465  0.83873  1.0000
  H   H50       1.0  0.19950  0.42105  0.92666  1.0000
  H   H51       1.0  0.16816  0.42058  0.87857  1.0000
  H   H52       1.0  0.22324  0.39973  0.81420  1.0000
  C   C32       1.0  0.04440  0.41300  0.63869  1.0000
  C   C33       1.0  0.04109  0.37861  0.89997  1.0000
  C   C34       1.0  0.23646  0.40558  0.86588  1.0000
  S   S17       1.0  0.08529  0.42611  0.68990  1.0000
  H   H53       1.0  0.06303  0.32611  0.81328  1.0000
  H   H54       1.0  0.05219  0.31938  0.90412  1.0000
  H   H55       1.0  0.10202  0.33386  0.81364  1.0000
  H   H56       1.0  0.04656  0.36469  0.53980  1.0000
  C   C35       1.0  0.04686  0.31531  0.56666  1.0000
  N   N3        1.0  0.03890  0.33667  0.58344  1.0000
  H   H57       1.0  0.07218  0.32452  0.56692  1.0000
  H   H58       1.0  0.04296  0.35628  0.63187  1.0000
  H   H59       1.0  0.07969  0.37764  0.56613  1.0000
  H   H60       1.0  0.25037  0.31576  0.93711  1.0000
  C   C36       1.0  0.25976  0.30598  0.91881  1.0000
  H   H61       1.0  0.03934  0.31186  0.54019  1.0000
  N   N4        1.0  0.25579  0.31382  0.88440  1.0000
  H   H62       1.0  0.03887  0.31845  0.63198  1.0000
  H   H63       1.0  0.26249  0.35867  0.89768  1.0000
  H   H64       1.0  0.26097  0.47763  0.89311  1.0000
  H   H65       1.0  0.24803  0.28041  0.92278  1.0000
  H   H66       1.0  0.25693  0.27498  0.86263  1.0000
  H   H67       1.0  0.26786  0.30744  0.83499  1.0000
  C   C37       1.0  0.26904  0.30078  0.86113  1.0000
  C   C38       1.0  0.03963  0.62627  0.44550  1.0000
  Fe  Fe9       1.0  0.10127  0.64008  0.27140  1.0000
  S   S18       1.0  0.10861  0.60516  0.24368  1.0000
  S   S19       1.0  0.05770  0.62929  0.29719  1.0000
  H   H68       1.0  0.05108  0.61355  0.45243  1.0000
  Fe  Fe10      1.0  0.08762  0.66155  0.33719  1.0000
  C   C39       1.0  0.04770  0.64322  0.41560  1.0000
  C   C40       1.0  0.02829  0.59604  0.20542  1.0000
  C   C41       1.0  0.06817  0.62682  0.16586  1.0000
  H   H69       1.0  0.21485  0.83676  0.02630  1.0000
  H   H70       1.0  0.16886  0.64529  0.28681  1.0000
  H   H71       1.0  0.02625  0.54813  0.17266  1.0000
  H   H72       1.0  0.02308  0.61510  0.20893  1.0000
  N   N5        1.0  0.20401  0.67985  0.25516  1.0000
  H   H73       1.0  0.24187  0.70644  0.22205  1.0000
  H   H74       1.0  0.16259  0.68174  0.24912  1.0000
  C   C42       1.0  0.10804  0.55033  0.25477  1.0000
  C   C43       1.0  0.10476  0.57425  0.26879  1.0000
  C   C44       1.0  0.09857  0.57337  0.30267  1.0000
  C   C45       1.0  0.09564  0.54867  0.32242  1.0000
  H   H75       1.0  0.22710  0.72805  0.26941  1.0000
  H   H76       1.0  0.11285  0.55086  0.22859  1.0000
  H   H77       1.0  0.09602  0.59170  0.31376  1.0000
  H   H78       1.0  0.09092  0.54819  0.34864  1.0000
  H   H79       1.0  0.22237  0.82642  0.10038  1.0000
  S   S20       1.0  0.10502  0.68041  0.24233  1.0000
  H   H80       1.0  0.06483  0.57385  0.18694  1.0000
  Fe  Fe11      1.0  0.06413  0.67253  0.27235  1.0000
  H   H81       1.0  0.20472  0.64559  0.28753  1.0000
  H   H82       1.0  0.03903  0.67303  0.38409  1.0000
  H   H83       1.0  0.07744  0.62830  0.14048  1.0000
  S   S21       1.0  0.07682  0.64365  0.39049  1.0000
  H   H84       1.0  0.19727  0.70250  0.29696  1.0000
  H   H85       1.0  0.06581  0.70338  0.20291  1.0000
  H   H86       1.0  0.08658  0.63066  0.18396  1.0000
  C   C46       1.0  0.04409  0.68877  0.19051  1.0000
  H   H87       1.0  0.17100  0.66417  0.21528  1.0000
  C   C47       1.0  0.10505  0.52557  0.27455  1.0000
  C   C48       1.0  0.03292  0.65974  0.40693  1.0000
  C   C49       1.0  0.21604  0.70438  0.28074  1.0000
  C   C50       1.0  0.23341  0.83216  0.03447  1.0000
  C   C51       1.0  0.18162  0.68301  0.23404  1.0000
  H   H88       1.0  0.24967  0.89243  0.04023  1.0000
  H   H89       1.0  0.17906  0.62980  0.25261  1.0000
  S   S22       1.0  0.09202  0.70479  0.31371  1.0000
  S   S23       1.0  0.13126  0.66884  0.31315  1.0000
  C   C52       1.0  0.18863  0.64886  0.27123  1.0000
  H   H90       1.0  0.06192  0.70656  0.14170  1.0000
  Fe  Fe12      1.0  0.13315  0.70925  0.28543  1.0000
  S   S24       1.0  0.18119  0.75259  0.28078  1.0000
  C   C53       1.0  0.04184  0.69060  0.15596  1.0000
  H   H91       1.0  0.19257  0.70580  0.22087  1.0000
  H   H92       1.0  0.26687  0.82278  0.08040  1.0000
  H   H93       1.0  0.05610  0.57112  0.14337  1.0000
  C   C54       1.0  0.09887  0.52470  0.30848  1.0000
  H   H94       1.0  0.24693  0.86641  0.11016  1.0000
  C   C55       1.0  0.24239  0.80893  0.19179  1.0000
  H   H95       1.0  0.24705  0.68085  0.24955  1.0000
  C   C56       1.0  0.23248  0.80099  0.25121  1.0000
  C   C57       1.0  0.20376  0.77402  0.24580  1.0000
  C   C58       1.0  0.19442  0.76460  0.21310  1.0000
  C   C59       1.0  0.21372  0.78183  0.18633  1.0000
  H   H96       1.0  0.23999  0.80857  0.27634  1.0000
  H   H97       1.0  0.17232  0.74411  0.20841  1.0000
  H   H98       1.0  0.20626  0.77422  0.16122  1.0000
  C   C60       1.0  0.25159  0.81844  0.22446  1.0000
  H   H99       1.0  0.02419  0.59243  0.12108  1.0000
  H   H100      1.0  0.24745  0.83418  0.01228  1.0000
  C   C61       1.0  0.23316  0.85036  0.08978  1.0000
  C   C62       1.0  0.26718  0.88622  0.04806  1.0000
  H   H101      1.0  0.21442  0.85522  0.08331  1.0000
  H   H102      1.0  0.04559  0.59904  0.22463  1.0000
  C   C63       1.0  0.04709  0.57130  0.16850  1.0000
  H   H103      1.0  0.23328  0.70307  0.29702  1.0000
  N   N6        1.0  0.03991  0.59657  0.17164  1.0000
  H   H104      1.0  0.06365  0.64643  0.16852  1.0000
  N   N7        1.0  0.25263  0.85394  0.06075  1.0000
  S   S25       1.0  0.26604  0.82952  0.15705  1.0000
  H   H105      1.0  0.22214  0.80761  0.04330  1.0000
  C   C64       1.0  0.22975  0.68324  0.23444  1.0000
  H   H106      1.0  0.22138  0.66523  0.21471  1.0000
  C   C65       1.0  0.05794  0.66512  0.89499  1.0000
  H   H107      1.0  0.21568  0.65121  0.78212  1.0000
  Fe  Fe13      1.0  0.10507  0.69020  0.82002  1.0000
  H   H108      1.0  0.21324  0.71171  0.78287  1.0000
  Fe  Fe14      1.0  0.11696  0.65842  0.76214  1.0000
  S   S26       1.0  0.12012  0.61889  0.73921  1.0000
  S   S27       1.0  0.07397  0.65591  0.78199  1.0000
  C   C66       1.0  0.19351  0.68521  0.72331  1.0000
  H   H109      1.0  0.22262  0.87942  0.71971  1.0000
  H   H110      1.0  0.25696  0.67982  0.74026  1.0000
  C   C67       1.0  0.24394  0.88187  0.73114  1.0000
  H   H111      1.0  0.05638  0.64741  0.71032  1.0000
  C   C68       1.0  0.19966  0.65412  0.76535  1.0000
  H   H112      1.0  0.04823  0.67504  0.61920  1.0000
  H   H113      1.0  0.25353  0.90538  0.66973  1.0000
  H   H114      1.0  0.18151  0.65424  0.78106  1.0000
  C   C69       1.0  0.12627  0.54604  0.80342  1.0000
  H   H115      1.0  0.07499  0.68201  0.53176  1.0000
  C   C70       1.0  0.11909  0.56409  0.74991  1.0000
  C   C71       1.0  0.12123  0.59057  0.76465  1.0000
  C   C72       1.0  0.12574  0.59471  0.79889  1.0000
  C   C73       1.0  0.12856  0.57262  0.81816  1.0000
  H   H116      1.0  0.11563  0.56079  0.72343  1.0000
  H   H117      1.0  0.12731  0.61499  0.81049  1.0000
  H   H118      1.0  0.13232  0.57599  0.84461  1.0000
  C   C74       1.0  0.05870  0.69060  0.53639  1.0000
  C   C75       1.0  0.05319  0.67208  0.92743  1.0000
  H   H119      1.0  0.02502  0.60030  0.67697  1.0000
  H   H120      1.0  0.07463  0.71115  0.59939  1.0000
  H   H121      1.0  0.18774  0.63301  0.74951  1.0000
  H   H122      1.0  0.25210  0.70288  0.70889  1.0000
  C   C76       1.0  0.02521  0.65301  0.94421  1.0000
  H   H123      1.0  0.26733  0.94005  0.75435  1.0000
  H   H124      1.0  0.04524  0.70083  0.79105  1.0000
  C   C77       1.0  0.01984  0.61895  0.67651  1.0000
  H   H125      1.0  0.07815  0.67730  0.59319  1.0000
  H   H126      1.0  0.04346  0.68458  0.51418  1.0000
  H   H127      1.0  0.03223  0.71364  0.82564  1.0000
  S   S28       1.0  0.09302  0.69092  0.87437  1.0000
  N   N8        1.0  0.04051  0.67682  0.56691  1.0000
  H   H128      1.0  0.03101  0.71403  0.57379  1.0000
  C   C78       1.0  0.12130  0.54171  0.76926  1.0000
  C   C79       1.0  0.23060  0.71018  0.76710  1.0000
  H   H129      1.0  0.22911  0.66119  0.70775  1.0000
  N   N9        1.0  0.21590  0.68278  0.74511  1.0000
  C   C80       1.0  0.23962  0.68164  0.72460  1.0000
  S   S29       1.0  0.14731  0.68919  0.80282  1.0000
  H   H130      1.0  0.11954  0.52131  0.75770  1.0000
  C   C81       1.0  0.25889  0.82221  0.67014  1.0000
  S   S30       1.0  0.11674  0.73261  0.78911  1.0000
  Fe  Fe15      1.0  0.08796  0.69802  0.75005  1.0000
  H   H131      1.0  0.03861  0.63296  0.56052  1.0000
  H   H132      1.0  0.24251  0.73228  0.75261  1.0000
  Fe  Fe16      1.0  0.15629  0.72869  0.76829  1.0000
  S   S31       1.0  0.20661  0.76756  0.76375  1.0000
  C   C82       1.0  0.06133  0.68552  0.59588  1.0000
  H   H133      1.0  0.20455  0.70693  0.70818  1.0000
  S   S32       1.0  0.12811  0.69772  0.72664  1.0000
  H   H134      1.0  0.17515  0.68545  0.73821  1.0000
  S   S33       1.0  0.05257  0.70271  0.71999  1.0000
  H   H135      1.0  0.24471  0.86054  0.72474  1.0000
  S   S34       1.0  0.13060  0.51912  0.82805  1.0000
  H   H136      1.0  0.18181  0.66498  0.70626  1.0000
  C   C83       1.0  0.25748  0.81094  0.72917  1.0000
  C   C84       1.0  0.22609  0.78802  0.72719  1.0000
  C   C85       1.0  0.21125  0.78211  0.69646  1.0000
  C   C86       1.0  0.22760  0.79907  0.66813  1.0000
  H   H137      1.0  0.24157  0.88204  0.75854  1.0000
  H   H138      1.0  0.18714  0.76456  0.69449  1.0000
  H   H139      1.0  0.21589  0.79432  0.64446  1.0000
  H   H140      1.0  0.07117  0.69255  0.93956  1.0000
  H   H141      1.0  0.24777  0.70935  0.78393  1.0000
  C   C87       1.0  0.03047  0.69278  0.81355  1.0000
  H   H142      1.0  0.07240  0.71640  0.53787  1.0000
  C   C88       1.0  0.03094  0.66974  0.69530  1.0000
  C   C89       1.0  0.02306  0.64265  0.56377  1.0000
  H   H143      1.0  0.24911  0.93703  0.71488  1.0000
  H   H144      1.0  0.04075  0.68300  0.83089  1.0000
  C   C90       1.0  0.03460  0.63838  0.87975  1.0000
  C   C91       1.0  0.03757  0.64563  0.69551  1.0000
  H   H145      1.0  0.03824  0.63226  0.85520  1.0000
  H   H146      1.0  0.02174  0.65895  0.96895  1.0000
  H   H147      1.0  0.26925  0.81553  0.75278  1.0000
  C   C92       1.0  0.26941  0.93790  0.72717  1.0000
  H   H148      1.0  0.50537  0.33154  0.24944  1.0000
  S   S35       1.0  0.40472  0.30179  0.19531  1.0000
  S   S36       1.0  0.36848  0.31759  0.27269  1.0000
  H   H149      1.0  0.29630  0.40971  0.36886  1.0000
  H   H150      1.0  0.41739  0.46303  0.07411  1.0000
  H   H151      1.0  0.45215  0.49378  0.09182  1.0000
  Fe  Fe17      1.0  0.45111  0.31129  0.21320  1.0000
  S   S37       1.0  0.46469  0.27396  0.21650  1.0000
  H   H152      1.0  0.40105  0.27899  0.27965  1.0000
  Fe  Fe18      1.0  0.42931  0.09310  0.40151  1.0000
  S   S38       1.0  0.46432  0.08090  0.38515  1.0000
  S   S39       1.0  0.39280  0.06569  0.44060  1.0000
  Fe  Fe19      1.0  0.45537  0.15052  0.35490  1.0000
  S   S40       1.0  0.49289  0.14233  0.33546  1.0000
  S   S41       1.0  0.44917  0.19258  0.34563  1.0000
  Fe  Fe20      1.0  0.45531  0.09200  0.33387  1.0000
  S   S42       1.0  0.45427  0.05783  0.29662  1.0000
  Fe  Fe21      1.0  0.49867  0.13179  0.38837  1.0000
  S   S43       1.0  0.41724  0.10052  0.34962  1.0000
  S   S44       1.0  0.46417  0.14358  0.40838  1.0000
  C   C93       1.0  0.45555  0.21564  0.30953  1.0000
  C   C94       1.0  0.46066  0.20691  0.27835  1.0000
  C   C95       1.0  0.46390  0.22526  0.25017  1.0000
  C   C96       1.0  0.46203  0.25244  0.25282  1.0000
  C   C97       1.0  0.45775  0.26162  0.28410  1.0000
  C   C98       1.0  0.45432  0.24319  0.31222  1.0000
  H   H153      1.0  0.46165  0.18579  0.27589  1.0000
  H   H154      1.0  0.46738  0.21803  0.22610  1.0000
  H   H155      1.0  0.45683  0.28275  0.28664  1.0000
  H   H156      1.0  0.45068  0.25027  0.33630  1.0000
  S   S45       1.0  0.47654  0.35256  0.17919  1.0000
  C   C99       1.0  0.38660  0.25953  0.29689  1.0000
  C   C100      1.0  0.34668  0.20584  0.30231  1.0000
  C   C101      1.0  0.46368  0.45232  0.06214  1.0000
  N   N10       1.0  0.48128  0.49760  0.39484  1.0000
  H   H157      1.0  0.37451  0.26791  0.31331  1.0000
  H   H158      1.0  0.40076  0.35152  0.04420  1.0000
  S   S46       1.0  0.31925  0.42224  0.49071  1.0000
  H   H159      1.0  0.39653  0.24134  0.23843  1.0000
  H   H160      1.0  0.32983  0.18417  0.28933  1.0000
  C   C102      1.0  0.39279  0.03654  0.46624  1.0000
  C   C103      1.0  0.39928  0.04583  0.26814  1.0000
  Fe  Fe22      1.0  0.40786  0.33336  0.23661  1.0000
  H   H161      1.0  0.33064  0.24564  0.27549  1.0000
  H   H162      1.0  0.36568  0.20172  0.24051  1.0000
  H   H163      1.0  0.40147  0.06539  0.28196  1.0000
  C   C104      1.0  0.38159  0.22212  0.25579  1.0000
  N   N11       1.0  0.36457  0.23136  0.27853  1.0000
  H   H164      1.0  0.40229  0.25519  0.31265  1.0000
  H   H165      1.0  0.45451  0.01861  0.06259  1.0000
  H   H166      1.0  0.39676  0.21561  0.26966  1.0000
  C   C105      1.0  0.34344  0.23800  0.25919  1.0000
  H   H167      1.0  0.33364  0.21210  0.31990  1.0000
  C   C106      1.0  0.27426  0.35085  0.35087  1.0000
  H   H168      1.0  0.36207  0.20033  0.31728  1.0000
  H   H169      1.0  0.32630  0.21731  0.24509  1.0000
  H   H170      1.0  0.35629  0.25717  0.24103  1.0000
  H   H171      1.0  0.33652  0.31813  0.33191  1.0000
  H   H172      1.0  0.43638  0.49222  0.40208  1.0000
  C   C107      1.0  0.42217  0.03773  0.27047  1.0000
  C   C108      1.0  0.44138  0.46325  0.01450  1.0000
  H   H173      1.0  0.32072  0.37249  0.30626  1.0000
  H   H174      1.0  0.44153  0.43079  0.06791  1.0000
  H   H175      1.0  0.44195  0.46324  0.42200  1.0000
  C   C109      1.0  0.40874  0.02134  0.45729  1.0000
  S   S47       1.0  0.41946  0.34796  0.11055  1.0000
  S   S48       1.0  0.45242  0.33988  0.25640  1.0000
  C   C110      1.0  0.43998  0.48389  0.06801  1.0000
  H   H176      1.0  0.28425  0.35232  0.28537  1.0000
  Fe  Fe23      1.0  0.43002  0.34594  0.16522  1.0000
  H   H177      1.0  0.27940  0.44814  0.37405  1.0000
  C   C111      1.0  0.35593  0.34126  0.32806  1.0000
  H   H178      1.0  0.50267  0.49895  0.02192  1.0000
  H   H179      1.0  0.35598  0.03510  0.24543  1.0000
  C   C112      1.0  0.47207  0.47970  0.36364  1.0000
  Fe  Fe24      1.0  0.30317  0.41248  0.43756  1.0000
  S   S49       1.0  0.34701  0.45306  0.41808  1.0000
  S   S50       1.0  0.39578  0.50369  0.49816  1.0000
  S   S51       1.0  0.38442  0.42842  0.46601  1.0000
  S   S52       1.0  0.35568  0.41971  0.04771  1.0000
  Fe  Fe25      1.0  0.36450  0.45957  0.47042  1.0000
  C   C113      1.0  0.45367  0.48839  0.41544  1.0000
  Fe  Fe26      1.0  0.36353  0.41876  0.41522  1.0000
  S   S53       1.0  0.39421  0.42604  0.37166  1.0000
  H   H180      1.0  0.51030  0.50418  0.43693  1.0000
  S   S54       1.0  0.31887  0.37746  0.43158  1.0000
  H   H181      1.0  0.49217  0.48633  0.34712  1.0000
  Fe  Fe27      1.0  0.47460  0.38058  0.22139  1.0000
  S   S55       1.0  0.42982  0.37691  0.20546  1.0000
  C   C114      1.0  0.37162  0.39800  0.06506  1.0000
  H   H182      1.0  0.37048  0.04064  0.03204  1.0000
  C   C115      1.0  0.37997  0.38040  0.04531  1.0000
  C   C116      1.0  0.37557  0.34724  0.30089  1.0000
  C   C117      1.0  0.37755  0.39981  0.09933  1.0000
  Fe  Fe28      1.0  0.33844  0.39044  0.48342  1.0000
  H   H183      1.0  0.37116  0.41334  0.11483  1.0000
  C   C118      1.0  0.38669  0.39507  0.34532  1.0000
  C   C119      1.0  0.40625  0.40091  0.31825  1.0000
  C   C120      1.0  0.40086  0.37703  0.29626  1.0000
  C   C121      1.0  0.36166  0.36514  0.35049  1.0000
  H   H184      1.0  0.42566  0.42399  0.31413  1.0000
  H   H185      1.0  0.41623  0.38181  0.27555  1.0000
  H   H186      1.0  0.34690  0.36040  0.37176  1.0000
  C   C122      1.0  0.37136  0.02145  0.02071  1.0000
  H   H187      1.0  0.51361  0.05273  0.37256  1.0000
  H   H188      1.0  0.49228  0.46592  0.41930  1.0000
  C   C123      1.0  0.37362  0.02875  0.24743  1.0000
  H   H189      1.0  0.39630  0.38598  0.14011  1.0000
  N   N12       1.0  0.45836  0.47592  0.04584  1.0000
  C   C124      1.0  0.30688  0.40642  0.34620  1.0000
  C   C125      1.0  0.40032  0.36686  0.09396  1.0000
  H   H190      1.0  0.40058  0.03461  0.34572  1.0000
  H   H191      1.0  0.51489  0.05414  0.28056  1.0000
  H   H192      1.0  0.37556  0.37877  0.01891  1.0000
  C   C126      1.0  0.39181  0.38432  0.11374  1.0000
  H   H193      1.0  0.47720  0.44541  0.04607  1.0000
  H   H194      1.0  0.30783  0.39384  0.28154  1.0000
  H   H195      1.0  0.51534  0.09478  0.31399  1.0000
  H   H196      1.0  0.35107  0.01884  0.31738  1.0000
  H   H197      1.0  0.46098  0.45425  0.36852  1.0000
  H   H198      1.0  0.31480  0.42752  0.33046  1.0000
  C   C127      1.0  0.48828  0.50413  0.03871  1.0000
  C   C128      1.0  0.51316  0.04534  0.34643  1.0000
  H   H199      1.0  0.47636  0.46095  0.08596  1.0000
  C   C129      1.0  0.39428  0.36498  0.05971  1.0000
  H   H200      1.0  0.45498  0.48337  0.34961  1.0000
  S   S56       1.0  0.51504  0.42447  0.24164  1.0000
  H   H201      1.0  0.42273  0.02842  0.43516  1.0000
  H   H202      1.0  0.32769  0.40551  0.35414  1.0000
  C   C130      1.0  0.37469  0.02698  0.49516  1.0000
  C   C131      1.0  0.50300  0.49111  0.41317  1.0000
  H   H203      1.0  0.29385  0.34798  0.35919  1.0000
  N   N13       1.0  0.28475  0.37790  0.32843  1.0000
  H   H204      1.0  0.49042  0.03965  0.33581  1.0000
  H   H205      1.0  0.41853  0.44218  0.01906  1.0000
  C   C132      1.0  0.30001  0.37393  0.29910  1.0000
  H   H206      1.0  0.43487  0.50106  0.05626  1.0000
  H   H207      1.0  0.45957  0.50184  0.43893  1.0000
  H   H208      1.0  0.50176  0.51438  0.06179  1.0000
  H   H209      1.0  0.35768  0.03252  0.37750  1.0000
  H   H210      1.0  0.51432  0.02360  0.34696  1.0000
  C   C133      1.0  0.36253  0.10729  0.91356  1.0000
  S   S57       1.0  0.38761  0.29363  0.69497  1.0000
  H   H211      1.0  0.29774  0.48032  0.93542  1.0000
  S   S58       1.0  0.46151  0.32108  0.69046  1.0000
  C   C134      1.0  0.40679  0.47954  0.59295  1.0000
  H   H212      1.0  0.27438  0.50123  0.85645  1.0000
  Fe  Fe29      1.0  0.42275  0.28589  0.72221  1.0000
  S   S59       1.0  0.42271  0.23993  0.72677  1.0000
  H   H213      1.0  0.40867  0.46046  0.53236  1.0000
  Fe  Fe30      1.0  0.41670  0.07396  0.91622  1.0000
  S   S60       1.0  0.45015  0.06052  0.89718  1.0000
  S   S61       1.0  0.38827  0.05747  0.96398  1.0000
  Fe  Fe31      1.0  0.43683  0.12687  0.86387  1.0000
  S   S62       1.0  0.47264  0.11757  0.84140  1.0000
  S   S63       1.0  0.42763  0.16740  0.85655  1.0000
  Fe  Fe32      1.0  0.43575  0.06709  0.84632  1.0000
  S   S64       1.0  0.43033  0.31984  0.76269  1.0000
  Fe  Fe33      1.0  0.48451  0.11138  0.89362  1.0000
  S   S65       1.0  0.39899  0.07640  0.86535  1.0000
  S   S66       1.0  0.45217  0.12475  0.91592  1.0000
  C   C135      1.0  0.42648  0.18714  0.81999  1.0000
  C   C136      1.0  0.43064  0.17867  0.78824  1.0000
  C   C137      1.0  0.42913  0.19488  0.76007  1.0000
  C   C138      1.0  0.42361  0.21985  0.76319  1.0000
  C   C139      1.0  0.41949  0.22833  0.79496  1.0000
  C   C140      1.0  0.42098  0.21212  0.82310  1.0000
  H   H214      1.0  0.43479  0.15947  0.78534  1.0000
  H   H215      1.0  0.43224  0.18795  0.73568  1.0000
  H   H216      1.0  0.41475  0.24713  0.79789  1.0000
  H   H217      1.0  0.41760  0.21885  0.84748  1.0000
  S   S67       1.0  0.43303  0.03117  0.81040  1.0000
  H   H218      1.0  0.38468  0.27289  0.58054  1.0000
  Fe  Fe34      1.0  0.42721  0.33195  0.66693  1.0000
  N   N14       1.0  0.40170  0.24735  0.60808  1.0000
  H   H219      1.0  0.35610  0.24130  0.60527  1.0000
  H   H220      1.0  0.49110  0.32823  0.78573  1.0000
  C   C141      1.0  0.40930  0.02042  0.77505  1.0000
  C   C142      1.0  0.40995  0.35986  0.55681  1.0000
  C   C143      1.0  0.40138  0.14355  0.95115  1.0000
  C   C144      1.0  0.34855  0.11318  0.96902  1.0000
  H   H221      1.0  0.37777  0.31560  0.80806  1.0000
  H   H222      1.0  0.41206  0.22203  0.64453  1.0000
  C   C145      1.0  0.43401  0.27301  0.60600  1.0000
  S   S68       1.0  0.51458  0.38637  0.75159  1.0000
  H   H223      1.0  0.40705  0.16054  0.97153  1.0000
  H   H224      1.0  0.37754  0.11886  0.89173  1.0000
  S   S69       1.0  0.34890  0.35370  0.90498  1.0000
  C   C146      1.0  0.37001  0.02169  0.74079  1.0000
  H   H225      1.0  0.37146  0.20515  0.58210  1.0000
  H   H226      1.0  0.39949  0.23604  0.55644  1.0000
  H   H227      1.0  0.37843  0.16708  0.90701  1.0000
  C   C147      1.0  0.38072  0.25998  0.60437  1.0000
  H   H228      1.0  0.28461  0.31559  0.92494  1.0000
  H   H229      1.0  0.37208  0.32078  0.86841  1.0000
  H   H230      1.0  0.32381  0.10225  0.96202  1.0000
  C   C148      1.0  0.35130  0.34018  0.58195  1.0000
  H   H231      1.0  0.50848  0.40582  0.68547  1.0000
  S   S70       1.0  0.42970  0.34098  0.61119  1.0000
  H   H232      1.0  0.36673  0.32648  0.62572  1.0000
  H   H233      1.0  0.38436  0.27673  0.62442  1.0000
  H   H234      1.0  0.29677  0.35837  0.88590  1.0000
  H   H235      1.0  0.43857  0.28621  0.58229  1.0000
  C   C149      1.0  0.36326  0.15447  0.92857  1.0000
  C   C150      1.0  0.36982  0.33087  0.81676  1.0000
  H   H236      1.0  0.40091  0.24803  0.66137  1.0000
  C   C151      1.0  0.39566  0.22484  0.58131  1.0000
  H   H237      1.0  0.40979  0.49670  0.57327  1.0000
  H   H238      1.0  0.45055  0.26439  0.60799  1.0000
  H   H239      1.0  0.40546  0.50921  0.98166  1.0000
  H   H240      1.0  0.43949  0.29006  0.62627  1.0000
  H   H241      1.0  0.29659  0.45753  0.88143  1.0000
  H   H242      1.0  0.41109  0.21483  0.58336  1.0000
  H   H243      1.0  0.36212  0.03846  0.50220  1.0000
  H   H244      1.0  0.37233  0.21218  0.64329  1.0000
  Fe  Fe35      1.0  0.34526  0.41932  0.99269  1.0000
  C   C152      1.0  0.39647  0.23165  0.64063  1.0000
  N   N15       1.0  0.36889  0.12964  0.94060  1.0000
  H   H245      1.0  0.34451  0.37843  0.78784  1.0000
  C   C153      1.0  0.48841  0.30478  0.78910  1.0000
  C   C154      1.0  0.35901  0.35392  0.55025  1.0000
  H   H246      1.0  0.35948  0.45790  0.55005  1.0000
  H   H247      1.0  0.41741  0.15611  0.93025  1.0000
  H   H248      1.0  0.34292  0.41752  0.56068  1.0000
  C   C155      1.0  0.31336  0.48104  0.87174  1.0000
  H   H249      1.0  0.36998  0.40074  0.59895  1.0000
  H   H250      1.0  0.46620  0.28776  0.77740  1.0000
  H   H251      1.0  0.33823  0.09627  0.90496  1.0000
  C   C156      1.0  0.36653  0.33380  0.85088  1.0000
  C   C157      1.0  0.49963  0.02880  0.85564  1.0000
  H   H252      1.0  0.40647  0.12542  0.96032  1.0000
  H   H253      1.0  0.38749  0.04703  0.78665  1.0000
  Fe  Fe36      1.0  0.46744  0.35531  0.72952  1.0000
  H   H254      1.0  0.26976  0.35488  0.85474  1.0000
  H   H255      1.0  0.36802  0.17193  0.94821  1.0000
  C   C158      1.0  0.37297  0.33690  0.60129  1.0000
  H   H256      1.0  0.48642  0.29974  0.81616  1.0000
  H   H257      1.0  0.39467  0.37405  0.51327  1.0000
  Fe  Fe37      1.0  0.39883  0.33076  0.73310  1.0000
  H   H258      1.0  0.35281  0.12924  0.99004  1.0000
  C   C159      1.0  0.35588  0.35325  0.86237  1.0000
  H   H259      1.0  0.33899  0.14486  0.92026  1.0000
  H   H260      1.0  0.37302  0.42805  0.62957  1.0000
  H   H261      1.0  0.49262  0.28936  0.72648  1.0000
  C   C160      1.0  0.40237  0.34655  0.58871  1.0000
  H   H262      1.0  0.47560  0.02077  0.84735  1.0000
  Fe  Fe38      1.0  0.29829  0.41548  0.93949  1.0000
  S   S71       1.0  0.33139  0.42474  0.89793  1.0000
  C   C161      1.0  0.27909  0.50061  0.88336  1.0000
  S   S72       1.0  0.38167  0.42994  0.95459  1.0000
  C   C162      1.0  0.40396  0.44299  0.55218  1.0000
  Fe  Fe39      1.0  0.36663  0.46127  0.93154  1.0000
  H   H263      1.0  0.49534  0.07304  0.81913  1.0000
  Fe  Fe40      1.0  0.34296  0.39241  0.92520  1.0000
  C   C163      1.0  0.35752  0.44163  0.57023  1.0000
  S   S73       1.0  0.33317  0.45397  0.97182  1.0000
  S   S74       1.0  0.30692  0.37987  0.96460  1.0000
  C   C164      1.0  0.38852  0.36380  0.53777  1.0000
  H   H264      1.0  0.43256  0.36715  0.54676  1.0000
  S   S75       1.0  0.43676  0.36942  0.70361  1.0000
  H   H265      1.0  0.34484  0.44463  0.59110  1.0000
  H   H266      1.0  0.33837  0.50690  0.93027  1.0000
  H   H267      1.0  0.35250  0.09429  0.97836  1.0000
  H   H268      1.0  0.40702  0.42812  0.61538  1.0000
  C   C165      1.0  0.36157  0.34671  0.79400  1.0000
  H   H269      1.0  0.43018  0.48469  0.60079  1.0000
  H   H270      1.0  0.49436  0.03041  0.78955  1.0000
  S   S76       1.0  0.33113  0.35853  0.52760  1.0000
  C   C166      1.0  0.38444  0.42518  0.60738  1.0000
  C   C167      1.0  0.31502  0.50344  0.92508  1.0000
  C   C168      1.0  0.34851  0.36983  0.83962  1.0000
  S   S77       1.0  0.39808  0.50897  0.91053  1.0000
  H   H271      1.0  0.34048  0.38503  0.84817  1.0000
  H   H272      1.0  0.38957  0.41968  0.54097  1.0000
  H   H273      1.0  0.32850  0.33234  0.59178  1.0000
  H   H274      1.0  0.51913  0.01893  0.53856  1.0000
  H   H275      1.0  0.36673  0.08833  0.92166  1.0000
  N   N16       1.0  0.38818  0.44734  0.58074  1.0000
  C   C169      1.0  0.35085  0.36613  0.80547  1.0000
  S   S78       1.0  0.36249  0.34106  0.75118  1.0000
  H   H276      1.0  0.39562  0.48371  0.61454  1.0000
  H   H277      1.0  0.29377  0.30939  0.86671  1.0000
  H   H278      1.0  0.42634  0.44512  0.55950  1.0000
  C   C170      1.0  0.38036  0.02376  0.98731  1.0000
  H   H279      1.0  0.47822  0.03140  0.55282  1.0000
  N   N17       1.0  0.31028  0.50536  0.88915  1.0000
  C   C171      1.0  0.38885  0.03132  0.76924  1.0000
  H   H280      1.0  0.48911  0.25333  0.77067  1.0000
  H   H281      1.0  0.51025  0.26791  0.80849  1.0000
  C   C172      1.0  0.27182  0.34794  0.88048  1.0000
  N   N18       1.0  0.51441  0.30317  0.77422  1.0000
  H   H282      1.0  0.33693  0.48441  0.87496  1.0000
  H   H283      1.0  0.35418  0.03008  0.73631  1.0000
  H   H284      1.0  0.45425  0.45652  0.99723  1.0000
  C   C173      1.0  0.51094  0.27238  0.78134  1.0000
  H   H285      1.0  0.50210  0.03863  0.88097  1.0000
  H   H286      1.0  0.51690  0.33063  0.73175  1.0000
  C   C174      1.0  0.51447  0.30764  0.73796  1.0000
  H   H287      1.0  0.51790  0.08835  0.85577  1.0000
  H   H288      1.0  0.30912  0.48113  0.84466  1.0000
  H   H289      1.0  0.51903  0.50660  0.78108  1.0000
  C   C175      1.0  0.51807  0.03837  0.79914  1.0000
  C   C176      1.0  0.51781  0.07921  0.83068  1.0000
  H   H290      1.0  0.50239  0.01742  0.59754  1.0000
  H   H291      1.0  0.43705  0.48043  0.00141  1.0000
  C   C177      1.0  0.48530  0.88024  0.25389  1.0000
  C   C178      1.0  0.42665  0.53183  0.47440  1.0000
  H   H292      1.0  0.29258  0.85011  0.04978  1.0000
  C   C179      1.0  0.47999  0.57399  0.47090  1.0000
  C   C180      1.0  0.47620  0.57763  0.43712  1.0000
  C   C181      1.0  0.44772  0.55811  0.42197  1.0000
  C   C182      1.0  0.42312  0.53502  0.44046  1.0000
  H   H293      1.0  0.44462  0.56086  0.39586  1.0000
  C   C183      1.0  0.36332  0.99446  0.03960  1.0000
  H   H294      1.0  0.42689  0.99129  0.03398  1.0000
  H   H295      1.0  0.45218  0.68142  0.47831  1.0000
  H   H296      1.0  0.48031  0.53715  0.37438  1.0000
  H   H297      1.0  0.48026  0.71257  0.45296  1.0000
  H   H298      1.0  0.47132  0.65380  0.06702  1.0000
  H   H299      1.0  0.41329  0.93595  0.03629  1.0000
  H   H300      1.0  0.29124  0.86259  0.09094  1.0000
  N   N19       1.0  0.49244  0.67844  0.46710  1.0000
  H   H301      1.0  0.43445  0.92425  0.06315  1.0000
  C   C184      1.0  0.45509  0.55146  0.48961  1.0000
  H   H302      1.0  0.40300  0.01006  0.37678  1.0000
  C   C185      1.0  0.34686  0.96017  0.36488  1.0000
  H   H303      1.0  0.45626  0.67468  0.43537  1.0000
  H   H304      1.0  0.40735  0.93391  0.08016  1.0000
  H   H305      1.0  0.45980  0.63744  0.49393  1.0000
  C   C186      1.0  0.39167  0.00996  0.35299  1.0000
  Fe  Fe41      1.0  0.31042  0.87724  0.15646  1.0000
  S   S79       1.0  0.34284  0.90546  0.19756  1.0000
  Fe  Fe42      1.0  0.34791  0.92746  0.10332  1.0000
  S   S80       1.0  0.38257  0.95951  0.14030  1.0000
  S   S81       1.0  0.35207  0.93392  0.04713  1.0000
  Fe  Fe43      1.0  0.38120  0.91696  0.16116  1.0000
  S   S82       1.0  0.42775  0.92419  0.17660  1.0000
  Fe  Fe44      1.0  0.34213  0.94599  0.17376  1.0000
  S   S83       1.0  0.33835  0.98186  0.20392  1.0000
  S   S84       1.0  0.34930  0.88538  0.12197  1.0000
  S   S85       1.0  0.30710  0.91740  0.13497  1.0000
  H   H306      1.0  0.50198  0.58862  0.48274  1.0000
  H   H307      1.0  0.47154  0.62825  0.03579  1.0000
  H   H308      1.0  0.46469  0.63098  0.45107  1.0000
  C   C187      1.0  0.42524  0.94038  0.06067  1.0000
  N   N20       1.0  0.35774  0.99296  0.35613  1.0000
  H   H309      1.0  0.44876  0.54414  0.01854  1.0000
  H   H310      1.0  0.45223  0.64982  0.02797  1.0000
  H   H311      1.0  0.44673  0.97182  0.11707  1.0000
  H   H312      1.0  0.50297  0.67380  0.41643  1.0000
  C   C188      1.0  0.48584  0.86781  0.19621  1.0000
  C   C189      1.0  0.44907  0.91487  0.14923  1.0000
  C   C190      1.0  0.43472  0.89261  0.12444  1.0000
  C   C191      1.0  0.45234  0.88438  0.10437  1.0000
  C   C192      1.0  0.48428  0.89821  0.10915  1.0000
  C   C193      1.0  0.49873  0.92117  0.13327  1.0000
  C   C194      1.0  0.48114  0.92956  0.15312  1.0000
  H   H313      1.0  0.40999  0.88115  0.12128  1.0000
  H   H314      1.0  0.44110  0.86670  0.08560  1.0000
  H   H315      1.0  0.50013  0.87119  0.17377  1.0000
  H   H316      1.0  0.49239  0.94764  0.17145  1.0000
  C   C195      1.0  0.47287  0.65108  0.03985  1.0000
  C   C196      1.0  0.47366  0.98040  0.03818  1.0000
  H   H317      1.0  0.51684  0.53890  0.37096  1.0000
  H   H318      1.0  0.41788  0.98800  0.07721  1.0000
  H   H319      1.0  0.47163  0.84236  0.20078  1.0000
  H   H320      1.0  0.35318  0.94858  0.34542  1.0000
  H   H321      1.0  0.35094  0.98454  0.30363  1.0000
  C   C197      1.0  0.50912  0.69550  0.49723  1.0000
  H   H322      1.0  0.47051  0.85527  0.26058  1.0000
  C   C198      1.0  0.36341  0.96907  0.02500  1.0000
  H   H323      1.0  0.35638  0.99308  0.06521  1.0000
  H   H324      1.0  0.46976  0.88968  0.24843  1.0000
  H   H325      1.0  0.35785  0.00567  0.40704  1.0000
  H   H326      1.0  0.41777  0.98428  0.46902  1.0000
  C   C199      1.0  0.37082  0.00355  0.22914  1.0000
  H   H327      1.0  0.48412  0.96535  0.04094  1.0000
  N   N21       1.0  0.44995  0.97318  0.06379  1.0000
  C   C200      1.0  0.39378  0.99557  0.23152  1.0000
  H   H328      1.0  0.39181  0.97618  0.21751  1.0000
  H   H329      1.0  0.48227  0.00287  0.10075  1.0000
  H   H330      1.0  0.46367  0.97671  0.01278  1.0000
  H   H331      1.0  0.35710  0.95833  0.38875  1.0000
  S   S86       1.0  0.50906  0.59525  0.00558  1.0000
  H   H332      1.0  0.28198  0.90328  0.06721  1.0000
  C   C201      1.0  0.27687  0.84696  0.07072  1.0000
  C   C202      1.0  0.40595  0.99637  0.47661  1.0000
  H   H333      1.0  0.48298  0.70716  0.01969  1.0000
  C   C203      1.0  0.43680  0.99370  0.05924  1.0000
  C   C204      1.0  0.34865  0.00734  0.38243  1.0000
  H   H334      1.0  0.47514  0.96376  0.10069  1.0000
  H   H335      1.0  0.43707  0.00631  0.25375  1.0000
  H   H336      1.0  0.46981  0.87643  0.18992  1.0000
  S   S87       1.0  0.50651  0.60625  0.41307  1.0000
  H   H337      1.0  0.51033  0.92879  0.21358  1.0000
  C   C205      1.0  0.46922  0.68716  0.45803  1.0000
  C   C206      1.0  0.47693  0.64461  0.47352  1.0000
  N   N22       1.0  0.50169  0.67688  0.02599  1.0000
  H   H338      1.0  0.31823  0.98122  0.32537  1.0000
  C   C207      1.0  0.51454  0.68651  0.43953  1.0000
  C   C208      1.0  0.46415  0.97818  0.09702  1.0000
  C   C209      1.0  0.49637  0.53119  0.38720  1.0000
  H   H339      1.0  0.40117  0.52017  0.42862  1.0000
  H   H340      1.0  0.50273  0.71162  0.05842  1.0000
  H   H341      1.0  0.32317  0.99590  0.38483  1.0000
  H   H342      1.0  0.32134  0.94670  0.36772  1.0000
  H   H343      1.0  0.28242  0.88986  0.02644  1.0000
  H   H344      1.0  0.27352  0.83915  0.22918  1.0000
  H   H345      1.0  0.39949  0.99961  0.33361  1.0000
  S   S88       1.0  0.50541  0.88623  0.08474  1.0000
  C   C210      1.0  0.34385  0.99441  0.32427  1.0000
  C   C211      1.0  0.50286  0.70680  0.03152  1.0000
  H   H346      1.0  0.50439  0.54539  0.41018  1.0000
  H   H347      1.0  0.51169  0.84614  0.23973  1.0000
  H   H348      1.0  0.49929  0.89261  0.27608  1.0000
  N   N23       1.0  0.50524  0.88424  0.22522  1.0000
  H   H349      1.0  0.48514  0.52245  0.02638  1.0000
  H   H350      1.0  0.49264  0.00502  0.03974  1.0000
  C   C212      1.0  0.41940  0.01265  0.25209  1.0000
  H   H351      1.0  0.49381  0.63735  0.48068  1.0000
  C   C213      1.0  0.38796  0.98689  0.50562  1.0000
  C   C214      1.0  0.27380  0.82797  0.70085  1.0000
  H   H352      1.0  0.35755  0.54029  0.88065  1.0000
  C   C215      1.0  0.37263  0.00258  0.51505  1.0000
  C   C216      1.0  0.47850  0.57173  0.97866  1.0000
  C   C217      1.0  0.48103  0.57672  0.94438  1.0000
  C   C218      1.0  0.45614  0.55756  0.92358  1.0000
  H   H353      1.0  0.45814  0.56152  0.89707  1.0000
  C   C219      1.0  0.33378  0.53622  0.87650  1.0000
  H   H354      1.0  0.38797  0.00000  0.94732  1.0000
  C   C220      1.0  0.41096  0.00011  0.75234  1.0000
  H   H355      1.0  0.47194  0.88514  0.73249  1.0000
  H   H356      1.0  0.30195  0.89232  0.72993  1.0000
  C   C221      1.0  0.46117  0.00624  0.54996  1.0000
  H   H357      1.0  0.50759  0.87060  0.65964  1.0000
  C   C222      1.0  0.48741  0.87579  0.73876  1.0000
  H   H358      1.0  0.49681  0.97893  0.60011  1.0000
  H   H359      1.0  0.47613  0.87493  0.67374  1.0000
  C   C223      1.0  0.49184  0.86617  0.68100  1.0000
  H   H360      1.0  0.44118  0.94836  0.52921  1.0000
  H   H361      1.0  0.33103  0.53841  0.84940  1.0000
  Fe  Fe45      1.0  0.32437  0.88861  0.63047  1.0000
  S   S89       1.0  0.35295  0.91389  0.67477  1.0000
  Fe  Fe46      1.0  0.36784  0.94084  0.58170  1.0000
  S   S90       1.0  0.39861  0.96996  0.62309  1.0000
  S   S91       1.0  0.38466  0.95472  0.52839  1.0000
  Fe  Fe47      1.0  0.39398  0.92559  0.64263  1.0000
  S   S92       1.0  0.43841  0.93054  0.66234  1.0000
  Fe  Fe48      1.0  0.35523  0.95595  0.65134  1.0000
  S   S93       1.0  0.34773  0.98881  0.68292  1.0000
  S   S94       1.0  0.36547  0.89668  0.59992  1.0000
  S   S95       1.0  0.32423  0.93034  0.60836  1.0000
  C   C224      1.0  0.50751  0.92241  0.62175  1.0000
  H   H362      1.0  0.49986  0.88725  0.76202  1.0000
  H   H363      1.0  0.37268  0.95193  0.98006  1.0000
  C   C225      1.0  0.45088  0.95345  0.55477  1.0000
  H   H364      1.0  0.46047  0.93800  0.56002  1.0000
  C   C226      1.0  0.37253  0.97140  0.99166  1.0000
  H   H365      1.0  0.29453  0.92965  0.67289  1.0000
  H   H366      1.0  0.42678  0.99166  0.75666  1.0000
  C   C227      1.0  0.42650  0.52792  0.97117  1.0000
  C   C228      1.0  0.29940  0.91279  0.73543  1.0000
  C   C229      1.0  0.45876  0.91862  0.63676  1.0000
  C   C230      1.0  0.44365  0.89529  0.61317  1.0000
  C   C231      1.0  0.46043  0.88533  0.59412  1.0000
  C   C232      1.0  0.49232  0.89860  0.59865  1.0000
  H   H367      1.0  0.32080  0.93387  0.72678  1.0000
  C   C233      1.0  0.49072  0.93233  0.64078  1.0000
  H   H368      1.0  0.41896  0.88447  0.61002  1.0000
  H   H369      1.0  0.44860  0.86693  0.57620  1.0000
  H   H370      1.0  0.29841  0.91451  0.76283  1.0000
  H   H371      1.0  0.50255  0.95096  0.65843  1.0000
  H   H372      1.0  0.45799  0.54903  0.51584  1.0000
  H   H373      1.0  0.46600  0.98552  0.61097  1.0000
  C   C234      1.0  0.45104  0.54760  0.99201  1.0000
  H   H374      1.0  0.39421  0.97537  0.70638  1.0000
  C   C235      1.0  0.39241  0.99074  0.72388  1.0000
  N   N24       1.0  0.50923  0.88139  0.71151  1.0000
  H   H375      1.0  0.29799  0.84524  0.70264  1.0000
  H   H376      1.0  0.47255  0.85051  0.74398  1.0000
  H   H377      1.0  0.48306  0.67131  0.97671  1.0000
  H   H378      1.0  0.44099  0.00078  0.56589  1.0000
  C   C236      1.0  0.50287  0.67208  0.99003  1.0000
  N   N25       1.0  0.27175  0.91020  0.71918  1.0000
  H   H379      1.0  0.47755  0.84055  0.68417  1.0000
  H   H380      1.0  0.43116  0.94663  0.57197  1.0000
  H   H381      1.0  0.50212  0.59530  0.93385  1.0000
  H   H382      1.0  0.29025  0.95965  0.71865  1.0000
  C   C237      1.0  0.37182  0.00140  0.71806  1.0000
  N   N26       1.0  0.47455  0.98658  0.55859  1.0000
  H   H383      1.0  0.27724  0.88833  0.67601  1.0000
  C   C238      1.0  0.48544  0.99244  0.59331  1.0000
  H   H384      1.0  0.51546  0.84304  0.72550  1.0000
  S   S96       1.0  0.27826  0.84310  0.63370  1.0000
  H   H385      1.0  0.35857  0.99544  0.53719  1.0000
  H   H386      1.0  0.50238  0.00803  0.85770  1.0000
  C   C239      1.0  0.27433  0.90830  0.68290  1.0000
  H   H387      1.0  0.33226  0.55522  0.88914  1.0000
  C   C240      1.0  0.42897  0.53291  0.93689  1.0000
  H   H388      1.0  0.51430  0.92619  0.70137  1.0000
  C   C241      1.0  0.38132  0.99870  0.97303  1.0000
  H   H389      1.0  0.50233  0.64981  0.98497  1.0000
  S   S97       1.0  0.51245  0.88464  0.57559  1.0000
  C   C242      1.0  0.50075  0.99412  0.53631  1.0000
  H   H390      1.0  0.45280  0.00247  0.52388  1.0000
  H   H391      1.0  0.49329  0.68998  0.51866  1.0000
  H   H392      1.0  0.51134  0.97959  0.54212  1.0000
  H   H393      1.0  0.49325  0.98988  0.50992  1.0000
  H   H394      1.0  0.31281  0.52138  0.93913  1.0000
  H   H395      1.0  0.27597  0.51871  0.89588  1.0000
  Fe  Fe49      1.0  0.66740  0.07752  0.40624  1.0000
  S   S98       1.0  0.70918  0.07663  0.38785  1.0000
  H   H396      1.0  0.70683  0.51509  0.16959  1.0000
  Fe  Fe50      1.0  0.67551  0.12771  0.35833  1.0000
  S   S99       1.0  0.71796  0.13102  0.33616  1.0000
  S   S100      1.0  0.65800  0.15868  0.33929  1.0000
  Fe  Fe51      1.0  0.69130  0.07862  0.33684  1.0000
  S   S101      1.0  0.69585  0.05588  0.28979  1.0000
  Fe  Fe52      1.0  0.73200  0.12897  0.38868  1.0000
  S   S102      1.0  0.64779  0.07577  0.35548  1.0000
  S   S103      1.0  0.69138  0.12957  0.41064  1.0000
  C   C243      1.0  0.69886  0.47433  0.12247  1.0000
  C   C244      1.0  0.62684  0.15607  0.36172  1.0000
  C   C245      1.0  0.60934  0.16823  0.34812  1.0000
  C   C246      1.0  0.58337  0.16487  0.36499  1.0000
  C   C247      1.0  0.57518  0.14975  0.39576  1.0000
  C   C248      1.0  0.59337  0.13862  0.40984  1.0000
  C   C249      1.0  0.61893  0.14140  0.39269  1.0000
  H   H397      1.0  0.61549  0.17973  0.32422  1.0000
  H   H398      1.0  0.56960  0.17385  0.35423  1.0000
  H   H399      1.0  0.58720  0.12708  0.43374  1.0000
  H   H400      1.0  0.63224  0.13189  0.40336  1.0000
  C   C250      1.0  0.56849  0.07687  0.34198  1.0000
  H   H401      1.0  0.58845  0.09584  0.32837  1.0000
  N   N27       1.0  0.53879  0.07000  0.32700  1.0000
  H   H402      1.0  0.76271  0.10932  0.02404  1.0000
  C   C251      1.0  0.70060  0.11800  0.00962  1.0000
  H   H403      1.0  0.68198  0.03135  0.44434  1.0000
  C   C252      1.0  0.58171  0.38207  0.23873  1.0000
  H   H404      1.0  0.67673  0.47164  0.13174  1.0000
  H   H405      1.0  0.71921  0.20127  0.43056  1.0000
  C   C253      1.0  0.75518  0.08758  0.47036  1.0000
  H   H406      1.0  0.69487  0.46557  0.09657  1.0000
  H   H407      1.0  0.70006  0.07874  0.05696  1.0000
  H   H408      1.0  0.53909  0.03827  0.29125  1.0000
  C   C254      1.0  0.76184  0.25513  0.40273  1.0000
  H   H409      1.0  0.56036  0.32815  0.27300  1.0000
  H   H410      1.0  0.56281  0.34695  0.18331  1.0000
  C   C255      1.0  0.53630  0.09834  0.32719  1.0000
  H   H411      1.0  0.62215  0.50750  0.22884  1.0000
  C   C256      1.0  0.52757  0.35376  0.25190  1.0000
  H   H412      1.0  0.73494  0.12722  0.45752  1.0000
  S   S104      1.0  0.63595  0.05045  0.44855  1.0000
  C   C257      1.0  0.55018  0.44428  0.21977  1.0000
  H   H413      1.0  0.70331  0.09053  0.47084  1.0000
  H   H414      1.0  0.75761  0.18715  0.45224  1.0000
  H   H415      1.0  0.57146  0.05616  0.34192  1.0000
  S   S105      1.0  0.54205  0.14372  0.41690  1.0000
  N   N28       1.0  0.72395  0.50708  0.12417  1.0000
  C   C258      1.0  0.72189  0.24254  0.36198  1.0000
  H   H416      1.0  0.54293  0.36830  0.18764  1.0000
  C   C259      1.0  0.66850  0.02143  0.46652  1.0000
  H   H417      1.0  0.57387  0.32454  0.23290  1.0000
  H   H418      1.0  0.73561  0.50414  0.17501  1.0000
  H   H419      1.0  0.70418  0.45899  0.13787  1.0000
  C   C260      1.0  0.74326  0.20897  0.36941  1.0000
  H   H420      1.0  0.75065  0.50281  0.08503  1.0000
  C   C261      1.0  0.70137  0.07293  0.03064  1.0000
  H   H421      1.0  0.52395  0.37273  0.24244  1.0000
  H   H422      1.0  0.68965  0.19195  0.40015  1.0000
  H   H423      1.0  0.60098  0.38235  0.22490  1.0000
  H   H424      1.0  0.55638  0.11816  0.31479  1.0000
  H   H425      1.0  0.69796  0.12483  0.03509  1.0000
  C   C262      1.0  0.66756  0.02228  0.26848  1.0000
  H   H426      1.0  0.73471  0.06553  0.46220  1.0000
  H   H427      1.0  0.71279  0.05868  0.03020  1.0000
  H   H428      1.0  0.53507  0.41405  0.17741  1.0000
  N   N29       1.0  0.73443  0.22955  0.38647  1.0000
  H   H429      1.0  0.70321  0.22618  0.42490  1.0000
  H   H430      1.0  0.72323  0.18991  0.35622  1.0000
  H   H431      1.0  0.57020  0.08448  0.36817  1.0000
  H   H432      1.0  0.73905  0.25601  0.34233  1.0000
  C   C263      1.0  0.55524  0.32614  0.24596  1.0000
  N   N30       1.0  0.55241  0.35264  0.23361  1.0000
  H   H433      1.0  0.58818  0.38586  0.26543  1.0000
  C   C264      1.0  0.60726  0.47707  0.18661  1.0000
  C   C265      1.0  0.60329  0.48713  0.21752  1.0000
  C   C266      1.0  0.57490  0.47073  0.23405  1.0000
  H   H434      1.0  0.55608  0.07784  0.27714  1.0000
  C   C267      1.0  0.55412  0.43407  0.18889  1.0000
  C   C268      1.0  0.58270  0.45030  0.17248  1.0000
  S   S106      1.0  0.64279  0.49755  0.16552  1.0000
  H   H435      1.0  0.57206  0.47871  0.25797  1.0000
  H   H436      1.0  0.69608  0.03242  0.22511  1.0000
  H   H437      1.0  0.58556  0.44252  0.14847  1.0000
  H   H438      1.0  0.57991  0.40245  0.23009  1.0000
  C   C269      1.0  0.54487  0.34853  0.19787  1.0000
  H   H439      1.0  0.52413  0.49780  0.39837  1.0000
  C   C270      1.0  0.53716  0.05956  0.29245  1.0000
  C   C271      1.0  0.71063  0.21148  0.41166  1.0000
  H   H440      1.0  0.67726  0.05783  0.02190  1.0000
  C   C272      1.0  0.64401  0.02634  0.47362  1.0000
  H   H441      1.0  0.53481  0.10540  0.35290  1.0000
  H   H442      1.0  0.53337  0.30364  0.24211  1.0000
  N   N31       1.0  0.71792  0.10120  0.00986  1.0000
  H   H443      1.0  0.74823  0.12887  0.04923  1.0000
  N   N32       1.0  0.74663  0.10402  0.49476  1.0000
  H   H444      1.0  0.71495  0.25818  0.37394  1.0000
  C   C273      1.0  0.75284  0.50985  0.11149  1.0000
  H   H445      1.0  0.75214  0.19806  0.38712  1.0000
  H   H446      1.0  0.75965  0.49517  0.12600  1.0000
  H   H447      1.0  0.76240  0.14290  0.00825  1.0000
  H   H448      1.0  0.53282  0.35788  0.27883  1.0000
  H   H449      1.0  0.71724  0.12390  0.49709  1.0000
  H   H450      1.0  0.76160  0.22184  0.35063  1.0000
  H   H451      1.0  0.70106  0.22376  0.34941  1.0000
  C   C274      1.0  0.74915  0.12144  0.02349  1.0000
  H   H452      1.0  0.75602  0.27098  0.41618  1.0000
  H   H453      1.0  0.76568  0.10205  0.44772  1.0000
  C   C275      1.0  0.72455  0.11177  0.47941  1.0000
  H   H454      1.0  0.52248  0.32688  0.19319  1.0000
  Fe  Fe53      1.0  0.66185  0.06678  0.90660  1.0000
  S   S107      1.0  0.70470  0.06821  0.88767  1.0000
  H   H455      1.0  0.52147  0.01793  0.79944  1.0000
  Fe  Fe54      1.0  0.66807  0.11754  0.86093  1.0000
  S   S108      1.0  0.71125  0.12323  0.83828  1.0000
  S   S109      1.0  0.64900  0.14730  0.84231  1.0000
  Fe  Fe55      1.0  0.68673  0.07098  0.83699  1.0000
  S   S110      1.0  0.69416  0.05182  0.78878  1.0000
  Fe  Fe56      1.0  0.72575  0.12034  0.89029  1.0000
  S   S111      1.0  0.64230  0.06573  0.85596  1.0000
  S   S112      1.0  0.68418  0.11854  0.91305  1.0000
  C   C276      1.0  0.55388  0.06222  0.84453  1.0000
  C   C277      1.0  0.61608  0.14171  0.86367  1.0000
  C   C278      1.0  0.59650  0.15089  0.84898  1.0000
  C   C279      1.0  0.56985  0.14610  0.86560  1.0000
  C   C280      1.0  0.56300  0.13253  0.89719  1.0000
  C   C281      1.0  0.58294  0.12397  0.91209  1.0000
  C   C282      1.0  0.60914  0.12808  0.89519  1.0000
  H   H456      1.0  0.60189  0.16161  0.82466  1.0000
  H   H457      1.0  0.54363  0.50950  0.81506  1.0000
  H   H458      1.0  0.57785  0.11369  0.93663  1.0000
  H   H459      1.0  0.62408  0.12093  0.90672  1.0000
  H   H460      1.0  0.55846  0.04255  0.84566  1.0000
  H   H461      1.0  0.55482  0.15323  0.85421  1.0000
  S   S113      1.0  0.60581  0.50101  0.66237  1.0000
  H   H462      1.0  0.53024  0.27031  0.77066  1.0000
  C   C283      1.0  0.76026  0.20470  0.83479  1.0000
  H   H463      1.0  0.53385  0.30670  0.72582  1.0000
  C   C284      1.0  0.73220  0.08387  0.52404  1.0000
  H   H464      1.0  0.72610  0.09588  0.54321  1.0000
  H   H465      1.0  0.72183  0.22769  0.83663  1.0000
  H   H466      1.0  0.67701  0.10331  0.99908  1.0000
  C   C285      1.0  0.72046  0.09237  0.97559  1.0000
  H   H467      1.0  0.75105  0.17564  0.95651  1.0000
  H   H468      1.0  0.73394  0.11319  0.95955  1.0000
  H   H469      1.0  0.71050  0.06228  0.51730  1.0000
  H   H470      1.0  0.74037  0.25382  0.87056  1.0000
  H   H471      1.0  0.53006  0.47764  0.78652  1.0000
  H   H472      1.0  0.76902  0.14666  0.52249  1.0000
  H   H473      1.0  0.54428  0.32547  0.81578  1.0000
  H   H474      1.0  0.71241  0.13951  0.99430  1.0000
  H   H475      1.0  0.53469  0.05555  0.78105  1.0000
  H   H476      1.0  0.55752  0.07214  0.86988  1.0000
  C   C286      1.0  0.57011  0.43819  0.73765  1.0000
  H   H477      1.0  0.76101  0.25894  0.83250  1.0000
  C   C287      1.0  0.66760  0.01891  0.76536  1.0000
  C   C288      1.0  0.59070  0.46367  0.71805  1.0000
  H   H478      1.0  0.57178  0.08051  0.82824  1.0000
  H   H479      1.0  0.67880  0.02342  0.95033  1.0000
  H   H480      1.0  0.58368  0.49100  0.77766  1.0000
  H   H481      1.0  0.74778  0.07670  0.53576  1.0000
  H   H482      1.0  0.72754  0.20842  0.90699  1.0000
  H   H483      1.0  0.54886  0.48648  0.72956  1.0000
  H   H484      1.0  0.69780  0.03237  0.72304  1.0000
  H   H485      1.0  0.61360  0.47966  0.72709  1.0000
  C   C289      1.0  0.54032  0.41739  0.72610  1.0000
  N   N33       1.0  0.52238  0.05213  0.83248  1.0000
  C   C290      1.0  0.73184  0.19734  0.88538  1.0000
  H   H486      1.0  0.57725  0.43467  0.76185  1.0000
  C   C291      1.0  0.53134  0.42183  0.69467  1.0000
  H   H487      1.0  0.76824  0.18862  0.84367  1.0000
  H   H488      1.0  0.73864  0.19060  0.82039  1.0000
  H   H489      1.0  0.69733  0.07828  0.96405  1.0000
  S   S114      1.0  0.53000  0.12616  0.91901  1.0000
  C   C292      1.0  0.54367  0.32792  0.78839  1.0000
  H   H490      1.0  0.54483  0.45064  0.65078  1.0000
  H   H491      1.0  0.56387  0.32747  0.77776  1.0000
  H   H492      1.0  0.73929  0.18124  0.89516  1.0000
  N   N34       1.0  0.75524  0.22068  0.86280  1.0000
  C   C293      1.0  0.58157  0.46831  0.68675  1.0000
  C   C294      1.0  0.55197  0.44718  0.67502  1.0000
  H   H493      1.0  0.54682  0.35141  0.78314  1.0000
  C   C295      1.0  0.74418  0.24126  0.85005  1.0000
  H   H494      1.0  0.70942  0.18296  0.87246  1.0000
  C   C296      1.0  0.55791  0.51184  0.73249  1.0000
  H   H495      1.0  0.53609  0.09844  0.81570  1.0000
  H   H496      1.0  0.73214  0.07840  0.97476  1.0000
  C   C297      1.0  0.53841  0.50300  0.78847  1.0000
  S   S115      1.0  0.62910  0.03784  0.94722  1.0000
  C   C298      1.0  0.59093  0.51608  0.77827  1.0000
  Fe  Fe57      1.0  0.55280  0.63524  0.43766  1.0000
  S   S116      1.0  0.58845  0.62095  0.44128  1.0000
  Fe  Fe58      1.0  0.67455  0.54552  0.18614  1.0000
  S   S117      1.0  0.70733  0.55316  0.22762  1.0000
  Fe  Fe59      1.0  0.69678  0.61442  0.17973  1.0000
  S   S118      1.0  0.73164  0.62738  0.22088  1.0000
  S   S119      1.0  0.68546  0.64973  0.15879  1.0000
  Fe  Fe60      1.0  0.74243  0.59302  0.19639  1.0000
  Fe  Fe61      1.0  0.69359  0.58657  0.24817  1.0000
  S   S120      1.0  0.67536  0.58112  0.30120  1.0000
  S   S121      1.0  0.71017  0.58323  0.15346  1.0000
  S   S122      1.0  0.65830  0.57578  0.20839  1.0000
  C   C299      1.0  0.52454  0.91770  0.21744  1.0000
  C   C300      1.0  0.58164  0.78798  0.01673  1.0000
  H   H497      1.0  0.67044  0.70279  0.24148  1.0000
  C   C301      1.0  0.69423  0.64036  0.32480  1.0000
  C   C302      1.0  0.67170  0.60885  0.32520  1.0000
  C   C303      1.0  0.66740  0.65195  0.04796  1.0000
  H   H498      1.0  0.71464  0.64822  0.30970  1.0000
  C   C304      1.0  0.68402  0.63792  0.05923  1.0000
  C   C305      1.0  0.68883  0.63616  0.09332  1.0000
  C   C306      1.0  0.67770  0.64916  0.11616  1.0000
  H   H499      1.0  0.70189  0.62557  0.10183  1.0000
  H   H500      1.0  0.64305  0.67537  0.06232  1.0000
  N   N35       1.0  0.67107  0.61534  0.46998  1.0000
  H   H501      1.0  0.59636  0.00189  0.00355  1.0000
  C   C307      1.0  0.64596  0.59884  0.34604  1.0000
  H   H502      1.0  0.62192  0.61235  0.38057  1.0000
  C   C308      1.0  0.64221  0.62025  0.36534  1.0000
  C   C309      1.0  0.63927  0.00106  0.28288  1.0000
  C   C310      1.0  0.69059  0.66172  0.34424  1.0000
  H   H503      1.0  0.62860  0.57443  0.34680  1.0000
  H   H504      1.0  0.52345  0.93247  0.13652  1.0000
  C   C311      1.0  0.66453  0.65184  0.36445  1.0000
  H   H505      1.0  0.63958  0.56741  0.45836  1.0000
  H   H506      1.0  0.61341  0.65226  0.27844  1.0000
  C   C312      1.0  0.67424  0.01624  0.23643  1.0000
  C   C313      1.0  0.72840  0.51761  0.15897  1.0000
  H   H507      1.0  0.65261  0.67345  0.12245  1.0000
  C   C314      1.0  0.65337  0.68130  0.22838  1.0000
  H   H508      1.0  0.69192  0.93771  0.01891  1.0000
  N   N36       1.0  0.64808  0.65311  0.24645  1.0000
  C   C315      1.0  0.63566  0.65248  0.27981  1.0000
  H   H509      1.0  0.66254  0.68219  0.20298  1.0000
  Fe  Fe62      1.0  0.62240  0.66917  0.42460  1.0000
  H   H510      1.0  0.57158  0.78775  0.48762  1.0000
  S   S123      1.0  0.66082  0.67985  0.38777  1.0000
  H   H511      1.0  0.63155  0.63146  0.29397  1.0000
  H   H512      1.0  0.62131  0.60346  0.24088  1.0000
  H   H513      1.0  0.63168  0.68203  0.22558  1.0000
  S   S124      1.0  0.66317  0.65524  0.00508  1.0000
  H   H514      1.0  0.68306  0.91448  0.47444  1.0000
  Fe  Fe63      1.0  0.59373  0.69869  0.46928  1.0000
  H   H515      1.0  0.63530  0.90929  0.01277  1.0000
  C   C316      1.0  0.59017  0.76508  0.01923  1.0000
  H   H516      1.0  0.63458  0.62471  0.20273  1.0000
  H   H517      1.0  0.69328  0.62849  0.04157  1.0000
  H   H518      1.0  0.60334  0.62425  0.22470  1.0000
  H   H519      1.0  0.70815  0.68607  0.34366  1.0000
  C   C317      1.0  0.52530  0.87128  0.23339  1.0000
  C   C318      1.0  0.65560  0.66424  0.07086  1.0000
  H   H520      1.0  0.68377  0.85922  0.01979  1.0000
  C   C319      1.0  0.66109  0.66319  0.10488  1.0000
  H   H521      1.0  0.60596  0.74202  0.05246  1.0000
  S   S125      1.0  0.55835  0.65211  0.48985  1.0000
  H   H522      1.0  0.71204  0.51937  0.07741  1.0000
  C   C320      1.0  0.62579  0.62517  0.22791  1.0000
  H   H523      1.0  0.68903  0.65661  0.22542  1.0000
  H   H524      1.0  0.54053  0.87383  0.21222  1.0000
  H   H525      1.0  0.65194  0.67308  0.29471  1.0000
  C   C321      1.0  0.67757  0.65344  0.24972  1.0000
  H   H526      1.0  0.67406  0.63119  0.26019  1.0000
  H   H527      1.0  0.67848  0.88527  0.06937  1.0000
  C   C322      1.0  0.71559  0.52658  0.10386  1.0000
  Fe  Fe64      1.0  0.59713  0.64192  0.49208  1.0000
  H   H528      1.0  0.68829  0.62466  0.41996  1.0000
  S   S126      1.0  0.58596  0.68202  0.41633  1.0000
  S   S127      1.0  0.58874  0.66719  0.01652  1.0000
  H   H529      1.0  0.53842  0.92154  0.19457  1.0000
  H   H530      1.0  0.62234  0.58701  0.47853  1.0000
  H   H531      1.0  0.69412  0.67274  0.26585  1.0000
  H   H532      1.0  0.52427  0.72654  0.02082  1.0000
  H   H533      1.0  0.74641  0.54252  0.16107  1.0000
  H   H534      1.0  0.65961  0.90764  0.06616  1.0000
  C   C323      1.0  0.65308  0.98933  0.21899  1.0000
  S   S128      1.0  0.63354  0.68994  0.47596  1.0000
  C   C324      1.0  0.62370  0.98396  0.02496  1.0000
  Fe  Fe65      1.0  0.59179  0.86667  0.11257  1.0000
  S   S129      1.0  0.58338  0.88859  0.06817  1.0000
  S   S130      1.0  0.59445  0.82208  0.11109  1.0000
  Fe  Fe66      1.0  0.59844  0.91954  0.15933  1.0000
  S   S131      1.0  0.59083  0.94518  0.11756  1.0000
  S   S132      1.0  0.59842  0.93251  0.21369  1.0000
  Fe  Fe67      1.0  0.55315  0.89805  0.10153  1.0000
  Fe  Fe68      1.0  0.62174  0.93346  0.08821  1.0000
  S   S133      1.0  0.66066  0.96431  0.05356  1.0000
  S   S134      1.0  0.55857  0.87268  0.14470  1.0000
  S   S135      1.0  0.63229  0.91122  0.13118  1.0000
  C   C325      1.0  0.62512  0.96780  0.23367  1.0000
  C   C326      1.0  0.61831  0.97387  0.26565  1.0000
  H   H535      1.0  0.59688  0.95731  0.27737  1.0000
  H   H536      1.0  0.54119  0.93049  0.23775  1.0000
  H   H537      1.0  0.52129  0.72114  0.49316  1.0000
  H   H538      1.0  0.73392  0.55150  0.10471  1.0000
  C   C327      1.0  0.67537  0.00346  0.48816  1.0000
  H   H539      1.0  0.60824  0.97297  0.04564  1.0000
  H   H540      1.0  0.65874  0.98495  0.19452  1.0000
  H   H541      1.0  0.55045  0.69613  0.03191  1.0000
  H   H542      1.0  0.57544  0.82257  0.04245  1.0000
  H   H543      1.0  0.69472  0.59694  0.44201  1.0000
  C   C328      1.0  0.69392  0.61877  0.44478  1.0000
  H   H544      1.0  0.54087  0.88369  0.25462  1.0000
  C   C329      1.0  0.65076  0.98264  0.02252  1.0000
  H   H545      1.0  0.52877  0.68194  0.06951  1.0000
  S   S136      1.0  0.58740  0.74082  0.47552  1.0000
  C   C330      1.0  0.58244  0.80533  0.04464  1.0000
  C   C331      1.0  0.59206  0.80014  0.07540  1.0000
  C   C332      1.0  0.60017  0.77693  0.07800  1.0000
  C   C333      1.0  0.59924  0.75947  0.05011  1.0000
  C   C334      1.0  0.64020  0.59002  0.46017  1.0000
  H   H546      1.0  0.52697  0.71192  0.43409  1.0000
  H   H547      1.0  0.60755  0.77266  0.10171  1.0000
  H   H548      1.0  0.61445  0.86768  0.01108  1.0000
  C   C335      1.0  0.66391  0.86025  0.00883  1.0000
  H   H549      1.0  0.63747  0.86615  0.06455  1.0000
  N   N37       1.0  0.66305  0.88800  0.02019  1.0000
  H   H550      1.0  0.69357  0.66447  0.47963  1.0000
  H   H551      1.0  0.64269  0.83844  0.01622  1.0000
  H   H552      1.0  0.71236  0.91687  0.02253  1.0000
  H   H553      1.0  0.71612  0.89229  0.49156  1.0000
  C   C336      1.0  0.65954  0.88670  0.05662  1.0000
  H   H554      1.0  0.71751  0.63766  0.45140  1.0000
  H   H555      1.0  0.63322  0.59488  0.43567  1.0000
  H   H556      1.0  0.66117  0.85705  0.47825  1.0000
  H   H557      1.0  0.69450  0.99995  0.48280  1.0000
  C   C337      1.0  0.67066  0.64474  0.47238  1.0000
  H   H558      1.0  0.63391  0.00526  0.30758  1.0000
  H   H559      1.0  0.69383  0.52496  0.11286  1.0000
  H   H560      1.0  0.65374  0.64299  0.49122  1.0000
  H   H561      1.0  0.53240  0.68038  0.44571  1.0000
  H   H562      1.0  0.66423  0.65098  0.44832  1.0000
  C   C338      1.0  0.52833  0.67750  0.04246  1.0000
  C   C339      1.0  0.69202  0.91638  0.01082  1.0000
  C   C340      1.0  0.63671  0.88871  0.00455  1.0000
  H   H563      1.0  0.52781  0.65502  0.03937  1.0000
  C   C341      1.0  0.62587  0.01241  0.50177  1.0000
  C   C342      1.0  0.67796  0.91461  0.50122  1.0000
  H   H564      1.0  0.68022  0.58597  0.50173  1.0000
  Fe  Fe69      1.0  0.55419  0.63080  0.98214  1.0000
  S   S137      1.0  0.58861  0.62147  0.95708  1.0000
  Fe  Fe70      1.0  0.64820  0.54113  0.68505  1.0000
  S   S138      1.0  0.67537  0.54033  0.72893  1.0000
  Fe  Fe71      1.0  0.68813  0.61062  0.67603  1.0000
  S   S139      1.0  0.71788  0.61561  0.71994  1.0000
  S   S140      1.0  0.69869  0.65182  0.64358  1.0000
  Fe  Fe72      1.0  0.71743  0.57342  0.69924  1.0000
  Fe  Fe73      1.0  0.67342  0.58252  0.74560  1.0000
  S   S141      1.0  0.66091  0.58273  0.79989  1.0000
  S   S142      1.0  0.69017  0.57053  0.65387  1.0000
  S   S143      1.0  0.64370  0.58121  0.70326  1.0000
  C   C343      1.0  0.63199  0.59579  0.84940  1.0000
  H   H565      1.0  0.65034  0.67059  0.54678  1.0000
  H   H566      1.0  0.54580  0.87229  0.70060  1.0000
  C   C344      1.0  0.62724  0.64139  0.81387  1.0000
  C   C345      1.0  0.64061  0.62543  0.79893  1.0000
  C   C346      1.0  0.64336  0.60279  0.81682  1.0000
  H   H567      1.0  0.72888  0.71746  0.92896  1.0000
  H   H568      1.0  0.52434  0.69122  0.97874  1.0000
  H   H569      1.0  0.64917  0.63098  0.77376  1.0000
  C   C347      1.0  0.62549  0.60051  0.58412  1.0000
  C   C348      1.0  0.64769  0.60957  0.60921  1.0000
  C   C349      1.0  0.67094  0.64064  0.61193  1.0000
  H   H570      1.0  0.62563  0.65923  0.80005  1.0000
  H   H571      1.0  0.60752  0.57638  0.58232  1.0000
  H   H572      1.0  0.64661  0.59242  0.62656  1.0000
  C   C350      1.0  0.71034  0.69439  0.93784  1.0000
  H   H573      1.0  0.61156  0.52857  0.76203  1.0000
  H   H574      1.0  0.69538  0.93759  0.51147  1.0000
  C   C351      1.0  0.61661  0.63496  0.84679  1.0000
  H   H575      1.0  0.66868  0.62154  0.90642  1.0000
  H   H576      1.0  0.68365  0.63336  0.94754  1.0000
  H   H577      1.0  0.57840  0.52415  0.71598  1.0000
  H   H578      1.0  0.73627  0.66021  0.92205  1.0000
  H   H579      1.0  0.64616  0.88536  0.55671  1.0000
  Fe  Fe74      1.0  0.62361  0.66112  0.98781  1.0000
  S   S144      1.0  0.76316  0.57383  0.69926  1.0000
  H   H580      1.0  0.63365  0.57799  0.86325  1.0000
  Fe  Fe75      1.0  0.59526  0.65874  0.92100  1.0000
  H   H581      1.0  0.71905  0.68783  0.96012  1.0000
  H   H582      1.0  0.67057  0.87074  0.56934  1.0000
  S   S145      1.0  0.55750  0.66471  0.94334  1.0000
  C   C352      1.0  0.68831  0.67988  0.88305  1.0000
  C   C353      1.0  0.52912  0.86847  0.72066  1.0000
  H   H583      1.0  0.66760  0.68140  0.88994  1.0000
  H   H584      1.0  0.68141  0.66287  0.86244  1.0000
  H   H585      1.0  0.61005  0.60619  0.88945  1.0000
  C   C354      1.0  0.67204  0.66263  0.58917  1.0000
  C   C355      1.0  0.62628  0.62240  0.56160  1.0000
  N   N38       1.0  0.70034  0.67054  0.91169  1.0000
  C   C356      1.0  0.64966  0.65353  0.56400  1.0000
  C   C357      1.0  0.61863  0.61174  0.86432  1.0000
  H   H586      1.0  0.59858  0.52451  0.80400  1.0000
  H   H587      1.0  0.69083  0.69720  0.94642  1.0000
  C   C358      1.0  0.63918  0.99620  0.77822  1.0000
  H   H588      1.0  0.54318  0.87996  0.74312  1.0000
  H   H589      1.0  0.68566  0.91210  0.56629  1.0000
  S   S146      1.0  0.60212  0.65720  0.86541  1.0000
  C   C359      1.0  0.72678  0.66740  0.90101  1.0000
  H   H590      1.0  0.55812  0.56009  0.76157  1.0000
  C   C360      1.0  0.65741  0.98990  0.51659  1.0000
  H   H591      1.0  0.74572  0.68970  0.89091  1.0000
  H   H592      1.0  0.54376  0.92029  0.68368  1.0000
  C   C361      1.0  0.67587  0.64041  0.92490  1.0000
  C   C362      1.0  0.59248  0.76380  0.51111  1.0000
  H   H593      1.0  0.70578  0.70296  0.87304  1.0000
  H   H594      1.0  0.65505  0.64157  0.93200  1.0000
  S   S147      1.0  0.63198  0.69830  0.95047  1.0000
  H   H595      1.0  0.61841  0.98364  0.54489  1.0000
  H   H596      1.0  0.68992  0.68673  0.59130  1.0000
  H   H597      1.0  0.59740  0.56949  0.75606  1.0000
  Fe  Fe76      1.0  0.59370  0.70110  0.97658  1.0000
  S   S148      1.0  0.58881  0.74418  0.98304  1.0000
  C   C363      1.0  0.67584  0.01501  0.73317  1.0000
  C   C364      1.0  0.66990  0.88933  0.55445  1.0000
  C   C365      1.0  0.65609  0.98871  0.71407  1.0000
  Fe  Fe77      1.0  0.60203  0.87019  0.60234  1.0000
  S   S149      1.0  0.59232  0.89164  0.55841  1.0000
  S   S150      1.0  0.60925  0.82841  0.59995  1.0000
  Fe  Fe78      1.0  0.60535  0.92076  0.65032  1.0000
  S   S151      1.0  0.59653  0.94606  0.60910  1.0000
  S   S152      1.0  0.60303  0.93117  0.70508  1.0000
  Fe  Fe79      1.0  0.56067  0.89848  0.59213  1.0000
  Fe  Fe80      1.0  0.62910  0.93701  0.57926  1.0000
  S   S153      1.0  0.66718  0.96869  0.54417  1.0000
  S   S154      1.0  0.56729  0.87329  0.63464  1.0000
  S   S155      1.0  0.64092  0.91541  0.62182  1.0000
  C   C366      1.0  0.62800  0.96571  0.72720  1.0000
  C   C367      1.0  0.61963  0.96965  0.75932  1.0000
  H   H598      1.0  0.59807  0.95193  0.76982  1.0000
  H   H599      1.0  0.61429  0.74464  0.54145  1.0000
  C   C368      1.0  0.65525  0.85890  0.50436  1.0000
  H   H600      1.0  0.63864  0.88989  0.97705  1.0000
  H   H601      1.0  0.76768  0.62290  0.61009  1.0000
  C   C369      1.0  0.67059  0.99680  0.99549  1.0000
  H   H602      1.0  0.62232  0.77919  0.58934  1.0000
  H   H603      1.0  0.60678  0.01598  0.50726  1.0000
  H   H604      1.0  0.71990  0.64954  0.88123  1.0000
  C   C370      1.0  0.63704  0.01502  0.97442  1.0000
  H   H605      1.0  0.72668  0.91440  0.52931  1.0000
  H   H606      1.0  0.74969  0.56710  0.62797  1.0000
  H   H607      1.0  0.70966  0.87287  0.53095  1.0000
  S   S156      1.0  0.59828  0.60937  0.53012  1.0000
  C   C371      1.0  0.57600  0.55484  0.77056  1.0000
  C   C372      1.0  0.58674  0.80504  0.53713  1.0000
  C   C373      1.0  0.60146  0.80311  0.56580  1.0000
  C   C374      1.0  0.61108  0.78100  0.56718  1.0000
  C   C375      1.0  0.60654  0.76135  0.54006  1.0000
  H   H608      1.0  0.66292  0.98597  0.68950  1.0000
  H   H609      1.0  0.57892  0.82170  0.53584  1.0000
  C   C376      1.0  0.76388  0.63355  0.63242  1.0000
  H   H610      1.0  0.66581  0.85999  0.98137  1.0000
  H   H611      1.0  0.54397  0.92717  0.72715  1.0000
  H   H612      1.0  0.57429  0.79231  0.99302  1.0000
  C   C377      1.0  0.63241  0.99408  0.52310  1.0000
  H   H613      1.0  0.69547  0.91811  0.98349  1.0000
  H   H614      1.0  0.76602  0.67942  0.66780  1.0000
  H   H615      1.0  0.58118  0.56260  0.79680  1.0000
  N   N39       1.0  0.56582  0.52145  0.76743  1.0000
  C   C378      1.0  0.61698  0.00029  0.00108  1.0000
  H   H616      1.0  0.63264  0.99878  0.80300  1.0000
  H   H617      1.0  0.74450  0.63762  0.62674  1.0000
  H   H618      1.0  0.75620  0.61617  0.65288  1.0000
  C   C379      1.0  0.70904  0.89225  0.51769  1.0000
  H   H619      1.0  0.65361  0.83876  0.51839  1.0000
  C   C380      1.0  0.66357  0.01270  0.97122  1.0000
  H   H620      1.0  0.53216  0.93310  0.62497  1.0000
  C   C381      1.0  0.52856  0.91521  0.70567  1.0000
  N   N40       1.0  0.67806  0.88878  0.51941  1.0000
  H   H621      1.0  0.52710  0.68976  0.50461  1.0000
  H   H622      1.0  0.69143  0.99556  0.99337  1.0000
  H   H623      1.0  0.66221  0.60474  0.52194  1.0000
  C   C382      1.0  0.58253  0.78567  0.50987  1.0000
  H   H624      1.0  0.63185  0.85622  0.50421  1.0000
  C   C383      1.0  0.67938  0.60788  0.50259  1.0000
  H   H625      1.0  0.65517  0.91330  0.50317  1.0000
  H   H626      1.0  0.70224  0.62676  0.51121  1.0000
  H   H627      1.0  0.53995  0.51672  0.72294  1.0000
  C   C384      1.0  0.78247  0.20098  0.45221  1.0000
  H   H628      1.0  0.99580  0.26382  0.21270  1.0000
  S   S157      1.0  0.93068  0.29701  0.04822  1.0000
  H   H629      1.0  0.96534  0.30840  0.43138  1.0000
  S   S158      1.0  0.89425  0.33549  0.05531  1.0000
  C   C385      1.0  0.98873  0.32071  0.42209  1.0000
  Fe  Fe81      1.0  0.95982  0.33320  0.01006  1.0000
  Fe  Fe82      1.0  0.93683  0.33820  0.07739  1.0000
  C   C386      1.0  0.01786  0.44012  0.37893  1.0000
  S   S159      1.0  0.00706  0.32807  0.48709  1.0000
  C   C387      1.0  0.79960  0.19260  0.43184  1.0000
  H   H630      1.0  0.97552  0.28428  0.20416  1.0000
  S   S160      1.0  0.78187  0.15918  0.40604  1.0000
  C   C388      1.0  0.83007  0.24522  0.47387  1.0000
  C   C389      1.0  0.84715  0.23670  0.45361  1.0000
  C   C390      1.0  0.83197  0.21047  0.43288  1.0000
  Fe  Fe83      1.0  0.89050  0.29715  0.02252  1.0000
  H   H631      1.0  0.87206  0.25029  0.45397  1.0000
  H   H632      1.0  0.84548  0.20405  0.41747  1.0000
  C   C391      1.0  0.98379  0.36515  0.14896  1.0000
  C   C392      1.0  0.79765  0.22710  0.47311  1.0000
  H   H633      1.0  0.78426  0.23335  0.48893  1.0000
  C   C393      1.0  0.99415  0.32371  0.38782  1.0000
  H   H634      1.0  0.97489  0.31388  0.37077  1.0000
  S   S161      1.0  0.94563  0.34563  0.13303  1.0000
  H   H635      1.0  0.01124  0.39100  0.44150  1.0000
  S   S162      1.0  0.93452  0.33987  0.46994  1.0000
  H   H636      1.0  0.95347  0.40792  0.14353  1.0000
  H   H637      1.0  0.89661  0.39398  0.07821  1.0000
  H   H638      1.0  0.00973  0.42308  0.35824  1.0000
  C   C394      1.0  0.93240  0.44154  0.01961  1.0000
  H   H639      1.0  0.98959  0.33275  0.23288  1.0000
  H   H640      1.0  0.91726  0.50064  0.43762  1.0000
  H   H641      1.0  0.99448  0.38140  0.40086  1.0000
  H   H642      1.0  0.98161  0.49376  0.49340  1.0000
  C   C395      1.0  0.91923  0.46011  0.01337  1.0000
  C   C396      1.0  0.00329  0.32784  0.25108  1.0000
  C   C397      1.0  0.94215  0.41198  0.12182  1.0000
  H   H643      1.0  0.77215  0.08170  0.48086  1.0000
  H   H644      1.0  0.94282  0.39760  0.10114  1.0000
  S   S163      1.0  0.96831  0.37417  0.04090  1.0000
  C   C398      1.0  0.94881  0.49459  0.05833  1.0000
  C   C399      1.0  0.96304  0.47682  0.06363  1.0000
  C   C400      1.0  0.95479  0.45024  0.04438  1.0000
  C   C401      1.0  0.01353  0.33257  0.44420  1.0000
  C   C402      1.0  0.92730  0.48647  0.03274  1.0000
  H   H645      1.0  0.98036  0.48361  0.08277  1.0000
  H   H646      1.0  0.90354  0.36781  0.16367  1.0000
  H   H647      1.0  0.91630  0.50007  0.02833  1.0000
  C   C403      1.0  0.98865  0.37355  0.18260  1.0000
  H   H648      1.0  0.88704  0.41971  0.16199  1.0000
  H   H649      1.0  0.89187  0.35511  0.12221  1.0000
  H   H650      1.0  0.87065  0.39981  0.10358  1.0000
  N   N41       1.0  0.91022  0.40404  0.12947  1.0000
  C   C404      1.0  0.94296  0.44697  0.49399  1.0000
  C   C405      1.0  0.91075  0.42505  0.15553  1.0000
  C   C406      1.0  0.89265  0.37151  0.14132  1.0000
  H   H651      1.0  0.98844  0.31653  0.27312  1.0000
  C   C407      1.0  0.00920  0.37200  0.12904  1.0000
  H   H652      1.0  0.92384  0.44981  0.14722  1.0000
  H   H653      1.0  0.96567  0.43650  0.04873  1.0000
  H   H654      1.0  0.90668  0.43232  0.09106  1.0000
  H   H655      1.0  0.01544  0.28815  0.28368  1.0000
  C   C408      1.0  0.89539  0.40765  0.09933  1.0000
  H   H656      1.0  0.78022  0.26930  0.38441  1.0000
  H   H657      1.0  0.95664  0.43674  0.11458  1.0000
  H   H658      1.0  0.99847  0.44356  0.38642  1.0000
  H   H659      1.0  0.86846  0.36455  0.14759  1.0000
  H   H660      1.0  0.92195  0.42304  0.17855  1.0000
  C   C409      1.0  0.00358  0.39978  0.42018  1.0000
  H   H661      1.0  0.96918  0.36854  0.19818  1.0000
  S   S164      1.0  0.96533  0.43034  0.48303  1.0000
  H   H662      1.0  0.98405  0.40249  0.42900  1.0000
  C   C410      1.0  0.01857  0.38830  0.19631  1.0000
  C   C411      1.0  0.95702  0.47931  0.49719  1.0000
  H   H663      1.0  0.97141  0.26600  0.24388  1.0000
  C   C412      1.0  0.98814  0.27925  0.22377  1.0000
  N   N42       1.0  0.01457  0.30821  0.23654  1.0000
  H   H664      1.0  0.00586  0.36568  0.10311  1.0000
  S   S165      1.0  0.84052  0.25747  0.01625  1.0000
  Fe  Fe84      1.0  0.92567  0.36834  0.01658  1.0000
  H   H665      1.0  0.78651  0.14820  0.48329  1.0000
  H   H666      1.0  0.93437  0.50873  0.39698  1.0000
  S   S166      1.0  0.84786  0.27812  0.50042  1.0000
  H   H667      1.0  0.90024  0.40339  0.49671  1.0000
  Fe  Fe85      1.0  0.94747  0.38153  0.50184  1.0000
  H   H668      1.0  0.77206  0.24611  0.42109  1.0000
  C   C413      1.0  0.91128  0.42836  0.49929  1.0000
  C   C414      1.0  0.79334  0.18238  0.93564  1.0000
  H   H669      1.0  0.99253  0.45432  0.58219  1.0000
  S   S167      1.0  0.93109  0.30302  0.54045  1.0000
  H   H670      1.0  0.90085  0.41285  0.62042  1.0000
  H   H671      1.0  0.90219  0.45372  0.99394  1.0000
  H   H672      1.0  0.79395  0.22439  0.88980  1.0000
  H   H673      1.0  0.96906  0.32695  0.87251  1.0000
  N   N43       1.0  0.94834  0.43795  0.60517  1.0000
  Fe  Fe86      1.0  0.94499  0.34813  0.56651  1.0000
  C   C415      1.0  0.01677  0.36239  0.87776  1.0000
  S   S168      1.0  0.91959  0.33031  0.98215  1.0000
  H   H674      1.0  0.83944  0.19563  0.92015  1.0000
  C   C416      1.0  0.98920  0.37647  0.64127  1.0000
  H   H675      1.0  0.96127  0.31456  0.93261  1.0000
  C   C417      1.0  0.84053  0.22373  0.96129  1.0000
  C   C418      1.0  0.82569  0.20017  0.93736  1.0000
  H   H676      1.0  0.96664  0.39844  0.96733  1.0000
  H   H677      1.0  0.86544  0.23699  0.96249  1.0000
  C   C419      1.0  0.98795  0.33951  0.88965  1.0000
  H   H678      1.0  0.97414  0.38229  0.93148  1.0000
  H   H679      1.0  0.91636  0.38879  0.60821  1.0000
  C   C420      1.0  0.98352  0.33244  0.92358  1.0000
  C   C421      1.0  0.93939  0.49303  0.50547  1.0000
  S   S169      1.0  0.95237  0.35507  0.62227  1.0000
  C   C422      1.0  0.89352  0.44217  0.50650  1.0000
  C   C423      1.0  0.78454  0.23922  0.88097  1.0000
  S   S170      1.0  0.91007  0.35559  0.53916  1.0000
  H   H680      1.0  0.97230  0.35653  0.68961  1.0000
  C   C424      1.0  0.77461  0.13295  0.50503  1.0000
  S   S171      1.0  0.92014  0.40759  0.99612  1.0000
  H   H681      1.0  0.93877  0.46619  0.57214  1.0000
  C   C425      1.0  0.96670  0.42951  0.91237  1.0000
  H   H682      1.0  0.96946  0.41285  0.58636  1.0000
  H   H683      1.0  0.77709  0.21628  0.99970  1.0000
  C   C426      1.0  0.99237  0.37236  0.67526  1.0000
  C   C427      1.0  0.96026  0.43955  0.63911  1.0000
  H   H684      1.0  0.00413  0.40321  0.96140  1.0000
  S   S172      1.0  0.98285  0.37699  0.53121  1.0000
  H   H685      1.0  0.94804  0.42549  0.93010  1.0000
  H   H686      1.0  0.97124  0.48766  0.59907  1.0000
  H   H687      1.0  0.97290  0.45118  0.89829  1.0000
  H   H688      1.0  0.93277  0.47031  0.61518  1.0000
  C   C428      1.0  0.79073  0.21188  0.98221  1.0000
  C   C429      1.0  0.82314  0.22952  0.98413  1.0000
  H   H689      1.0  0.96075  0.41797  0.64559  1.0000
  H   H690      1.0  0.96005  0.43267  0.55540  1.0000
  H   H691      1.0  0.86882  0.42775  0.50952  1.0000
  H   H692      1.0  0.99818  0.33907  0.59419  1.0000
  C   C430      1.0  0.90748  0.47451  0.50950  1.0000
  H   H693      1.0  0.01334  0.48052  0.94040  1.0000
  C   C431      1.0  0.00591  0.45805  0.95341  1.0000
  C   C432      1.0  0.77589  0.18869  0.95789  1.0000
  H   H694      1.0  0.80249  0.25772  0.86499  1.0000
  C   C433      1.0  0.94778  0.46679  0.59758  1.0000
  C   C434      1.0  0.98430  0.40269  0.94830  1.0000
  C   C435      1.0  0.91676  0.41097  0.60267  1.0000
  C   C436      1.0  0.96852  0.43434  0.58122  1.0000
  N   N44       1.0  0.99372  0.43184  0.92987  1.0000
  H   H695      1.0  0.90709  0.40903  0.57731  1.0000
  S   S173      1.0  0.00330  0.33851  0.98787  1.0000
  H   H696      1.0  0.99283  0.30072  0.59590  1.0000
  H   H697      1.0  0.98421  0.45943  0.64182  1.0000
  H   H698      1.0  0.95683  0.40988  0.89449  1.0000
  C   C437      1.0  0.00512  0.32335  0.58253  1.0000
  H   H699      1.0  0.94571  0.44241  0.65791  1.0000
  H   H700      1.0  0.99635  0.31926  0.55663  1.0000
  Fe  Fe87      1.0  0.89915  0.31267  0.50950  1.0000
  H   H701      1.0  0.79150  0.12798  0.51748  1.0000
  S   S174      1.0  0.88417  0.49105  0.51611  1.0000
  C   C438      1.0  0.00809  0.34788  0.94562  1.0000
  H   H702      1.0  0.98809  0.45483  0.97197  1.0000
  H   H703      1.0  0.01316  0.40132  0.59723  1.0000
  C   C439      1.0  0.01529  0.39733  0.62319  1.0000
  H   H704      1.0  0.78148  0.25058  0.90318  1.0000
  S   S175      1.0  0.77603  0.15307  0.90485  1.0000
  Fe  Fe88      1.0  0.96692  0.33310  0.50285  1.0000
  C   C440      1.0  0.01779  0.43695  0.90548  1.0000
  H   H705      1.0  0.00919  0.41759  0.88725  1.0000
  H   H706      1.0  0.77802  0.22152  0.81736  1.0000
  Fe  Fe89      1.0  0.90654  0.59144  0.05673  1.0000
  S   S176      1.0  0.93656  0.59104  0.09798  1.0000
  S   S177      1.0  0.85973  0.58870  0.06336  1.0000
  H   H707      1.0  0.94440  0.58268  0.45869  1.0000
  S   S178      1.0  0.98872  0.60326  0.04078  1.0000
  S   S179      1.0  0.97567  0.64466  0.48484  1.0000
  Fe  Fe90      1.0  0.94784  0.56240  0.06405  1.0000
  H   H708      1.0  0.88868  0.65440  0.16026  1.0000
  Fe  Fe91      1.0  0.97479  0.63168  0.07119  1.0000
  S   S180      1.0  0.94454  0.63418  0.03159  1.0000
  H   H709      1.0  0.89510  0.69274  0.15246  1.0000
  C   C441      1.0  0.01083  0.65984  0.42835  1.0000
  H   H710      1.0  0.91722  0.69868  0.08115  1.0000
  H   H711      1.0  0.95089  0.71373  0.16619  1.0000
  C   C442      1.0  0.84120  0.59178  0.09952  1.0000
  C   C443      1.0  0.81599  0.59661  0.09588  1.0000
  C   C444      1.0  0.80023  0.59872  0.12377  1.0000
  C   C445      1.0  0.80945  0.59592  0.15577  1.0000
  C   C446      1.0  0.83474  0.59124  0.15943  1.0000
  C   C447      1.0  0.85045  0.58904  0.13153  1.0000
  H   H712      1.0  0.80868  0.59885  0.07125  1.0000
  C   C448      1.0  0.94333  0.55983  0.45736  1.0000
  H   H713      1.0  0.84204  0.58898  0.18406  1.0000
  H   H714      1.0  0.86938  0.58473  0.13480  1.0000
  C   C449      1.0  0.00274  0.64285  0.45819  1.0000
  H   H715      1.0  0.97277  0.70044  0.14341  1.0000
  C   C450      1.0  0.01706  0.62580  0.46656  1.0000
  C   C451      1.0  0.96637  0.57111  0.40299  1.0000
  C   C452      1.0  0.98979  0.65032  0.19296  1.0000
  H   H716      1.0  0.96604  0.63706  0.14634  1.0000
  H   H717      1.0  0.00004  0.67327  0.42174  1.0000
  H   H718      1.0  0.87706  0.66298  0.12148  1.0000
  S   S181      1.0  0.79048  0.59843  0.19185  1.0000
  H   H719      1.0  0.94404  0.67499  0.17246  1.0000
  H   H720      1.0  0.91791  0.63522  0.12861  1.0000
  H   H721      1.0  0.90795  0.64587  0.08994  1.0000
  H   H722      1.0  0.78119  0.60288  0.12053  1.0000
  H   H723      1.0  0.93579  0.72771  0.11275  1.0000
  C   C453      1.0  0.92482  0.65469  0.11073  1.0000
  C   C454      1.0  0.94941  0.69329  0.15337  1.0000
  C   C455      1.0  0.98779  0.65145  0.15841  1.0000
  H   H724      1.0  0.91204  0.56901  0.40903  1.0000
  H   H725      1.0  0.96955  0.63487  0.20730  1.0000
  C   C456      1.0  0.91103  0.54612  0.40896  1.0000
  N   N45       1.0  0.92600  0.68186  0.12671  1.0000
  S   S182      1.0  0.91457  0.55906  0.02451  1.0000
  C   C457      1.0  0.89541  0.67269  0.14083  1.0000
  H   H726      1.0  0.98827  0.57353  0.41274  1.0000
  H   H727      1.0  0.96421  0.56381  0.37664  1.0000
  C   C458      1.0  0.01373  0.67179  0.13985  1.0000
  C   C459      1.0  0.93442  0.70664  0.10166  1.0000
  H   H728      1.0  0.94766  0.66062  0.10034  1.0000
  H   H729      1.0  0.95727  0.71368  0.09033  1.0000
  H   H730      1.0  0.01131  0.61279  0.48951  1.0000
  N   N46       1.0  0.93952  0.54874  0.42289  1.0000
  H   H731      1.0  0.96485  0.56266  0.46859  1.0000
  H   H732      1.0  0.96905  0.59474  0.40330  1.0000
  H   H733      1.0  0.99448  0.56962  0.15040  1.0000
  H   H734      1.0  0.95830  0.51910  0.43334  1.0000
  S   S183      1.0  0.01117  0.67476  0.09676  1.0000
  H   H735      1.0  0.92371  0.54325  0.47318  1.0000
  H   H736      1.0  0.90721  0.53768  0.38294  1.0000
  S   S184      1.0  0.01968  0.66642  0.25217  1.0000
  H   H737      1.0  0.77234  0.53419  0.11311  1.0000
  H   H738      1.0  0.00679  0.57374  0.21067  1.0000
  C   C460      1.0  0.01795  0.66883  0.20902  1.0000
  H   H739      1.0  0.01042  0.61097  0.14843  1.0000
  S   S185      1.0  0.95654  0.52530  0.08549  1.0000
  H   H740      1.0  0.89043  0.52965  0.42377  1.0000
  Fe  Fe92      1.0  0.95536  0.60210  0.00294  1.0000
  C   C461      1.0  0.01623  0.59220  0.14688  1.0000
  C   C462      1.0  0.93726  0.51795  0.42260  1.0000
  Fe  Fe93      1.0  0.88814  0.58536  0.56701  1.0000
  S   S186      1.0  0.89339  0.54670  0.58923  1.0000
  S   S187      1.0  0.84665  0.59219  0.57295  1.0000
  S   S188      1.0  0.95586  0.57164  0.54269  1.0000
  S   S189      1.0  0.96472  0.60391  0.94730  1.0000
  Fe  Fe94      1.0  0.90514  0.53918  0.53777  1.0000
  Fe  Fe95      1.0  0.94375  0.58252  0.59239  1.0000
  H   H741      1.0  0.97947  0.68040  0.84765  1.0000
  S   S190      1.0  0.93815  0.62213  0.57395  1.0000
  H   H742      1.0  0.97001  0.63841  0.64167  1.0000
  H   H743      1.0  0.80617  0.69788  0.67913  1.0000
  H   H744      1.0  0.97315  0.62410  0.78341  1.0000
  C   C463      1.0  0.00668  0.66724  0.67565  1.0000
  H   H745      1.0  0.00727  0.63545  0.54210  1.0000
  C   C464      1.0  0.82257  0.58293  0.60832  1.0000
  C   C465      1.0  0.79221  0.57690  0.60410  1.0000
  C   C466      1.0  0.81706  0.65577  0.64885  1.0000
  C   C467      1.0  0.81471  0.58006  0.66807  1.0000
  C   C468      1.0  0.83357  0.58396  0.64048  1.0000
  C   C469      1.0  0.00649  0.61946  0.89641  1.0000
  H   H746      1.0  0.85689  0.58864  0.64412  1.0000
  C   C470      1.0  0.00150  0.62681  0.92860  1.0000
  H   H747      1.0  0.82160  0.64483  0.62718  1.0000
  H   H748      1.0  0.98843  0.59902  0.88430  1.0000
  H   H749      1.0  0.78340  0.57578  0.57933  1.0000
  Fe  Fe96      1.0  0.94647  0.60836  0.52360  1.0000
  H   H750      1.0  0.80605  0.67599  0.59136  1.0000
  C   C471      1.0  0.78458  0.57470  0.66383  1.0000
  C   C472      1.0  0.98597  0.68343  0.78139  1.0000
  H   H751      1.0  0.81098  0.63924  0.67005  1.0000
  H   H752      1.0  0.96166  0.66661  0.77458  1.0000
  N   N47       1.0  0.79206  0.66254  0.64183  1.0000
  C   C473      1.0  0.99556  0.61631  0.65692  1.0000
  C   C474      1.0  0.98902  0.64054  0.65637  1.0000
  C   C475      1.0  0.77313  0.57222  0.63165  1.0000
  H   H753      1.0  0.98825  0.65018  0.85437  1.0000
  C   C476      1.0  0.97934  0.66024  0.83570  1.0000
  H   H754      1.0  0.77972  0.65916  0.69322  1.0000
  H   H755      1.0  0.95496  0.64235  0.83054  1.0000
  H   H756      1.0  0.78261  0.69047  0.60843  1.0000
  H   H757      1.0  0.00140  0.68581  0.67556  1.0000
  C   C477      1.0  0.99711  0.64208  0.79008  1.0000
  H   H758      1.0  0.83897  0.67718  0.65529  1.0000
  H   H759      1.0  0.82373  0.58175  0.69285  1.0000
  N   N48       1.0  0.99822  0.66963  0.80520  1.0000
  S   S191      1.0  0.89617  0.57502  0.51480  1.0000
  H   H760      1.0  0.82238  0.70744  0.62053  1.0000
  H   H761      1.0  0.00877  0.63142  0.58615  1.0000
  H   H762      1.0  0.98681  0.70451  0.79174  1.0000
  H   H763      1.0  0.00628  0.63108  0.80728  1.0000
  S   S192      1.0  0.97426  0.58254  0.63329  1.0000
  H   H764      1.0  0.99960  0.69053  0.75799  1.0000
  C   C478      1.0  0.80123  0.68517  0.61430  1.0000
  H   H765      1.0  0.00456  0.67826  0.59423  1.0000
  H   H766      1.0  0.95040  0.51792  0.50795  1.0000
  C   C479      1.0  0.78579  0.67542  0.67179  1.0000
  H   H767      1.0  0.01109  0.64841  0.76693  1.0000
  H   H768      1.0  0.00251  0.68183  0.55007  1.0000
  C   C480      1.0  0.01872  0.68828  0.57147  1.0000
