data_image0
_chemical_formula_structural       CFeS2HFeHFeSFeS3HFe2S2FeS3FeS2FeS2FeSFeS3C6H4C6H5C4NH4C7H3C6H5C2H6SC4H2NH3CHC2HCH2C2HCH3CHCH3CHCHSH4CHFeH2CH2NHSNH2NC3H9SHCHCH2CHCHNH4NH4FeHCH3CS2CFeH3CHCH3SC2SHCHCH2CH3SHSCH2CH3CHCNH6C4HC2HCHCHCHCHNCH7C2H4CH2CH9CH3FeHC2HSHSHCH2SFeH3CH2CNH2SHCSNCSFeHCH3FeCHSHFeS2FeHCFeSHSFe2CSFeS2FeH3S2HCSHSH6C6H4CFeSC6H5CH2CHCNH3CFeCH2SH2CH2SHC2SHCHCHNCHSCSH4CHFeCH5C2HSHFeSHCH4CH2CHNH2SHFeS2FeSFeSHSFeS2FeSFeSFeS3NFeH2FeH3C2HSFeS2FeS2FeSFeS3FeNHCHC3H2CH2CH5C2H5C2NSCHC2NH8C8H4C6H4C6H4C6HCH3C7H6CH2CH5C2HC2H5CHNC4H13S2H5CHC2H6C4SH4C2H3NHCFeH3CHNC4H6SH2C2HCH2CH2C3HC2HS2CNSFeH2CH2CSC3H3CH5CHNH11SCHFeHFeS2FeS2H2CH3Fe2SFeSHC4H3Fe2CH5CHC2SH3CHFe2SHC7HCH7CSHCHCH7C4HC2HS2C4SH3CSH3CH2CHCHC2NHC2HSHC2SCSFeH2SHCHCNHSCH5NCHCHC3S2FeHSH3NC4HCH3FeH6SH3SCSH4CNH2CH2NH2C2H3S2H7C2NHCHCHCH2C2H5SFeH3FeS2FeS2FeSFeS4H2CH4CHCHCNHC2H3C6H5CH3C6H4SC4FeH2C5H4SH4NCHSH2SHSHCH2CH3SH5CHFeCH3NHFeHC3NHCHSHCHCSHSH4C3H2CH3C5SHCHNCH2CHFeS3HCFeC2H2C4FeHNCH2SNHCSCHCH3CH2C2H2SH4CH2CH9CH3C3HNCH7C2NHCHCH2CHSCH2CHCHCHCH4CS2HCHSH2NHCHCFeSCHSHFeSH3SHSCHFeS2FeS2FeSFeS4CHCH2CSCFeS2FeSFeSFeS3HC6HNH2CHCH3FeCH2C6H4C4HCH2FeHC6H4FeHC4H4CHC8H4SH2CH2CHFeNH2C3HCSCHC3H2CH2NC4H12NH2NHC2HSH2CHCH3CHCHSHC3H6C2H2NHCHSH3SCS2H2FeHCNCH4SHCHSH2CHCH3CH4CNHCH2CHSC2HCSHC2H4CH3SCHCH3C4H2CHCSCH5NH2C2H3FeCFeH3S2H2CH4CHSHCHFeCSH2SHCH5CHFeS2FeS2FeSFeS2C2H3SHS2NHS2HNH2CFeS2FeS2FeSFeS3C6H4C6H8C6H14C6H4C6H5C6H4SHNCHC2HC3HC2H5CNC2HC2HNHNCSFeCH6CHCSNHCNC4H12FeH2FeH3CSH3NC4H10CH3CH2CH9C2H3NH9FeH2NH2CH2CSH3C3SH4CHCH2C2H2SC2H2CHCH4SH3SHC2HCHCH3CHC2H7SH2FeSH2S2CFeS2CH2FeSCS2H3SCH3C2FeHSFeSNSHSC4H4NCHSH2C2H2C7H5FeSC4H3C6H4SCHCHFeCH2NCHSCSH3SH3CH3CHFeCFeHCNC6H8NCHCSHCHCH4C2HNHCH7SCFeSHFeHSFe2SFeCSFeH2CS2HSFeH2FeS3CHSC2HFeS2H2FeSFeS3HC2H2C2HCH5C3HCHC8H4C3HC2H2CH2CHNS2HCH2CHC2HNH2CH3SH3CHCFeCSC2SH4FeH3SC2SH2CHNC4H12FeCHCH2SHSCFeHC2H3CHCFeNHFeHSCHCFeH2FeNH2CSH3CSHCHSCHS2CHCSC2H2FeHCH2SH2CH3CSH2C2HSCH2FeSHSH3SFeCSFeHS2CFeS4FeSHFeSHS2HC2S2Fe2CFeCHFeC6H4C3H3CHNC4H13C3H2SNCSH3FeCS3H5FeCH7NH7FeH3NC3HCSCHSCFeSFeSFeCFeS2FeHSFeHFeCS2HSNHCH3C3HNH3NFeC4HFeH3CHCNC2HC2SCH2NSH3FeSH2CHCH6SC2H7CH3CHCSHC5H4SC3HSCH2SC3SHCH2CHCH6C2H4CH4CHSH4CHC4FeS4FeH2SHFeSFeS2FeSFeS3H2CHCH4FeHS3FeS2FeS2FeSFeS3CH2C7HFeCHC6H4CH2C2H3FeHFeHCS2H2CSH5CH3C7H5C2HC3H3C7H6CFeHC2HCH2C2HCSC3SHNH3FeC2HNC4H13CHNC4H13FeC2HFeH2CHFeS2HSH2CH5SHCH3CHC2SC2SH2FeSH2C2S2HCNH2C4HCHC2H3SH2CHCHCFeSHC2H4SC3NCH4NH3SC3NHSCH2CNHFeCH2CSH2CH2SHSHCHCFeS2C2HCNFeHSH2FeH2CH4FeH7CHCSC3SH5CNHNH2SHCSHSCHC3SFeSFeS2H4C2FeSH4CSC2NH2CHNFeH2C5H4C2HC3H3C3H2C2HFeH3C3HCH3FeSH2SC2FeCH3FeSHC2H3FeH4CH3SHSHFeCS2NHCHCHSH3FeCH2CH2NC2FeCSCH4CH2SHCS2FeHFeSNFeCSHFeHSFeHSHCHCS3C3H2NC2HCHSHCFeHC5H3FeCH2SHCHCHCH2CHCS2H2C6H5CHCHCH2FeHSH2SHC2HSHCSHCSCSCH2CH2NH6C2HSHCHSCH3S2H2SHSH3CHCHCHCHNHC3H3CH8FeH2SCH3C2H5FeH5NHCHFeSC2HCHCH2CHSHSC2HFeHCHCNC3NC3H4CHCH3CHSCH3C2NH8CHCHFeCH2NH4CH8CFeH2CNCH2CFeCSH2CSHCFeHSFeS3HFeS3FeSH2SFeSFeC2HCHCH3SHSFeS2FeSFeSFeS3H2C6H6FeC7H4C2H2C3SHCHSH2C6H5CHCH6SH2CHCHNHCH2NHSCHSH2C3H5C2HCNCHCH2CHCH5CHCHC3HC2H2CNSN2CHFeH2CHCH2C2FeHFeHFeSHCH2CH5NHCHC3H5CH2CH4CSH5S2H2C3NHFeH3CHCH3CH5C3HCHSCSCHC2H2CNCH5SCHSHFeCHC2NCH2CH2C2H2CH2FeSC2SCHCNFeSHCH2CH7S2HCFeHSFeS2HSFeSCSFeS2HSNHCH3SNHSH2FeH4C6H4C8H4CHSC3HCH3CSH4CFeC5H3CH2C2SC4HCNC2H3CH2FeSCH3NC4H12C2HSH2FeCH2SHC2HCNC3FeH3CH3CHS2H2CFeH2C2H2CSH5CHCHFeS2FeS2FeSFeS3FeS2FeS2FeSFeS3H2SHFeHSH4FeSHCH2C2H5CH2C4HCH4C6H4C6H4C6H7CNC4H14C3HC6NH2CHSHSC2NHC2SHCSHC2H2CHCH2C2H2Fe2H3CNH5CHCH2CHCNCHC3H2CSHC2H5CH2CH3SH5SHFeH2CHCH2NC2SC3H2FeCH3CH2C2N2SH4C2HFeH2CSH3CH3NHC3HFeHSH2SHSHCSH2FeSH2FeS2FeSNFeSFeS3FeS2FeS2FeSFeS3CHCSFeH3NHCH3SC2H2SCHCNFeC2HCH4CH2CHCHCH3SC4H2C7H3C6H4C6H4C6H4C6H6CH6CFeCH2CHC2HCNSCH5CH2CH2SNC4H11NHCHSCH2FeHCHC2HFeHNC2H5CHCH4FeH2SHSHCH2SH6SHCFeHNC4HSH5CHCHCH3SNC2H6NH2C2HCH5SCH3SHCH4CH2SHFeSH3C2H4SHNH2CHC2HCH3CHNCH2CHCH2CHSH3SCHCH2CH5C3HNCH6C2H4CS3HC2HFeSFeSHCFeS2FeS2FeSCHSH2CH2CH2CFeS2FeSFe2SFeS3CHCNC2H2FeHC6H4SC6HSCSH2C2H3SHSC6H4C6H6C3SH3C2H7CHCHSH2SH2NH6CS2FeSC2H2SNC4H13CHCHC2H3FeHFeCHC3H8NH5FeHSHCHC2H2C2H2CSH3C4H2CHCHC2H2C2H3CH2CH2SNHN2H3CS2HNHFeH5C2H3CHNH3FeH3SCFeSFeSC3HCH2CH3CS3FeS2FeS2FeCHS2CHSC4H5CFeH2CHC2HFeS2C6H4FeHCH3SH3FeNH2FeCSCHNHCHCH7CHFeHCHSCH3SHC2NHC2H3CH6SCHSH7CH6CSFeSCSH2CFeSCSFeS2FeS2FeHFeS3FeS2FeC2HCFeSHSFeCSFeS2CH3NSHCHFeS2FeSCFeSFeS2HNCSNHCH2C7HC5HC2H2CH5SHSC9H4CHC2H2C7H4C6H4C6H4CFeH2C2HFeHC3H5FeH3FeH2FeH3CHNSH2CH3CNH2CH4CHCHCH3CH3SHSC2H2NH2CHSH4CH2CHCH4CH3C3H2C2H2CH4CHNCH3C3H2S3NH4C2H7SCHSH4CH3S2H2FeHFeSH2NCHSH2SHCSCFeSFeH2CH4FeC3H3CSC2HSHCHCHN2H3C3HSC2H2CSHFeCH3CH3CSHFeSH2CHC2H3CH4CFeC4SHCHFeSCH2NH3CSHC4HNCH2CHSC3FeCSCHCHFeH2CS3HC2HSC2HC2HCH3FeNHFeC2FeHFeCH3FeHC3H4C4NC2SCHCHNFeS2HFeHCHSHCHS2CSH2S2H5SCH5FeCH11CSH3SCHC2SH3SHSFeS2FeS2FeCFeS3FeS2FeS2FeSFeS4FeS2FeS2FeSFeS3FeSCFeS2FeSFeS2C6H4C3H2CH4C6H2CHC6H5C2H2C4HCH4C6H2C6H2C6H5C2H4C3HNHCNC6H3CH2CH2FeNC4H11CH2CH3SC2H4CHCH5FeCSCNC4H14SHCHC3HCHCH3CH7CHCSNH3FeHCH4SNSCH4CH2CH3SCHFeH3C2SHNHCH2CH2CNFeCH3CH3C2H3CNC3H2SHFeH5SCH9NFeCFeHSCSH6C2H5C2HFeH3NHCHS2CH6CHCHCHSCHCH2CH5CH3CSC2HCSCSHSH2CSH3FeS2FeS2FeSFeS5FeS2FeSHFeSFeS3C6H4C6H4C6H4C6H4C2HCHNHCH2SH3CH3CH4SH5FeC4H7SHCH2CH4C3SNHNC4H12NC4H9SHCSCH7SHC3HNC2H2FeH4CFeC2H4CHCNH3C2HC3FeHC2H2CFeHSH4NH3CHC2HNH2C3HSCH4SHSC3FeSHCH3C3H2CHFeC2HFeH4SH5CHFeH2FeHSHCS2FeSCHSFeSCS2NCH2FeCSFeSHSHC3H2NH4SHC6H4C8H2C2H4CFeCH6SCHC2H3CH7C2HFeC2H4SH2CSHCH2CFe2H4SH2CSCH5C
_chemical_formula_sum              "C1920 Fe384 S768 H3072 N192"
_cell_length_a       82.0215
_cell_length_b       81.6751
_cell_length_c       81.6594
_cell_angle_alpha    73.5596
_cell_angle_beta     74.2616
_cell_angle_gamma    73.5992

_space_group_name_H-M_alt    "P 1"
_space_group_IT_number       1

loop_
  _space_group_symop_operation_xyz
  'x, y, z'

loop_
  _atom_site_type_symbol
  _atom_site_label
  _atom_site_symmetry_multiplicity
  _atom_site_fract_x
  _atom_site_fract_y
  _atom_site_fract_z
  _atom_site_occupancy
  C   C1        1.0  0.06068  0.21502  0.41465  1.0000
  Fe  Fe1       1.0  0.21028  0.03379  0.36575  1.0000
  S   S1        1.0  0.22332  0.04414  0.38019  1.0000
  S   S2        1.0  0.20053  0.05123  0.34207  1.0000
  H   H1        1.0  0.09007  0.30252  0.34740  1.0000
  Fe  Fe2       1.0  0.00714  0.15642  0.48363  1.0000
  H   H2        1.0  0.23236  0.03982  0.41318  1.0000
  Fe  Fe3       1.0  0.21208  0.02510  0.40340  1.0000
  S   S3        1.0  0.19963  0.03015  0.42999  1.0000
  Fe  Fe4       1.0  0.24541  0.02113  0.37598  1.0000
  S   S4        1.0  0.27356  0.02089  0.36383  1.0000
  S   S5        1.0  0.19713  0.01645  0.38933  1.0000
  S   S6        1.0  0.23317  0.01196  0.35986  1.0000
  H   H3        1.0  0.10754  0.27179  0.34903  1.0000
  Fe  Fe5       1.0  0.08199  0.27087  0.41986  1.0000
  Fe  Fe6       1.0  0.11817  0.26326  0.39749  1.0000
  S   S7        1.0  0.12705  0.28343  0.40469  1.0000
  S   S8        1.0  0.13605  0.24379  0.38232  1.0000
  Fe  Fe7       1.0  0.11352  0.27244  0.43186  1.0000
  S   S9        1.0  0.12493  0.26150  0.45582  1.0000
  S   S10       1.0  0.10625  0.25136  0.42468  1.0000
  S   S11       1.0  0.09315  0.28113  0.39178  1.0000
  Fe  Fe8       1.0  0.09344  0.12985  0.39440  1.0000
  S   S12       1.0  0.09987  0.14829  0.40606  1.0000
  S   S13       1.0  0.06964  0.11877  0.40780  1.0000
  Fe  Fe9       1.0  0.12580  0.13004  0.36554  1.0000
  S   S14       1.0  0.13479  0.14932  0.37397  1.0000
  S   S15       1.0  0.13911  0.11900  0.34178  1.0000
  Fe  Fe10      1.0  0.12731  0.13284  0.40062  1.0000
  S   S16       1.0  0.14429  0.12641  0.41984  1.0000
  Fe  Fe11      1.0  0.10673  0.16347  0.37866  1.0000
  S   S17       1.0  0.09478  0.19242  0.37470  1.0000
  S   S18       1.0  0.12027  0.11252  0.39202  1.0000
  S   S19       1.0  0.09839  0.14601  0.36714  1.0000
  C   C2        1.0  0.03335  0.12311  0.37220  1.0000
  C   C3        1.0  0.03137  0.11233  0.38901  1.0000
  C   C4        1.0  0.04239  0.11120  0.40002  1.0000
  C   C5        1.0  0.05520  0.12105  0.39436  1.0000
  C   C6        1.0  0.05648  0.13248  0.37793  1.0000
  C   C7        1.0  0.04578  0.13332  0.36679  1.0000
  H   H4        1.0  0.02176  0.10441  0.39326  1.0000
  H   H5        1.0  0.04119  0.10244  0.41279  1.0000
  H   H6        1.0  0.06563  0.14076  0.37377  1.0000
  H   H7        1.0  0.04710  0.14194  0.35394  1.0000
  C   C8        1.0  0.12476  0.22941  0.38011  1.0000
  C   C9        1.0  0.10740  0.23538  0.37853  1.0000
  C   C10       1.0  0.09852  0.22400  0.37639  1.0000
  C   C11       1.0  0.10671  0.20641  0.37651  1.0000
  C   C12       1.0  0.12401  0.20035  0.37835  1.0000
  C   C13       1.0  0.13310  0.21191  0.37990  1.0000
  H   H8        1.0  0.10086  0.24883  0.37864  1.0000
  H   H9        1.0  0.08519  0.22881  0.37480  1.0000
  H   H10       1.0  0.13046  0.18684  0.37835  1.0000
  H   H11       1.0  0.14654  0.20722  0.38108  1.0000
  H   H12       1.0  0.22006  0.04134  0.47559  1.0000
  C   C14       1.0  0.12531  0.30586  0.46858  1.0000
  C   C15       1.0  0.12473  0.29418  0.45911  1.0000
  C   C16       1.0  0.12592  0.27644  0.46711  1.0000
  C   C17       1.0  0.19147  0.10606  0.42701  1.0000
  N   N1        1.0  0.11708  0.29508  0.33531  1.0000
  H   H13       1.0  0.17706  0.10944  0.45978  1.0000
  H   H14       1.0  0.12361  0.29887  0.44559  1.0000
  H   H15       1.0  0.27163  0.06959  0.31014  1.0000
  H   H16       1.0  0.32283  0.03350  0.46894  1.0000
  C   C18       1.0  0.12886  0.17479  0.44191  1.0000
  C   C19       1.0  0.14028  0.15991  0.44914  1.0000
  C   C20       1.0  0.14599  0.14530  0.44172  1.0000
  C   C21       1.0  0.14066  0.14577  0.42675  1.0000
  C   C22       1.0  0.13092  0.16139  0.41835  1.0000
  C   C23       1.0  0.12497  0.17595  0.42595  1.0000
  C   C24       1.0  0.10948  0.09215  0.33552  1.0000
  H   H17       1.0  0.15381  0.13348  0.44811  1.0000
  H   H18       1.0  0.12755  0.16219  0.40624  1.0000
  H   H19       1.0  0.11685  0.18772  0.41983  1.0000
  C   C25       1.0  0.18333  0.06987  0.34318  1.0000
  C   C26       1.0  0.17534  0.07570  0.35866  1.0000
  C   C27       1.0  0.16174  0.09090  0.35856  1.0000
  C   C28       1.0  0.15618  0.10014  0.34297  1.0000
  C   C29       1.0  0.16423  0.09419  0.32765  1.0000
  C   C30       1.0  0.17773  0.07921  0.32774  1.0000
  H   H20       1.0  0.17963  0.06856  0.37065  1.0000
  H   H21       1.0  0.15562  0.09544  0.37046  1.0000
  H   H22       1.0  0.16006  0.10125  0.31557  1.0000
  H   H23       1.0  0.18382  0.07481  0.31574  1.0000
  H   H24       1.0  0.07175  0.29919  0.47867  1.0000
  C   C31       1.0  0.27773  0.03956  0.38525  1.0000
  C   C32       1.0  0.02456  0.28469  0.38720  1.0000
  H   H25       1.0  0.08929  0.12371  0.32500  1.0000
  H   H26       1.0  0.28161  0.05538  0.40043  1.0000
  H   H27       1.0  0.26371  0.04319  0.38875  1.0000
  H   H28       1.0  0.06900  0.21208  0.40209  1.0000
  H   H29       1.0  0.07508  0.09868  0.33581  1.0000
  H   H30       1.0  0.12175  0.09643  0.33366  1.0000
  S   S20       1.0  0.05590  0.26402  0.42995  1.0000
  C   C33       1.0  0.21136  0.03562  0.45572  1.0000
  C   C34       1.0  0.21466  0.03545  0.43806  1.0000
  C   C35       1.0  0.22966  0.04008  0.42680  1.0000
  C   C36       1.0  0.09884  0.09916  0.36388  1.0000
  H   H31       1.0  0.08033  0.08194  0.35455  1.0000
  H   H32       1.0  0.19973  0.03211  0.46445  1.0000
  N   N2        1.0  0.18961  0.09172  0.44271  1.0000
  H   H33       1.0  0.17349  0.08774  0.46853  1.0000
  H   H34       1.0  0.28404  0.05151  0.47003  1.0000
  H   H35       1.0  0.09731  0.09081  0.46603  1.0000
  C   C37       1.0  0.18609  0.07697  0.43812  1.0000
  H   H36       1.0  0.08943  0.13409  0.47676  1.0000
  C   C38       1.0  0.06209  0.26937  0.48251  1.0000
  C   C39       1.0  0.01222  0.15837  0.40019  1.0000
  H   H37       1.0  0.11114  0.30912  0.31031  1.0000
  C   C40       1.0  0.08758  0.12098  0.47715  1.0000
  H   H38       1.0  0.28777  0.06899  0.45156  1.0000
  H   H39       1.0  0.08982  0.28406  0.46916  1.0000
  C   C41       1.0  0.11305  0.29556  0.31858  1.0000
  C   C42       1.0  0.20583  0.08583  0.44941  1.0000
  H   H40       1.0  0.10078  0.32047  0.33758  1.0000
  C   C43       1.0  0.99991  0.13927  0.42619  1.0000
  H   H41       1.0  0.11102  0.10322  0.36276  1.0000
  H   H42       1.0  0.11193  0.07787  0.34153  1.0000
  H   H43       1.0  0.30515  0.02942  0.43304  1.0000
  C   C44       1.0  0.09234  0.12098  0.33812  1.0000
  H   H44       1.0  0.06762  0.10316  0.35716  1.0000
  C   C45       1.0  0.17407  0.21098  0.43324  1.0000
  H   H45       1.0  0.01905  0.27390  0.43152  1.0000
  H   H46       1.0  0.08827  0.10674  0.37245  1.0000
  H   H47       1.0  0.22417  0.99728  0.44531  1.0000
  C   C46       1.0  0.29440  0.05735  0.46024  1.0000
  H   H48       1.0  0.10754  0.13482  0.44675  1.0000
  C   C47       1.0  0.14951  0.21307  0.42125  1.0000
  H   H49       1.0  0.13110  0.22524  0.44939  1.0000
  S   S21       1.0  0.01267  0.29324  0.37064  1.0000
  H   H50       1.0  0.01748  0.17040  0.39456  1.0000
  H   H51       1.0  0.08737  0.09926  0.44730  1.0000
  H   H52       1.0  0.16386  0.24107  0.41054  1.0000
  H   H53       1.0  0.25227  0.06060  0.35757  1.0000
  C   C48       1.0  0.28788  0.04642  0.39187  1.0000
  H   H54       1.0  0.12643  0.32076  0.37157  1.0000
  Fe  Fe12      1.0  0.99319  0.12304  0.36873  1.0000
  H   H55       1.0  0.30539  0.02294  0.47243  1.0000
  H   H56       1.0  0.04925  0.28112  0.36927  1.0000
  C   C49       1.0  0.24839  0.05093  0.33032  1.0000
  H   H57       1.0  0.25124  0.07844  0.30326  1.0000
  H   H58       1.0  0.25945  0.08024  0.34535  1.0000
  N   N3        1.0  0.09485  0.10212  0.34653  1.0000
  H   H59       1.0  0.13656  0.30127  0.34417  1.0000
  S   S22       1.0  0.23554  0.00314  0.40071  1.0000
  N   N4        1.0  0.08881  0.11885  0.45945  1.0000
  H   H60       1.0  0.09767  0.11105  0.48363  1.0000
  H   H61       1.0  0.13569  0.21944  0.42069  1.0000
  N   N5        1.0  0.07058  0.20875  0.42875  1.0000
  C   C50       1.0  0.05897  0.21249  0.44524  1.0000
  C   C51       1.0  0.08497  0.21786  0.42414  1.0000
  C   C52       1.0  0.07777  0.18968  0.43095  1.0000
  H   H62       1.0  0.06609  0.20806  0.45611  1.0000
  H   H63       1.0  0.05333  0.22681  0.44396  1.0000
  H   H64       1.0  0.04797  0.20578  0.44921  1.0000
  H   H65       1.0  0.09450  0.21460  0.41231  1.0000
  H   H66       1.0  0.09220  0.21414  0.43485  1.0000
  H   H67       1.0  0.08010  0.23232  0.42147  1.0000
  H   H68       1.0  0.06724  0.18236  0.43483  1.0000
  H   H69       1.0  0.08577  0.18466  0.44114  1.0000
  H   H70       1.0  0.08627  0.18644  0.41855  1.0000
  S   S23       1.0  0.25137  0.05372  0.45819  1.0000
  H   H71       1.0  0.18280  0.21198  0.42008  1.0000
  C   C53       1.0  0.06044  0.16409  0.48244  1.0000
  H   H72       1.0  0.14897  0.22508  0.45810  1.0000
  C   C54       1.0  0.25862  0.06718  0.34444  1.0000
  H   H73       1.0  0.26164  0.04247  0.32750  1.0000
  H   H74       1.0  0.24150  0.04429  0.34302  1.0000
  C   C55       1.0  0.23115  0.07905  0.33519  1.0000
  H   H75       1.0  0.24123  0.05140  0.32033  1.0000
  C   C56       1.0  0.03638  0.30755  0.43791  1.0000
  H   H76       1.0  0.12274  0.27615  0.35857  1.0000
  N   N6        1.0  0.15606  0.22053  0.43207  1.0000
  H   H77       1.0  0.14540  0.20487  0.45656  1.0000
  H   H78       1.0  0.14238  0.24675  0.42303  1.0000
  H   H79       1.0  0.06177  0.13039  0.45946  1.0000
  H   H80       1.0  0.17956  0.11061  0.42143  1.0000
  N   N7        1.0  0.24906  0.06862  0.33093  1.0000
  H   H81       1.0  0.05540  0.22946  0.41236  1.0000
  H   H82       1.0  0.13186  0.31503  0.32378  1.0000
  H   H83       1.0  0.10693  0.09403  0.32233  1.0000
  H   H84       1.0  0.04952  0.20867  0.41781  1.0000
  Fe  Fe13      1.0  0.10051  0.30033  0.40174  1.0000
  H   H85       1.0  0.20917  0.09678  0.45246  1.0000
  C   C57       1.0  0.28580  0.02839  0.37376  1.0000
  H   H86       1.0  0.10421  0.12589  0.33637  1.0000
  H   H87       1.0  0.10772  0.11891  0.43532  1.0000
  H   H88       1.0  0.14423  0.15927  0.46088  1.0000
  C   C58       1.0  0.22296  0.04068  0.46208  1.0000
  S   S24       1.0  0.11806  0.19075  0.45396  1.0000
  S   S25       1.0  0.03446  0.15932  0.47037  1.0000
  C   C59       1.0  0.01603  0.28241  0.40477  1.0000
  Fe  Fe14      1.0  0.22152  0.99577  0.38484  1.0000
  H   H89       1.0  0.20255  0.10180  0.41661  1.0000
  H   H90       1.0  0.23103  0.09256  0.33568  1.0000
  H   H91       1.0  0.25887  0.09060  0.31373  1.0000
  C   C60       1.0  0.04267  0.27979  0.38283  1.0000
  H   H92       1.0  0.10058  0.08511  0.37072  1.0000
  C   C61       1.0  0.07881  0.09619  0.34857  1.0000
  H   H93       1.0  0.08149  0.12895  0.34606  1.0000
  H   H94       1.0  0.03319  0.14008  0.42262  1.0000
  H   H95       1.0  0.10496  0.30610  0.35781  1.0000
  S   S26       1.0  0.02141  0.12322  0.35730  1.0000
  C   C62       1.0  0.04382  0.27086  0.41355  1.0000
  C   C63       1.0  0.02567  0.27543  0.41795  1.0000
  S   S27       1.0  0.08786  0.29097  0.42978  1.0000
  H   H96       1.0  0.21706  0.08038  0.43976  1.0000
  C   C64       1.0  0.31498  0.02945  0.46219  1.0000
  H   H97       1.0  0.12376  0.28710  0.31095  1.0000
  C   C65       1.0  0.31415  0.03024  0.37633  1.0000
  H   H98       1.0  0.17473  0.19682  0.43930  1.0000
  H   H99       1.0  0.00074  0.16015  0.39459  1.0000
  C   C66       1.0  0.05225  0.27260  0.39601  1.0000
  H   H100      1.0  0.15706  0.21483  0.40755  1.0000
  H   H101      1.0  0.02952  0.16309  0.42140  1.0000
  H   H102      1.0  0.00907  0.12752  0.42205  1.0000
  S   S28       1.0  0.31843  0.05130  0.39525  1.0000
  H   H103      1.0  0.22392  0.07291  0.34806  1.0000
  S   S29       1.0  0.00337  0.29106  0.47911  1.0000
  C   C67       1.0  0.23772  0.04578  0.45075  1.0000
  H   H104      1.0  0.02949  0.31187  0.45022  1.0000
  H   H105      1.0  0.07546  0.13085  0.43817  1.0000
  C   C68       1.0  0.13320  0.30135  0.33181  1.0000
  H   H106      1.0  0.30139  0.06187  0.46747  1.0000
  H   H107      1.0  0.27213  0.05918  0.34172  1.0000
  H   H108      1.0  0.06610  0.26799  0.39255  1.0000
  C   C69       1.0  0.24108  0.04546  0.43311  1.0000
  H   H109      1.0  0.20470  0.07544  0.46163  1.0000
  C   C70       1.0  0.07486  0.13201  0.45161  1.0000
  N   N8        1.0  0.30633  0.04460  0.45023  1.0000
  H   H110      1.0  0.17937  0.21631  0.44133  1.0000
  H   H111      1.0  0.09545  0.25262  0.48353  1.0000
  H   H112      1.0  0.99627  0.13612  0.44068  1.0000
  H   H113      1.0  0.22348  0.08007  0.32542  1.0000
  H   H114      1.0  0.15016  0.19883  0.42659  1.0000
  H   H115      1.0  0.99966  0.19108  0.37266  1.0000
  C   C71       1.0  0.30400  0.02376  0.36934  1.0000
  C   C72       1.0  0.04719  0.15515  0.48585  1.0000
  C   C73       1.0  0.17501  0.09805  0.45628  1.0000
  C   C74       1.0  0.14495  0.21883  0.44980  1.0000
  H   H116      1.0  0.11680  0.11214  0.45441  1.0000
  C   C75       1.0  0.29645  0.03859  0.44124  1.0000
  C   C76       1.0  0.10592  0.12129  0.44852  1.0000
  H   H117      1.0  0.25252  0.04937  0.42431  1.0000
  C   C77       1.0  0.25810  0.07721  0.31375  1.0000
  H   H118      1.0  0.28652  0.03180  0.45070  1.0000
  C   C78       1.0  0.30611  0.04180  0.38741  1.0000
  H   H119      1.0  0.13029  0.26784  0.33915  1.0000
  C   C79       1.0  0.10257  0.30654  0.34491  1.0000
  H   H120      1.0  0.19367  0.11762  0.43007  1.0000
  C   C80       1.0  0.99478  0.17018  0.42489  1.0000
  H   H121      1.0  0.05169  0.28129  0.47962  1.0000
  N   N9        1.0  0.00756  0.15486  0.41944  1.0000
  C   C81       1.0  0.15577  0.23922  0.42401  1.0000
  H   H122      1.0  0.19776  0.09895  0.48316  1.0000
  H   H123      1.0  0.16045  0.24537  0.43190  1.0000
  H   H124      1.0  0.07570  0.14558  0.45083  1.0000
  H   H125      1.0  0.31029  0.01515  0.36043  1.0000
  H   H126      1.0  0.18440  0.06597  0.44970  1.0000
  H   H127      1.0  0.12466  0.31956  0.46234  1.0000
  H   H128      1.0  0.06269  0.17368  0.47035  1.0000
  C   C82       1.0  0.11949  0.27694  0.34594  1.0000
  C   C83       1.0  0.02333  0.15165  0.42641  1.0000
  H   H129      1.0  0.99996  0.18228  0.41968  1.0000
  H   H130      1.0  0.17404  0.08105  0.43281  1.0000
  H   H131      1.0  0.04896  0.29860  0.44021  1.0000
  H   H132      1.0  0.10097  0.29088  0.32072  1.0000
  C   C84       1.0  0.31964  0.05299  0.43715  1.0000
  H   H133      1.0  0.16250  0.10228  0.45178  1.0000
  H   H134      1.0  0.02856  0.29968  0.43551  1.0000
  C   C85       1.0  0.08685  0.10112  0.46047  1.0000
  H   H135      1.0  0.19692  0.07169  0.42805  1.0000
  H   H136      1.0  0.28948  0.04977  0.43237  1.0000
  H   H137      1.0  0.00202  0.28631  0.40820  1.0000
  H   H138      1.0  0.07414  0.09879  0.46884  1.0000
  H   H139      1.0  0.31369  0.06441  0.42773  1.0000
  H   H140      1.0  0.02216  0.14735  0.39559  1.0000
  H   H141      1.0  0.06958  0.26609  0.46983  1.0000
  H   H142      1.0  0.14445  0.29299  0.32464  1.0000
  H   H143      1.0  0.02026  0.14913  0.44093  1.0000
  C   C86       1.0  0.08166  0.28691  0.48177  1.0000
  H   H144      1.0  0.19388  0.00293  0.46219  1.0000
  H   H145      1.0  0.07467  0.11967  0.48569  1.0000
  H   H146      1.0  0.06042  0.30701  0.40844  1.0000
  Fe  Fe15      1.0  0.12044  0.17647  0.48131  1.0000
  H   H147      1.0  0.32395  0.01953  0.45501  1.0000
  C   C87       1.0  0.04780  0.31632  0.40699  1.0000
  C   C88       1.0  0.12735  0.27046  0.48463  1.0000
  H   H148      1.0  0.03978  0.30937  0.40351  1.0000
  S   S30       1.0  0.03492  0.32067  0.47938  1.0000
  H   H149      1.0  0.20037  0.99371  0.43416  1.0000
  S   S31       1.0  0.99273  0.14136  0.47591  1.0000
  H   H150      1.0  0.99166  0.31632  0.34021  1.0000
  C   C89       1.0  0.01911  0.30275  0.57022  1.0000
  H   H151      1.0  0.15790  0.13198  0.54732  1.0000
  H   H152      1.0  0.00860  0.27285  0.57754  1.0000
  S   S32       1.0  0.99759  0.14688  0.51238  1.0000
  Fe  Fe16      1.0  0.07548  0.31880  0.54555  1.0000
  H   H153      1.0  0.22063  0.99146  0.52661  1.0000
  H   H154      1.0  0.18951  0.11970  0.53810  1.0000
  H   H155      1.0  0.07148  0.27794  0.51685  1.0000
  C   C90       1.0  0.05454  0.13949  0.51387  1.0000
  H   H156      1.0  0.16558  0.16299  0.51683  1.0000
  H   H157      1.0  0.03105  0.19590  0.52431  1.0000
  C   C91       1.0  0.00746  0.21499  0.50329  1.0000
  N   N10       1.0  0.02983  0.28587  0.56637  1.0000
  H   H158      1.0  0.30430  0.01885  0.56985  1.0000
  H   H159      1.0  0.07937  0.31749  0.61866  1.0000
  S   S33       1.0  0.25338  0.06049  0.50222  1.0000
  H   H160      1.0  0.03458  0.13534  0.50396  1.0000
  C   C92       1.0  0.16133  0.14325  0.54967  1.0000
  S   S34       1.0  0.21160  0.06337  0.53902  1.0000
  N   N11       1.0  0.07349  0.27221  0.49224  1.0000
  C   C93       1.0  0.04222  0.28920  0.54955  1.0000
  S   S35       1.0  0.12676  0.31464  0.49810  1.0000
  Fe  Fe17      1.0  0.25005  0.04339  0.48690  1.0000
  H   H161      1.0  0.18816  0.15337  0.51026  1.0000
  C   C94       1.0  0.18169  0.16193  0.54147  1.0000
  H   H162      1.0  0.04371  0.14973  0.54826  1.0000
  H   H163      1.0  0.01129  0.28180  0.55458  1.0000
  H   H164      1.0  0.16219  0.14012  0.56363  1.0000
  Fe  Fe18      1.0  0.27386  0.03770  0.51176  1.0000
  C   C95       1.0  0.30262  0.02795  0.54265  1.0000
  H   H165      1.0  0.01174  0.31018  0.55982  1.0000
  S   S36       1.0  0.01468  0.28786  0.51596  1.0000
  H   H166      1.0  0.05047  0.27675  0.54623  1.0000
  Fe  Fe19      1.0  0.10379  0.15515  0.51497  1.0000
  S   S37       1.0  0.10363  0.18384  0.50590  1.0000
  S   S38       1.0  0.07926  0.14540  0.52680  1.0000
  Fe  Fe20      1.0  0.14242  0.14342  0.50005  1.0000
  H   H167      1.0  0.00138  0.19115  0.50290  1.0000
  C   C96       1.0  0.00196  0.23010  0.50999  1.0000
  Fe  Fe21      1.0  0.12856  0.17583  0.51549  1.0000
  S   S39       1.0  0.13816  0.19139  0.52817  1.0000
  H   H168      1.0  0.02531  0.17557  0.57176  1.0000
  S   S40       1.0  0.12758  0.14747  0.52664  1.0000
  Fe  Fe22      1.0  0.00330  0.27225  0.50524  1.0000
  Fe  Fe23      1.0  0.10533  0.30527  0.56428  1.0000
  C   C97       1.0  0.99673  0.20306  0.50766  1.0000
  S   S41       1.0  0.11184  0.30803  0.58848  1.0000
  Fe  Fe24      1.0  0.09340  0.28017  0.55061  1.0000
  S   S42       1.0  0.08706  0.30079  0.52734  1.0000
  S   S43       1.0  0.08344  0.25633  0.55306  1.0000
  Fe  Fe25      1.0  0.11194  0.30778  0.52558  1.0000
  H   H169      1.0  0.02725  0.31125  0.57098  1.0000
  H   H170      1.0  0.08040  0.16826  0.49238  1.0000
  H   H171      1.0  0.12835  0.25673  0.49086  1.0000
  S   S44       1.0  0.11966  0.28551  0.54765  1.0000
  S   S45       1.0  0.07981  0.29777  0.56918  1.0000
  H   H172      1.0  0.03537  0.29649  0.53870  1.0000
  C   C98       1.0  0.19202  0.13125  0.54087  1.0000
  S   S46       1.0  0.30156  0.03982  0.50760  1.0000
  H   H173      1.0  0.17108  0.17388  0.53942  1.0000
  S   S47       1.0  0.16580  0.12319  0.49082  1.0000
  H   H174      1.0  0.19366  0.12757  0.55463  1.0000
  H   H175      1.0  0.02978  0.17695  0.51803  1.0000
  H   H176      1.0  0.05556  0.25845  0.49006  1.0000
  H   H177      1.0  0.02616  0.26221  0.56264  1.0000
  H   H178      1.0  0.17239  0.14016  0.51650  1.0000
  H   H179      1.0  0.19389  0.16519  0.53269  1.0000
  C   C99       1.0  0.12285  0.20993  0.53399  1.0000
  C   C100      1.0  0.12860  0.22366  0.53617  1.0000
  C   C101      1.0  0.11658  0.23822  0.54151  1.0000
  C   C102      1.0  0.09877  0.23891  0.54509  1.0000
  C   C103      1.0  0.09301  0.22529  0.54272  1.0000
  C   C104      1.0  0.10501  0.21090  0.53705  1.0000
  H   H180      1.0  0.14238  0.22301  0.53379  1.0000
  H   H181      1.0  0.12114  0.24867  0.54329  1.0000
  H   H182      1.0  0.07924  0.22574  0.54553  1.0000
  H   H183      1.0  0.10048  0.20028  0.53563  1.0000
  C   C105      1.0  0.17591  0.15100  0.51957  1.0000
  Fe  Fe26      1.0  0.01243  0.30767  0.49094  1.0000
  S   S48       1.0  0.11847  0.14840  0.48958  1.0000
  C   C106      1.0  0.19842  0.07965  0.52580  1.0000
  C   C107      1.0  0.20364  0.08294  0.50762  1.0000
  C   C108      1.0  0.19343  0.09632  0.49717  1.0000
  C   C109      1.0  0.17783  0.10641  0.50474  1.0000
  C   C110      1.0  0.17236  0.10299  0.52292  1.0000
  C   C111      1.0  0.18270  0.08964  0.53344  1.0000
  H   H184      1.0  0.21565  0.07527  0.50160  1.0000
  H   H185      1.0  0.06154  0.30747  0.62169  1.0000
  H   H186      1.0  0.16015  0.11046  0.52884  1.0000
  H   H187      1.0  0.17849  0.08695  0.54750  1.0000
  H   H188      1.0  0.15030  0.15480  0.54772  1.0000
  C   C112      1.0  0.06749  0.14872  0.51068  1.0000
  H   H189      1.0  0.04797  0.28418  0.58175  1.0000
  H   H190      1.0  0.04819  0.26380  0.57754  1.0000
  C   C113      1.0  0.31181  0.03245  0.52550  1.0000
  H   H191      1.0  0.07549  0.31194  0.60062  1.0000
  C   C114      1.0  0.08712  0.25615  0.49583  1.0000
  N   N12       1.0  0.02530  0.17451  0.54575  1.0000
  H   H192      1.0  0.04588  0.17568  0.55671  1.0000
  H   H193      1.0  0.02015  0.21238  0.49487  1.0000
  H   H194      1.0  0.09017  0.28962  0.48880  1.0000
  C   C115      1.0  0.31142  0.02222  0.55657  1.0000
  Fe  Fe27      1.0  0.23455  0.04718  0.52370  1.0000
  C   C116      1.0  0.12725  0.28225  0.49427  1.0000
  H   H195      1.0  0.28875  0.02905  0.54524  1.0000
  H   H196      1.0  0.00114  0.17644  0.53899  1.0000
  S   S49       1.0  0.25556  0.02567  0.53495  1.0000
  H   H197      1.0  0.02862  0.19503  0.55535  1.0000
  H   H198      1.0  0.03059  0.27325  0.59321  1.0000
  C   C117      1.0  0.04435  0.14275  0.50152  1.0000
  H   H199      1.0  0.18318  0.15929  0.55518  1.0000
  H   H200      1.0  0.05241  0.12974  0.52589  1.0000
  S   S50       1.0  0.22978  0.03141  0.50760  1.0000
  H   H201      1.0  0.05323  0.28903  0.50669  1.0000
  C   C118      1.0  0.01850  0.27517  0.56526  1.0000
  C   C119      1.0  0.03398  0.18132  0.52767  1.0000
  S   S51       1.0  0.01632  0.24396  0.50563  1.0000
  H   H202      1.0  0.20463  0.13351  0.53225  1.0000
  C   C120      1.0  0.07050  0.16097  0.49489  1.0000
  H   H203      1.0  0.30058  0.00237  0.52379  1.0000
  C   C121      1.0  0.06307  0.27649  0.50893  1.0000
  H   H204      1.0  0.08143  0.24477  0.50368  1.0000
  N   N13       1.0  0.17775  0.14684  0.53790  1.0000
  C   C122      1.0  0.03952  0.27636  0.58037  1.0000
  H   H205      1.0  0.12820  0.27758  0.50784  1.0000
  S   S52       1.0  0.27189  0.02165  0.49468  1.0000
  C   C123      1.0  0.03154  0.18046  0.55796  1.0000
  S   S53       1.0  0.14538  0.17117  0.48989  1.0000
  H   H206      1.0  0.99929  0.17650  0.56131  1.0000
  H   H207      1.0  0.05105  0.29714  0.54996  1.0000
  H   H208      1.0  0.04835  0.17678  0.52579  1.0000
  H   H209      1.0  0.02499  0.15027  0.54052  1.0000
  C   C124      1.0  0.02945  0.15516  0.54960  1.0000
  H   H210      1.0  0.05615  0.26600  0.51689  1.0000
  Fe  Fe28      1.0  0.25220  0.01107  0.51693  1.0000
  C   C125      1.0  0.06893  0.31711  0.61254  1.0000
  H   H211      1.0  0.02307  0.14956  0.56312  1.0000
  H   H212      1.0  0.00266  0.19565  0.54452  1.0000
  H   H213      1.0  0.09583  0.25785  0.50330  1.0000
  H   H214      1.0  0.32059  0.99161  0.48999  1.0000
  H   H215      1.0  0.00942  0.30086  0.58273  1.0000
  C   C126      1.0  0.00629  0.18107  0.54776  1.0000
  C   C127      1.0  0.12647  0.29993  0.48620  1.0000
  H   H216      1.0  0.02753  0.54612  0.13056  1.0000
  S   S54       1.0  0.26061  0.49988  0.01983  1.0000
  H   H217      1.0  0.21965  0.32514  0.09165  1.0000
  Fe  Fe29      1.0  0.23707  0.51864  0.03126  1.0000
  S   S55       1.0  0.22696  0.51103  0.06049  1.0000
  H   H218      1.0  0.14239  0.44147  0.18127  1.0000
  C   C128      1.0  0.23240  0.34748  0.06304  1.0000
  H   H219      1.0  0.08574  0.51440  0.07295  1.0000
  H   H220      1.0  0.23970  0.33370  0.06338  1.0000
  H   H221      1.0  0.07124  0.57462  0.18587  1.0000
  H   H222      1.0  0.04001  0.59688  0.23332  1.0000
  C   C129      1.0  0.20491  0.36705  0.07098  1.0000
  H   H223      1.0  0.20736  0.55448  0.11548  1.0000
  H   H224      1.0  0.18619  0.57578  0.08837  1.0000
  C   C130      1.0  0.03347  0.38574  0.10526  1.0000
  H   H225      1.0  0.09250  0.59229  0.20999  1.0000
  N   N14       1.0  0.26907  0.44290  0.02019  1.0000
  H   H226      1.0  0.12786  0.45774  0.20459  1.0000
  H   H227      1.0  0.25485  0.42694  0.01524  1.0000
  S   S56       1.0  0.21851  0.37494  0.01865  1.0000
  H   H228      1.0  0.03778  0.54984  0.17937  1.0000
  Fe  Fe30      1.0  0.19575  0.42384  0.00915  1.0000
  S   S57       1.0  0.19452  0.40793  0.03654  1.0000
  S   S58       1.0  0.18333  0.45247  0.00427  1.0000
  Fe  Fe31      1.0  0.22286  0.39674  0.02736  1.0000
  S   S59       1.0  0.23947  0.39209  0.04683  1.0000
  Fe  Fe32      1.0  0.19021  0.38731  0.02617  1.0000
  S   S60       1.0  0.17242  0.36904  0.04083  1.0000
  H   H229      1.0  0.16101  0.57205  0.13466  1.0000
  S   S61       1.0  0.18859  0.40436  0.99939  1.0000
  Fe  Fe33      1.0  0.13721  0.53056  0.12510  1.0000
  S   S62       1.0  0.15114  0.51365  0.14631  1.0000
  S   S63       1.0  0.14814  0.53796  0.09604  1.0000
  Fe  Fe34      1.0  0.10256  0.53841  0.15107  1.0000
  S   S64       1.0  0.11364  0.52254  0.17443  1.0000
  Fe  Fe35      1.0  0.13665  0.53456  0.16129  1.0000
  S   S65       1.0  0.15103  0.54711  0.17247  1.0000
  Fe  Fe36      1.0  0.12691  0.50330  0.15741  1.0000
  S   S66       1.0  0.12570  0.47519  0.16719  1.0000
  S   S67       1.0  0.12439  0.55232  0.13925  1.0000
  S   S68       1.0  0.11413  0.51830  0.13496  1.0000
  N   N15       1.0  0.18028  0.56076  0.11471  1.0000
  Fe  Fe37      1.0  0.21741  0.39388  0.99278  1.0000
  H   H230      1.0  0.19289  0.56242  0.13388  1.0000
  H   H231      1.0  0.15628  0.42661  0.19526  1.0000
  Fe  Fe38      1.0  0.27048  0.52394  0.00486  1.0000
  H   H232      1.0  0.01340  0.51618  0.18348  1.0000
  H   H233      1.0  0.15291  0.57156  0.11652  1.0000
  H   H234      1.0  0.19909  0.33967  0.09744  1.0000
  C   C131      1.0  0.08480  0.40500  0.22044  1.0000
  C   C132      1.0  0.20080  0.46276  0.99735  1.0000
  H   H235      1.0  0.10117  0.43440  0.21271  1.0000
  S   S69       1.0  0.29876  0.52481  0.99583  1.0000
  Fe  Fe39      1.0  0.10271  0.39391  0.11924  1.0000
  S   S70       1.0  0.10998  0.40842  0.13475  1.0000
  S   S71       1.0  0.11966  0.36831  0.11380  1.0000
  Fe  Fe40      1.0  0.07005  0.42126  0.11285  1.0000
  S   S72       1.0  0.07488  0.43852  0.12715  1.0000
  S   S73       1.0  0.04570  0.43169  0.10191  1.0000
  Fe  Fe41      1.0  0.10264  0.43168  0.11355  1.0000
  S   S74       1.0  0.11918  0.45153  0.10248  1.0000
  Fe  Fe42      1.0  0.08157  0.41393  0.14725  1.0000
  S   S75       1.0  0.06883  0.41688  0.17486  1.0000
  S   S76       1.0  0.09733  0.41685  0.09706  1.0000
  S   S77       1.0  0.07475  0.39698  0.13386  1.0000
  Fe  Fe43      1.0  0.00490  0.51839  0.13489  1.0000
  N   N16       1.0  0.21396  0.34851  0.07193  1.0000
  H   H236      1.0  0.16697  0.54015  0.12022  1.0000
  C   C133      1.0  0.01533  0.40231  0.15133  1.0000
  H   H237      1.0  0.24742  0.46503  0.01856  1.0000
  C   C134      1.0  0.08129  0.40756  0.19103  1.0000
  C   C135      1.0  0.09610  0.39414  0.18877  1.0000
  C   C136      1.0  0.10493  0.38583  0.20249  1.0000
  H   H238      1.0  0.31330  0.50069  0.06796  1.0000
  H   H239      1.0  0.27703  0.46399  0.99955  1.0000
  C   C137      1.0  0.07574  0.41306  0.20685  1.0000
  H   H240      1.0  0.10041  0.38977  0.17664  1.0000
  H   H241      1.0  0.11604  0.37505  0.20086  1.0000
  C   C138      1.0  0.04791  0.54893  0.14103  1.0000
  H   H242      1.0  0.06429  0.42348  0.20862  1.0000
  H   H243      1.0  0.19514  0.55257  0.09107  1.0000
  H   H244      1.0  0.08827  0.49114  0.08152  1.0000
  H   H245      1.0  0.05608  0.39354  0.10667  1.0000
  H   H246      1.0  0.13156  0.40269  0.21470  1.0000
  C   C139      1.0  0.03507  0.41588  0.10162  1.0000
  C   C140      1.0  0.08236  0.58844  0.20608  1.0000
  H   H247      1.0  0.28801  0.41964  0.02810  1.0000
  H   H248      1.0  0.08022  0.36550  0.22974  1.0000
  H   H249      1.0  0.06218  0.56656  0.20849  1.0000
  H   H250      1.0  0.07056  0.58988  0.21666  1.0000
  H   H251      1.0  0.99962  0.37442  0.18408  1.0000
  C   C141      1.0  0.18370  0.56267  0.09560  1.0000
  C   C142      1.0  0.27648  0.42886  0.03387  1.0000
  N   N17       1.0  0.08816  0.57032  0.20349  1.0000
  S   S78       1.0  0.07439  0.55234  0.15353  1.0000
  C   C143      1.0  0.04287  0.39798  0.10470  1.0000
  H   H252      1.0  0.08641  0.52405  0.11466  1.0000
  C   C144      1.0  0.16424  0.57350  0.12022  1.0000
  C   C145      1.0  0.01806  0.42145  0.09894  1.0000
  N   N18       1.0  0.01478  0.53941  0.19005  1.0000
  H   H253      1.0  0.06828  0.50583  0.08862  1.0000
  H   H254      1.0  0.29428  0.44549  0.00435  1.0000
  H   H255      1.0  0.06571  0.35651  0.22370  1.0000
  H   H256      1.0  0.06282  0.49841  0.14879  1.0000
  H   H257      1.0  0.00751  0.46324  0.10559  1.0000
  H   H258      1.0  0.14318  0.41111  0.22503  1.0000
  H   H259      1.0  0.01201  0.43515  0.09656  1.0000
  H   H260      1.0  0.28067  0.43426  0.04274  1.0000
  C   C146      1.0  0.04424  0.52116  0.13888  1.0000
  C   C147      1.0  0.20560  0.34041  0.06329  1.0000
  C   C148      1.0  0.12480  0.46790  0.14929  1.0000
  C   C149      1.0  0.13439  0.47381  0.13264  1.0000
  C   C150      1.0  0.13317  0.46835  0.11826  1.0000
  C   C151      1.0  0.12204  0.45732  0.12049  1.0000
  C   C152      1.0  0.11241  0.45157  0.13712  1.0000
  C   C153      1.0  0.11389  0.45671  0.15149  1.0000
  H   H261      1.0  0.14288  0.48248  0.13086  1.0000
  H   H262      1.0  0.14073  0.47278  0.10546  1.0000
  H   H263      1.0  0.10348  0.44343  0.13897  1.0000
  H   H264      1.0  0.10603  0.45248  0.16414  1.0000
  C   C154      1.0  0.14876  0.54498  0.19507  1.0000
  C   C155      1.0  0.15945  0.55236  0.20026  1.0000
  C   C156      1.0  0.15808  0.55144  0.21795  1.0000
  C   C157      1.0  0.14565  0.54358  0.23070  1.0000
  C   C158      1.0  0.13487  0.53608  0.22564  1.0000
  C   C159      1.0  0.13656  0.53661  0.20782  1.0000
  H   H265      1.0  0.16895  0.55878  0.19054  1.0000
  H   H266      1.0  0.00814  0.52751  0.21730  1.0000
  H   H267      1.0  0.12002  0.41426  0.23158  1.0000
  H   H268      1.0  0.12849  0.53055  0.20395  1.0000
  C   C160      1.0  0.15836  0.36942  0.06138  1.0000
  C   C161      1.0  0.14818  0.35693  0.06808  1.0000
  C   C162      1.0  0.13649  0.35672  0.08417  1.0000
  C   C163      1.0  0.13453  0.36924  0.09360  1.0000
  C   C164      1.0  0.14491  0.38166  0.08712  1.0000
  C   C165      1.0  0.15700  0.38161  0.07108  1.0000
  H   H269      1.0  0.14924  0.34738  0.06075  1.0000
  H   H270      1.0  0.12869  0.34697  0.08919  1.0000
  H   H271      1.0  0.14381  0.39100  0.09469  1.0000
  H   H272      1.0  0.16523  0.39092  0.06624  1.0000
  C   C166      1.0  0.26216  0.38805  0.03953  1.0000
  C   C167      1.0  0.26999  0.38756  0.02211  1.0000
  C   C168      1.0  0.28822  0.38406  0.01685  1.0000
  C   C169      1.0  0.29860  0.38135  0.02891  1.0000
  C   C170      1.0  0.29071  0.38209  0.04624  1.0000
  C   C171      1.0  0.27256  0.38532  0.05154  1.0000
  H   H273      1.0  0.26205  0.38951  0.01279  1.0000
  C   C172      1.0  0.09182  0.55819  0.22000  1.0000
  H   H274      1.0  0.29867  0.37959  0.05569  1.0000
  H   H275      1.0  0.26657  0.38562  0.06504  1.0000
  H   H276      1.0  0.03567  0.53830  0.20179  1.0000
  C   C173      1.0  0.00863  0.40930  0.09975  1.0000
  C   C174      1.0  0.20482  0.51805  0.06997  1.0000
  C   C175      1.0  0.19333  0.53049  0.06028  1.0000
  C   C176      1.0  0.17590  0.53619  0.06838  1.0000
  C   C177      1.0  0.16980  0.52944  0.08617  1.0000
  C   C178      1.0  0.18123  0.51681  0.09581  1.0000
  C   C179      1.0  0.19869  0.51125  0.08775  1.0000
  H   H277      1.0  0.19790  0.53583  0.04658  1.0000
  H   H278      1.0  0.16716  0.54597  0.06083  1.0000
  H   H279      1.0  0.17663  0.51131  0.10944  1.0000
  H   H280      1.0  0.20749  0.50153  0.09529  1.0000
  H   H281      1.0  0.99943  0.45750  0.07320  1.0000
  H   H282      1.0  0.17242  0.56111  0.09151  1.0000
  C   C180      1.0  0.20170  0.47473  0.00619  1.0000
  H   H283      1.0  0.23905  0.35365  0.06912  1.0000
  H   H284      1.0  0.16550  0.58721  0.11401  1.0000
  C   C181      1.0  0.07438  0.56574  0.19828  1.0000
  H   H285      1.0  0.21750  0.49007  0.00933  1.0000
  H   H286      1.0  0.19119  0.47823  0.01680  1.0000
  H   H287      1.0  0.07841  0.55215  0.19615  1.0000
  H   H288      1.0  0.00043  0.44643  0.14563  1.0000
  H   H289      1.0  0.27627  0.42629  0.00189  1.0000
  C   C182      1.0  0.31008  0.53877  0.03484  1.0000
  C   C183      1.0  0.30096  0.53399  0.02522  1.0000
  H   H290      1.0  0.07910  0.51527  0.15678  1.0000
  C   C184      1.0  0.00490  0.49372  0.08187  1.0000
  C   C185      1.0  0.28195  0.45358  0.01033  1.0000
  H   H291      1.0  0.30426  0.53991  0.04815  1.0000
  H   H292      1.0  0.28816  0.53142  0.03112  1.0000
  H   H293      1.0  0.10884  0.55550  0.18727  1.0000
  H   H294      1.0  0.03789  0.42322  0.14242  1.0000
  H   H295      1.0  0.99602  0.54552  0.17406  1.0000
  C   C186      1.0  0.02897  0.42305  0.15544  1.0000
  H   H296      1.0  0.11487  0.57213  0.19321  1.0000
  N   N19       1.0  0.13609  0.43114  0.04631  1.0000
  C   C187      1.0  0.14606  0.44422  0.03508  1.0000
  C   C188      1.0  0.11737  0.43823  0.04647  1.0000
  C   C189      1.0  0.13895  0.42707  0.06427  1.0000
  C   C190      1.0  0.14198  0.41504  0.03944  1.0000
  H   H297      1.0  0.16018  0.43936  0.03515  1.0000
  H   H298      1.0  0.14176  0.45670  0.03958  1.0000
  H   H299      1.0  0.14479  0.44726  0.02124  1.0000
  H   H300      1.0  0.10957  0.42852  0.05472  1.0000
  H   H301      1.0  0.11241  0.45022  0.05186  1.0000
  H   H302      1.0  0.11474  0.44168  0.03309  1.0000
  H   H303      1.0  0.13172  0.41717  0.07312  1.0000
  H   H304      1.0  0.13448  0.43892  0.06990  1.0000
  H   H305      1.0  0.15294  0.42185  0.06470  1.0000
  H   H306      1.0  0.13496  0.40470  0.04775  1.0000
  H   H307      1.0  0.15610  0.40942  0.03885  1.0000
  H   H308      1.0  0.13984  0.41760  0.02596  1.0000
  H   H309      1.0  0.02720  0.43594  0.15855  1.0000
  S   S79       1.0  0.99582  0.38321  0.21681  1.0000
  S   S80       1.0  0.02027  0.54512  0.23572  1.0000
  H   H310      1.0  0.07081  0.49327  0.11934  1.0000
  H   H311      1.0  0.14378  0.41846  0.18557  1.0000
  H   H312      1.0  0.07922  0.59802  0.19400  1.0000
  H   H313      1.0  0.19713  0.57736  0.11310  1.0000
  H   H314      1.0  0.11002  0.44702  0.19211  1.0000
  C   C191      1.0  0.30867  0.53217  0.00810  1.0000
  H   H315      1.0  0.10196  0.56145  0.22447  1.0000
  C   C192      1.0  0.02305  0.52228  0.18544  1.0000
  C   C193      1.0  0.12902  0.44503  0.21440  1.0000
  H   H316      1.0  0.10183  0.57800  0.17703  1.0000
  H   H317      1.0  0.28522  0.46013  0.01887  1.0000
  H   H318      1.0  0.09640  0.54438  0.21858  1.0000
  H   H319      1.0  0.14115  0.44266  0.21917  1.0000
  H   H320      1.0  0.21889  0.34510  0.09735  1.0000
  H   H321      1.0  0.29427  0.38298  0.00356  1.0000
  C   C194      1.0  0.03869  0.53937  0.13640  1.0000
  C   C195      1.0  0.11236  0.43410  0.20138  1.0000
  C   C196      1.0  0.23047  0.47651  0.98863  1.0000
  C   C197      1.0  0.21662  0.48145  0.00195  1.0000
  S   S81       1.0  0.00381  0.37633  0.10499  1.0000
  H   H322      1.0  0.24303  0.44650  0.03564  1.0000
  H   H323      1.0  0.20494  0.37420  0.05723  1.0000
  H   H324      1.0  0.03218  0.38234  0.23484  1.0000
  H   H325      1.0  0.99596  0.54937  0.21102  1.0000
  C   C198      1.0  0.01624  0.39141  0.10300  1.0000
  C   C199      1.0  0.00586  0.55124  0.17618  1.0000
  H   H326      1.0  0.21131  0.37389  0.07660  1.0000
  H   H327      1.0  0.03581  0.41287  0.16517  1.0000
  H   H328      1.0  0.11212  0.42395  0.19482  1.0000
  N   N20       1.0  0.01219  0.41953  0.15557  1.0000
  H   H329      1.0  0.12554  0.52955  0.23546  1.0000
  C   C200      1.0  0.19508  0.56391  0.11950  1.0000
  Fe  Fe44      1.0  0.24670  0.50491  0.99820  1.0000
  H   H330      1.0  0.03942  0.37189  0.10775  1.0000
  H   H331      1.0  0.09026  0.47842  0.11204  1.0000
  H   H332      1.0  0.09058  0.49181  0.12590  1.0000
  C   C201      1.0  0.99449  0.46917  0.10225  1.0000
  H   H333      1.0  0.16660  0.55705  0.22174  1.0000
  N   N21       1.0  0.08963  0.50545  0.09930  1.0000
  C   C202      1.0  0.10873  0.50303  0.09401  1.0000
  C   C203      1.0  0.08193  0.52287  0.10343  1.0000
  C   C204      1.0  0.08513  0.49168  0.11485  1.0000
  C   C205      1.0  0.08268  0.50418  0.08491  1.0000
  H   H334      1.0  0.11493  0.49010  0.09057  1.0000
  H   H335      1.0  0.11441  0.50355  0.10473  1.0000
  H   H336      1.0  0.11265  0.51335  0.08251  1.0000
  H   H337      1.0  0.23369  0.35458  0.04909  1.0000
  H   H338      1.0  0.08001  0.55885  0.23068  1.0000
  H   H339      1.0  0.01509  0.55384  0.16350  1.0000
  S   S82       1.0  0.10951  0.37917  0.23584  1.0000
  H   H340      1.0  0.18980  0.53279  0.11979  1.0000
  H   H341      1.0  0.00671  0.40909  0.18329  1.0000
  C   C206      1.0  0.06269  0.54032  0.14809  1.0000
  C   C207      1.0  0.17803  0.54286  0.12362  1.0000
  H   H342      1.0  0.17529  0.54094  0.13810  1.0000
  C   C208      1.0  0.03067  0.57424  0.23482  1.0000
  H   H343      1.0  0.08551  0.53356  0.09217  1.0000
  H   H344      1.0  0.01235  0.43426  0.12925  1.0000
  C   C209      1.0  0.06799  0.52208  0.15090  1.0000
  H   H345      1.0  0.04377  0.56305  0.13883  1.0000
  H   H346      1.0  0.11795  0.44662  0.22571  1.0000
  C   C210      1.0  0.13105  0.41394  0.22012  1.0000
  C   C211      1.0  0.06647  0.36747  0.22882  1.0000
  C   C212      1.0  0.10411  0.56896  0.18965  1.0000
  H   H347      1.0  0.25592  0.45999  0.03786  1.0000
  C   C213      1.0  0.05877  0.51254  0.14634  1.0000
  C   C214      1.0  0.14353  0.42920  0.19160  1.0000
  H   H348      1.0  0.31001  0.42235  0.99014  1.0000
  S   S83       1.0  0.24823  0.54250  0.01776  1.0000
  S   S84       1.0  0.03394  0.50900  0.13189  1.0000
  C   C215      1.0  0.00196  0.53685  0.20668  1.0000
  N   N22       1.0  0.12900  0.43057  0.20687  1.0000
  S   S85       1.0  0.22457  0.41463  0.00088  1.0000
  Fe  Fe45      1.0  0.23538  0.54368  0.99622  1.0000
  H   H349      1.0  0.21185  0.32632  0.06395  1.0000
  H   H350      1.0  0.02968  0.51297  0.19578  1.0000
  C   C216      1.0  0.09921  0.39112  0.21840  1.0000
  H   H351      1.0  0.19111  0.36834  0.07804  1.0000
  H   H352      1.0  0.06749  0.52535  0.10694  1.0000
  C   C217      1.0  0.26464  0.43500  0.00821  1.0000
  S   S86       1.0  0.22229  0.52159  0.01070  1.0000
  C   C218      1.0  0.25318  0.45408  0.02844  1.0000
  C   C219      1.0  0.02824  0.54719  0.19188  1.0000
  C   C220      1.0  0.00076  0.41942  0.17303  1.0000
  H   H353      1.0  0.01924  0.46186  0.07458  1.0000
  H   H354      1.0  0.03301  0.52369  0.17320  1.0000
  H   H355      1.0  0.20634  0.34701  0.04924  1.0000
  C   C221      1.0  0.00372  0.43334  0.14242  1.0000
  H   H356      1.0  0.99900  0.56410  0.17949  1.0000
  H   H357      1.0  0.06337  0.37980  0.21888  1.0000
  H   H358      1.0  0.08030  0.40919  0.23264  1.0000
  H   H359      1.0  0.02239  0.55977  0.19613  1.0000
  H   H360      1.0  0.19153  0.34142  0.06935  1.0000
  C   C222      1.0  0.00597  0.46817  0.07195  1.0000
  H   H361      1.0  0.02395  0.40192  0.13827  1.0000
  N   N23       1.0  0.99594  0.47962  0.08411  1.0000
  H   H362      1.0  0.99748  0.50277  0.09064  1.0000
  H   H363      1.0  0.00300  0.39923  0.15114  1.0000
  H   H364      1.0  0.02168  0.39157  0.16101  1.0000
  H   H365      1.0  0.99545  0.41381  0.09775  1.0000
  H   H366      1.0  0.99812  0.43221  0.17666  1.0000
  H   H367      1.0  0.00746  0.47566  0.05814  1.0000
  H   H368      1.0  0.25913  0.44522  0.99762  1.0000
  H   H369      1.0  0.00628  0.50185  0.06831  1.0000
  H   H370      1.0  0.01809  0.48833  0.08491  1.0000
  H   H371      1.0  0.02354  0.58073  0.22452  1.0000
  H   H372      1.0  0.26678  0.42110  0.04203  1.0000
  S   S87       1.0  0.32130  0.37447  0.02303  1.0000
  C   C223      1.0  0.21287  0.33917  0.09042  1.0000
  H   H373      1.0  0.32454  0.50024  0.08429  1.0000
  Fe  Fe46      1.0  0.11151  0.41833  0.27308  1.0000
  H   H374      1.0  0.15555  0.47263  0.29589  1.0000
  Fe  Fe47      1.0  0.07970  0.40362  0.29008  1.0000
  S   S88       1.0  0.09291  0.37650  0.28620  1.0000
  S   S89       1.0  0.05156  0.41242  0.30139  1.0000
  Fe  Fe48      1.0  0.11455  0.38086  0.29518  1.0000
  S   S90       1.0  0.12960  0.35866  0.31290  1.0000
  S   S91       1.0  0.10036  0.40715  0.30107  1.0000
  H   H375      1.0  0.00795  0.56971  0.31429  1.0000
  H   H376      1.0  0.06892  0.38233  0.25335  1.0000
  C   C224      1.0  0.09424  0.48633  0.29250  1.0000
  H   H377      1.0  0.17782  0.48832  0.24993  1.0000
  H   H378      1.0  0.09830  0.50443  0.26764  1.0000
  H   H379      1.0  0.01496  0.33930  0.43288  1.0000
  Fe  Fe49      1.0  0.11221  0.64147  0.36356  1.0000
  Fe  Fe50      1.0  0.10826  0.63195  0.40302  1.0000
  S   S92       1.0  0.11097  0.60851  0.42533  1.0000
  Fe  Fe51      1.0  0.00496  0.64857  0.34686  1.0000
  S   S93       1.0  0.09018  0.63501  0.38557  1.0000
  H   H380      1.0  0.02856  0.44956  0.29970  1.0000
  C   C225      1.0  0.09998  0.49083  0.27438  1.0000
  C   C226      1.0  0.14022  0.56208  0.38488  1.0000
  C   C227      1.0  0.05037  0.47445  0.30899  1.0000
  C   C228      1.0  0.16549  0.49718  0.25481  1.0000
  H   H381      1.0  0.05715  0.44977  0.27948  1.0000
  H   H382      1.0  0.14087  0.51062  0.27963  1.0000
  H   H383      1.0  0.13545  0.58849  0.35692  1.0000
  Fe  Fe52      1.0  0.99827  0.53625  0.25622  1.0000
  Fe  Fe53      1.0  0.08168  0.56615  0.27277  1.0000
  C   C229      1.0  0.09447  0.59262  0.34679  1.0000
  H   H384      1.0  0.06283  0.32421  0.42824  1.0000
  H   H385      1.0  0.04006  0.64080  0.47054  1.0000
  H   H386      1.0  0.07434  0.59572  0.30252  1.0000
  H   H387      1.0  0.05176  0.39590  0.24248  1.0000
  H   H388      1.0  0.07259  0.65183  0.44595  1.0000
  C   C230      1.0  0.10010  0.60638  0.34920  1.0000
  H   H389      1.0  0.00405  0.39431  0.29148  1.0000
  C   C231      1.0  0.10069  0.58682  0.33111  1.0000
  C   C232      1.0  0.12728  0.59975  0.47017  1.0000
  S   S94       1.0  0.08450  0.50243  0.30479  1.0000
  H   H390      1.0  0.02575  0.64444  0.43851  1.0000
  H   H391      1.0  0.04364  0.33712  0.43910  1.0000
  H   H392      1.0  0.03970  0.58450  0.31885  1.0000
  C   C233      1.0  0.04970  0.57480  0.25267  1.0000
  H   H393      1.0  0.02748  0.61277  0.30097  1.0000
  Fe  Fe54      1.0  0.09755  0.55975  0.30413  1.0000
  Fe  Fe55      1.0  0.10486  0.39014  0.25957  1.0000
  S   S95       1.0  0.09323  0.56937  0.32892  1.0000
  H   H394      1.0  0.12795  0.61447  0.31014  1.0000
  C   C234      1.0  0.01645  0.38996  0.29530  1.0000
  C   C235      1.0  0.11540  0.61190  0.44394  1.0000
  C   C236      1.0  0.12346  0.59753  0.45531  1.0000
  C   C237      1.0  0.12262  0.61629  0.47409  1.0000
  C   C238      1.0  0.05968  0.35193  0.25884  1.0000
  C   C239      1.0  0.11421  0.63068  0.46293  1.0000
  C   C240      1.0  0.11081  0.62852  0.44774  1.0000
  H   H395      1.0  0.12700  0.58465  0.45253  1.0000
  C   C241      1.0  0.99407  0.57477  0.31563  1.0000
  H   H396      1.0  0.11055  0.64346  0.46587  1.0000
  H   H397      1.0  0.10451  0.63967  0.43914  1.0000
  H   H398      1.0  0.14180  0.46627  0.27547  1.0000
  H   H399      1.0  0.06245  0.64298  0.41646  1.0000
  H   H400      1.0  0.06550  0.61633  0.28936  1.0000
  H   H401      1.0  0.05918  0.34020  0.25479  1.0000
  H   H402      1.0  0.00178  0.33363  0.36264  1.0000
  C   C242      1.0  0.02455  0.37220  0.29843  1.0000
  S   S96       1.0  0.01545  0.35723  0.29436  1.0000
  H   H403      1.0  0.13882  0.60500  0.36527  1.0000
  C   C243      1.0  0.99219  0.65199  0.42391  1.0000
  H   H404      1.0  0.11217  0.48120  0.25093  1.0000
  C   C244      1.0  0.03655  0.48083  0.28465  1.0000
  H   H405      1.0  0.03889  0.48214  0.31662  1.0000
  H   H406      1.0  0.07018  0.46402  0.27996  1.0000
  H   H407      1.0  0.13587  0.55448  0.39829  1.0000
  H   H408      1.0  0.11751  0.59057  0.30569  1.0000
  H   H409      1.0  0.01341  0.32718  0.41832  1.0000
  H   H410      1.0  0.15871  0.50358  0.24374  1.0000
  H   H411      1.0  0.14194  0.59851  0.39612  1.0000
  C   C245      1.0  0.11864  0.35123  0.33440  1.0000
  C   C246      1.0  0.12783  0.33801  0.34593  1.0000
  C   C247      1.0  0.11925  0.33099  0.36280  1.0000
  C   C248      1.0  0.06061  0.63455  0.42988  1.0000
  H   H412      1.0  0.11223  0.58064  0.40359  1.0000
  C   C249      1.0  0.10773  0.47766  0.26493  1.0000
  C   C250      1.0  0.03968  0.54840  0.25659  1.0000
  H   H413      1.0  0.99268  0.33351  0.32065  1.0000
  S   S97       1.0  0.09020  0.32847  0.38920  1.0000
  S   S98       1.0  0.07358  0.55372  0.30094  1.0000
  C   C251      1.0  0.04036  0.36659  0.30389  1.0000
  C   C252      1.0  0.04844  0.37892  0.30545  1.0000
  C   C253      1.0  0.04070  0.39679  0.30155  1.0000
  C   C254      1.0  0.02456  0.40225  0.29679  1.0000
  S   S99       1.0  0.09675  0.54098  0.26516  1.0000
  H   H414      1.0  0.04653  0.35281  0.30658  1.0000
  H   H415      1.0  0.06061  0.37461  0.30977  1.0000
  H   H416      1.0  0.01863  0.41603  0.29368  1.0000
  C   C255      1.0  0.04974  0.33246  0.42679  1.0000
  S   S100      1.0  0.14511  0.54218  0.25281  1.0000
  H   H417      1.0  0.15926  0.57991  0.39251  1.0000
  H   H418      1.0  0.14056  0.57752  0.40999  1.0000
  H   H419      1.0  0.09503  0.61087  0.36121  1.0000
  C   C256      1.0  0.14490  0.58433  0.39621  1.0000
  H   H420      1.0  0.06683  0.60939  0.32779  1.0000
  H   H421      1.0  0.14343  0.47903  0.25347  1.0000
  C   C257      1.0  0.11232  0.61421  0.33608  1.0000
  H   H422      1.0  0.99892  0.44100  0.29893  1.0000
  C   C258      1.0  0.14191  0.59062  0.36627  1.0000
  H   H423      1.0  0.02219  0.62267  0.31926  1.0000
  C   C259      1.0  0.10145  0.33742  0.36835  1.0000
  C   C260      1.0  0.06071  0.45599  0.28813  1.0000
  N   N24       1.0  0.05031  0.64500  0.44285  1.0000
  H   H424      1.0  0.06752  0.44517  0.29743  1.0000
  C   C261      1.0  0.11850  0.60846  0.32037  1.0000
  C   C262      1.0  0.15032  0.47361  0.26452  1.0000
  H   H425      1.0  0.07858  0.35606  0.36124  1.0000
  S   S101      1.0  0.11443  0.53383  0.29927  1.0000
  H   H426      1.0  0.05750  0.46421  0.31842  1.0000
  C   C263      1.0  0.10087  0.35774  0.33999  1.0000
  C   C264      1.0  0.11707  0.58713  0.38983  1.0000
  S   S102      1.0  0.13099  0.63622  0.38105  1.0000
  C   C265      1.0  0.13814  0.49995  0.27552  1.0000
  S   S103      1.0  0.12783  0.39239  0.26802  1.0000
  Fe  Fe56      1.0  0.09104  0.52902  0.29378  1.0000
  H   H427      1.0  0.15446  0.55703  0.38080  1.0000
  H   H428      1.0  0.08511  0.58653  0.35707  1.0000
  S   S104      1.0  0.99477  0.39682  0.25922  1.0000
  H   H429      1.0  0.03445  0.59420  0.33728  1.0000
  C   C266      1.0  0.05552  0.38335  0.25188  1.0000
  H   H430      1.0  0.15619  0.58650  0.36162  1.0000
  C   C267      1.0  0.10369  0.45548  0.29160  1.0000
  N   N25       1.0  0.13605  0.58104  0.38430  1.0000
  H   H431      1.0  0.05405  0.62439  0.42974  1.0000
  S   S105      1.0  0.08954  0.41688  0.26257  1.0000
  C   C268      1.0  0.11262  0.59491  0.31782  1.0000
  H   H432      1.0  0.02336  0.34574  0.40983  1.0000
  H   H433      1.0  0.02114  0.46298  0.31537  1.0000
  H   H434      1.0  0.03537  0.35895  0.23966  1.0000
  H   H435      1.0  0.02503  0.48940  0.29130  1.0000
  H   H436      1.0  0.13373  0.55923  0.37598  1.0000
  N   N26       1.0  0.04516  0.46667  0.29745  1.0000
  C   C269      1.0  0.09596  0.46864  0.30103  1.0000
  H   H437      1.0  0.14165  0.33316  0.34175  1.0000
  C   C270      1.0  0.02191  0.33425  0.42092  1.0000
  H   H438      1.0  0.05635  0.58281  0.33012  1.0000
  C   C271      1.0  0.03300  0.45543  0.30804  1.0000
  C   C272      1.0  0.10972  0.45996  0.27355  1.0000
  C   C273      1.0  0.09233  0.35095  0.35699  1.0000
  S   S106      1.0  0.06340  0.58548  0.25679  1.0000
  S   S107      1.0  0.00667  0.62045  0.36000  1.0000
  Fe  Fe57      1.0  0.11898  0.54749  0.27086  1.0000
  H   H439      1.0  0.10540  0.44188  0.29840  1.0000
  S   S108      1.0  0.12057  0.44365  0.26172  1.0000
  H   H440      1.0  0.10989  0.58455  0.38139  1.0000
  H   H441      1.0  0.16890  0.50780  0.25840  1.0000
  H   H442      1.0  0.11352  0.60144  0.38916  1.0000
  N   N27       1.0  0.04856  0.60819  0.31383  1.0000
  C   C274      1.0  0.03267  0.61942  0.30798  1.0000
  C   C275      1.0  0.06218  0.60420  0.29851  1.0000
  C   C276      1.0  0.04462  0.59169  0.32554  1.0000
  C   C277      1.0  0.05476  0.61743  0.32331  1.0000
  H   H443      1.0  0.03511  0.63202  0.29912  1.0000
  C   C278      1.0  0.03321  0.65397  0.43838  1.0000
  H   H444      1.0  0.06051  0.62635  0.46421  1.0000
  H   H445      1.0  0.05188  0.34402  0.41598  1.0000
  H   H446      1.0  0.05678  0.55076  0.27130  1.0000
  Fe  Fe58      1.0  0.99381  0.37240  0.28051  1.0000
  H   H447      1.0  0.05900  0.48356  0.30135  1.0000
  H   H448      1.0  0.05792  0.59720  0.29107  1.0000
  H   H449      1.0  0.03180  0.47546  0.27616  1.0000
  H   H450      1.0  0.03917  0.44438  0.31761  1.0000
  H   H451      1.0  0.04486  0.62054  0.33504  1.0000
  H   H452      1.0  0.05763  0.63008  0.31497  1.0000
  S   S109      1.0  0.12085  0.63053  0.33914  1.0000
  H   H453      1.0  0.03963  0.53487  0.26305  1.0000
  H   H454      1.0  0.09155  0.46508  0.31505  1.0000
  H   H455      1.0  0.04548  0.48932  0.27611  1.0000
  S   S110      1.0  0.10444  0.57397  0.27613  1.0000
  C   C279      1.0  0.04942  0.55737  0.26121  1.0000
  S   S111      1.0  0.99338  0.47805  0.29558  1.0000
  H   H456      1.0  0.05087  0.35202  0.27188  1.0000
  H   H457      1.0  0.02737  0.37032  0.25705  1.0000
  H   H458      1.0  0.17603  0.47048  0.28055  1.0000
  H   H459      1.0  0.16686  0.49014  0.28869  1.0000
  C   C280      1.0  0.16365  0.47985  0.28437  1.0000
  N   N28       1.0  0.15441  0.48763  0.26979  1.0000
  H   H460      1.0  0.13379  0.58859  0.47872  1.0000
  H   H461      1.0  0.00398  0.35786  0.33555  1.0000
  C   C281      1.0  0.03055  0.55677  0.24320  1.0000
  H   H462      1.0  0.09369  0.36799  0.33122  1.0000
  H   H463      1.0  0.04079  0.62328  0.46104  1.0000
  N   N29       1.0  0.05456  0.36821  0.24594  1.0000
  H   H464      1.0  0.12933  0.49330  0.28678  1.0000
  H   H465      1.0  0.00910  0.32749  0.33329  1.0000
  C   C282      1.0  0.03999  0.58334  0.23977  1.0000
  C   C283      1.0  0.99491  0.32937  0.33423  1.0000
  H   H466      1.0  0.07373  0.62775  0.43266  1.0000
  H   H467      1.0  0.07314  0.35027  0.26051  1.0000
  H   H468      1.0  0.99519  0.64541  0.39937  1.0000
  S   S112      1.0  0.99674  0.52785  0.28512  1.0000
  S   S113      1.0  0.99835  0.59689  0.33279  1.0000
  H   H469      1.0  0.99477  0.57907  0.39504  1.0000
  H   H470      1.0  0.05067  0.32729  0.39572  1.0000
  H   H471      1.0  0.13089  0.50633  0.26482  1.0000
  H   H472      1.0  0.00001  0.57447  0.37355  1.0000
  H   H473      1.0  0.16227  0.46394  0.26027  1.0000
  H   H474      1.0  0.06479  0.32927  0.48467  1.0000
  H   H475      1.0  0.04667  0.38431  0.26476  1.0000
  C   C284      1.0  0.04783  0.63333  0.46043  1.0000
  C   C285      1.0  0.03660  0.37005  0.24428  1.0000
  N   N30       1.0  0.03898  0.32264  0.42314  1.0000
  H   H476      1.0  0.07249  0.37606  0.69491  1.0000
  C   C286      1.0  0.03157  0.56269  0.67571  1.0000
  H   H477      1.0  0.07380  0.35794  0.71346  1.0000
  C   C287      1.0  0.04785  0.37371  0.73604  1.0000
  H   H478      1.0  0.04379  0.35617  0.71454  1.0000
  C   C288      1.0  0.11648  0.36177  0.59136  1.0000
  H   H479      1.0  0.15463  0.48906  0.70712  1.0000
  H   H480      1.0  0.02238  0.47434  0.63246  1.0000
  C   C289      1.0  0.01339  0.54622  0.67135  1.0000
  C   C290      1.0  0.16450  0.34784  0.59628  1.0000
  H   H481      1.0  0.01246  0.65033  0.49951  1.0000
  H   H482      1.0  0.01873  0.55055  0.70971  1.0000
  H   H483      1.0  0.15759  0.44680  0.67626  1.0000
  H   H484      1.0  0.02168  0.57509  0.67305  1.0000
  H   H485      1.0  0.17513  0.43016  0.68416  1.0000
  S   S114      1.0  0.14001  0.44615  0.73186  1.0000
  Fe  Fe59      1.0  0.09527  0.65441  0.53676  1.0000
  H   H486      1.0  0.04142  0.33109  0.63414  1.0000
  H   H487      1.0  0.19221  0.34576  0.60915  1.0000
  H   H488      1.0  0.16926  0.40212  0.70405  1.0000
  Fe  Fe60      1.0  0.08993  0.54998  0.66642  1.0000
  S   S115      1.0  0.11899  0.54612  0.65852  1.0000
  S   S116      1.0  0.07456  0.55019  0.69386  1.0000
  Fe  Fe61      1.0  0.08698  0.54377  0.63233  1.0000
  S   S117      1.0  0.11559  0.53943  0.62196  1.0000
  S   S118      1.0  0.07190  0.53857  0.61594  1.0000
  Fe  Fe62      1.0  0.11784  0.52341  0.64879  1.0000
  S   S119      1.0  0.13303  0.49547  0.65459  1.0000
  Fe  Fe63      1.0  0.11361  0.56266  0.63235  1.0000
  S   S120      1.0  0.12845  0.58215  0.61332  1.0000
  S   S121      1.0  0.08923  0.52622  0.65844  1.0000
  S   S122      1.0  0.08450  0.56825  0.64101  1.0000
  S   S123      1.0  0.09966  0.45374  0.62266  1.0000
  H   H489      1.0  0.12333  0.53184  0.70858  1.0000
  H   H490      1.0  0.99888  0.42277  0.66303  1.0000
  C   C291      1.0  0.04333  0.48393  0.60167  1.0000
  H   H491      1.0  0.10945  0.32260  0.61740  1.0000
  H   H492      1.0  0.13816  0.52611  0.68937  1.0000
  H   H493      1.0  0.06745  0.45532  0.61147  1.0000
  H   H494      1.0  0.07732  0.34906  0.60329  1.0000
  C   C292      1.0  0.02086  0.37302  0.55764  1.0000
  H   H495      1.0  0.04624  0.52928  0.67365  1.0000
  C   C293      1.0  0.01844  0.64913  0.52397  1.0000
  H   H496      1.0  0.13430  0.49702  0.73373  1.0000
  C   C294      1.0  0.11661  0.59992  0.60012  1.0000
  N   N31       1.0  0.15069  0.42248  0.69114  1.0000
  H   H497      1.0  0.14735  0.49511  0.68682  1.0000
  C   C295      1.0  0.09118  0.62352  0.59654  1.0000
  C   C296      1.0  0.10011  0.60890  0.60712  1.0000
  H   H498      1.0  0.03903  0.35323  0.62207  1.0000
  H   H499      1.0  0.07855  0.63063  0.60214  1.0000
  H   H500      1.0  0.09444  0.60485  0.62081  1.0000
  C   C297      1.0  0.12452  0.48342  0.64541  1.0000
  C   C298      1.0  0.12959  0.46509  0.64855  1.0000
  C   C299      1.0  0.12200  0.45565  0.64177  1.0000
  C   C300      1.0  0.10966  0.46466  0.63147  1.0000
  C   C301      1.0  0.10502  0.48294  0.62799  1.0000
  C   C302      1.0  0.11227  0.49222  0.63506  1.0000
  H   H501      1.0  0.13935  0.45830  0.65615  1.0000
  H   H502      1.0  0.12579  0.44152  0.64431  1.0000
  H   H503      1.0  0.09577  0.49006  0.61980  1.0000
  H   H504      1.0  0.10836  0.50626  0.63229  1.0000
  H   H505      1.0  0.02640  0.49521  0.63086  1.0000
  C   C303      1.0  0.11288  0.34906  0.60662  1.0000
  H   H506      1.0  0.10893  0.57754  0.58238  1.0000
  H   H507      1.0  0.13691  0.36006  0.61955  1.0000
  H   H508      1.0  0.02636  0.37507  0.71587  1.0000
  C   C304      1.0  0.01513  0.56696  0.62327  1.0000
  C   C305      1.0  0.02089  0.55235  0.61584  1.0000
  C   C306      1.0  0.03844  0.54384  0.61341  1.0000
  C   C307      1.0  0.05013  0.54962  0.61890  1.0000
  C   C308      1.0  0.04438  0.56420  0.62641  1.0000
  C   C309      1.0  0.02688  0.57304  0.62838  1.0000
  H   H509      1.0  0.01185  0.54767  0.61180  1.0000
  H   H510      1.0  0.04291  0.53269  0.60742  1.0000
  H   H511      1.0  0.05341  0.56880  0.63050  1.0000
  H   H512      1.0  0.02239  0.58438  0.63412  1.0000
  S   S124      1.0  0.08827  0.41248  0.62213  1.0000
  C   C310      1.0  0.14863  0.35238  0.62477  1.0000
  C   C311      1.0  0.02598  0.38971  0.63293  1.0000
  C   C312      1.0  0.04445  0.33376  0.59936  1.0000
  C   C313      1.0  0.14992  0.35801  0.71392  1.0000
  Fe  Fe64      1.0  0.12217  0.38970  0.65065  1.0000
  H   H513      1.0  0.02410  0.40323  0.56209  1.0000
  H   H514      1.0  0.07477  0.53493  0.73020  1.0000
  C   C314      1.0  0.13516  0.36769  0.72309  1.0000
  C   C315      1.0  0.08355  0.54375  0.72548  1.0000
  C   C316      1.0  0.08598  0.55293  0.70796  1.0000
  C   C317      1.0  0.09733  0.56432  0.70197  1.0000
  C   C318      1.0  0.10572  0.56698  0.71358  1.0000
  H   H515      1.0  0.05072  0.32962  0.58680  1.0000
  H   H516      1.0  0.17701  0.37531  0.59556  1.0000
  H   H517      1.0  0.09925  0.57149  0.68850  1.0000
  H   H518      1.0  0.11409  0.57620  0.70900  1.0000
  S   S125      1.0  0.14440  0.37531  0.66394  1.0000
  H   H519      1.0  0.17641  0.34901  0.58593  1.0000
  H   H520      1.0  0.11239  0.50882  0.73277  1.0000
  H   H521      1.0  0.15316  0.35535  0.59021  1.0000
  H   H522      1.0  0.12923  0.65056  0.55664  1.0000
  N   N32       1.0  0.02695  0.38751  0.54391  1.0000
  C   C319      1.0  0.06110  0.48655  0.61960  1.0000
  H   H523      1.0  0.11864  0.33880  0.56150  1.0000
  S   S126      1.0  0.10723  0.37436  0.64377  1.0000
  H   H524      1.0  0.15224  0.41395  0.71828  1.0000
  H   H525      1.0  0.03549  0.34680  0.59628  1.0000
  S   S127      1.0  0.00198  0.63839  0.53659  1.0000
  H   H526      1.0  0.03635  0.32438  0.60766  1.0000
  S   S128      1.0  0.02990  0.38690  0.59909  1.0000
  H   H527      1.0  0.10032  0.55824  0.58931  1.0000
  C   C320      1.0  0.05525  0.38496  0.61573  1.0000
  H   H528      1.0  0.01209  0.32823  0.51133  1.0000
  H   H529      1.0  0.04837  0.40216  0.69651  1.0000
  C   C321      1.0  0.12260  0.37940  0.71413  1.0000
  H   H530      1.0  0.05587  0.50094  0.61788  1.0000
  H   H531      1.0  0.06424  0.38308  0.60363  1.0000
  H   H532      1.0  0.06541  0.48164  0.63228  1.0000
  S   S129      1.0  0.11986  0.38202  0.59190  1.0000
  H   H533      1.0  0.07297  0.48438  0.60920  1.0000
  H   H534      1.0  0.03160  0.36410  0.56386  1.0000
  H   H535      1.0  0.16363  0.33385  0.60021  1.0000
  H   H536      1.0  0.00730  0.36823  0.66950  1.0000
  H   H537      1.0  0.03900  0.56415  0.68460  1.0000
  C   C322      1.0  0.03740  0.38754  0.61708  1.0000
  H   H538      1.0  0.13947  0.47844  0.70438  1.0000
  Fe  Fe65      1.0  0.11211  0.39149  0.61699  1.0000
  C   C323      1.0  0.04622  0.39797  0.71101  1.0000
  H   H539      1.0  0.16854  0.40792  0.67281  1.0000
  H   H540      1.0  0.12389  0.42074  0.69827  1.0000
  H   H541      1.0  0.01551  0.36503  0.55225  1.0000
  N   N33       1.0  0.04814  0.47745  0.61894  1.0000
  H   H542      1.0  0.03151  0.51957  0.69214  1.0000
  Fe  Fe66      1.0  0.00090  0.39260  0.60324  1.0000
  H   H543      1.0  0.15373  0.38107  0.59964  1.0000
  C   C324      1.0  0.04866  0.34066  0.62459  1.0000
  C   C325      1.0  0.11373  0.50705  0.69998  1.0000
  C   C326      1.0  0.04047  0.37071  0.71054  1.0000
  N   N34       1.0  0.05107  0.37870  0.71676  1.0000
  H   H544      1.0  0.04547  0.39085  0.51951  1.0000
  C   C327      1.0  0.11689  0.34161  0.57410  1.0000
  H   H545      1.0  0.02194  0.54404  0.65864  1.0000
  S   S130      1.0  0.08682  0.64743  0.56611  1.0000
  H   H546      1.0  0.11111  0.35186  0.61922  1.0000
  C   C328      1.0  0.10337  0.55776  0.73107  1.0000
  H   H547      1.0  0.05803  0.34276  0.63103  1.0000
  C   C329      1.0  0.13193  0.43063  0.69502  1.0000
  S   S131      1.0  0.12292  0.65142  0.52196  1.0000
  H   H548      1.0  0.07604  0.34216  0.58478  1.0000
  S   S132      1.0  0.09969  0.32792  0.54187  1.0000
  H   H549      1.0  0.12788  0.44096  0.68376  1.0000
  H   H550      1.0  0.10932  0.49464  0.70293  1.0000
  H   H551      1.0  0.07805  0.37818  0.71395  1.0000
  H   H552      1.0  0.14516  0.52012  0.70976  1.0000
  C   C330      1.0  0.05566  0.45839  0.62173  1.0000
  C   C331      1.0  0.14318  0.49124  0.70129  1.0000
  C   C332      1.0  0.03406  0.39760  0.55166  1.0000
  H   H553      1.0  0.16411  0.35304  0.68883  1.0000
  H   H554      1.0  0.12141  0.36766  0.56325  1.0000
  C   C333      1.0  0.01221  0.39906  0.53615  1.0000
  H   H555      1.0  0.15178  0.42496  0.66393  1.0000
  H   H556      1.0  0.14780  0.39825  0.70960  1.0000
  H   H557      1.0  0.12851  0.43686  0.70634  1.0000
  C   C334      1.0  0.10228  0.56969  0.57827  1.0000
  C   C335      1.0  0.03247  0.48094  0.63270  1.0000
  C   C336      1.0  0.04419  0.33495  0.52562  1.0000
  C   C337      1.0  0.14001  0.37199  0.68681  1.0000
  C   C338      1.0  0.05014  0.38834  0.64542  1.0000
  S   S133      1.0  0.12904  0.40523  0.62329  1.0000
  H   H558      1.0  0.12339  0.64928  0.57967  1.0000
  C   C339      1.0  0.15522  0.40861  0.70640  1.0000
  H   H559      1.0  0.07215  0.57632  0.60051  1.0000
  N   N35       1.0  0.02343  0.54746  0.68336  1.0000
  C   C340      1.0  0.05744  0.33389  0.51070  1.0000
  H   H560      1.0  0.15960  0.34892  0.72081  1.0000
  H   H561      1.0  0.00634  0.39167  0.53057  1.0000
  C   C341      1.0  0.01165  0.54960  0.70026  1.0000
  H   H562      1.0  0.12043  0.62364  0.55798  1.0000
  Fe  Fe67      1.0  0.11356  0.64246  0.50317  1.0000
  S   S134      1.0  0.08662  0.64323  0.51928  1.0000
  S   S135      1.0  0.99763  0.49926  0.60905  1.0000
  S   S136      1.0  0.04877  0.33546  0.54518  1.0000
  H   H563      1.0  0.14676  0.40504  0.67795  1.0000
  C   C342      1.0  0.12336  0.49896  0.72722  1.0000
  Fe  Fe68      1.0  0.10456  0.42449  0.63121  1.0000
  C   C343      1.0  0.06968  0.37244  0.70946  1.0000
  C   C344      1.0  0.07430  0.58711  0.58885  1.0000
  H   H564      1.0  0.06137  0.59474  0.58614  1.0000
  H   H565      1.0  0.08027  0.59586  0.59246  1.0000
  C   C345      1.0  0.04066  0.38030  0.53018  1.0000
  C   C346      1.0  0.06161  0.38501  0.62997  1.0000
  C   C347      1.0  0.03715  0.53134  0.68617  1.0000
  C   C348      1.0  0.15245  0.36033  0.69583  1.0000
  Fe  Fe69      1.0  0.08454  0.39627  0.64943  1.0000
  H   H566      1.0  0.07635  0.60325  0.55499  1.0000
  N   N36       1.0  0.08556  0.58021  0.57369  1.0000
  C   C349      1.0  0.08871  0.59495  0.55868  1.0000
  H   H567      1.0  0.14749  0.33848  0.62925  1.0000
  H   H568      1.0  0.14825  0.35708  0.63645  1.0000
  S   S137      1.0  0.09883  0.41006  0.65918  1.0000
  N   N37       1.0  0.05754  0.33464  0.60828  1.0000
  H   H569      1.0  0.06422  0.57652  0.56563  1.0000
  C   C350      1.0  0.12494  0.38142  0.69598  1.0000
  S   S138      1.0  0.05811  0.39116  0.66210  1.0000
  C   C351      1.0  0.07692  0.56903  0.56906  1.0000
  H   H570      1.0  0.09721  0.59028  0.54698  1.0000
  C   C352      1.0  0.11850  0.35796  0.57512  1.0000
  H   H571      1.0  0.11134  0.56457  0.56705  1.0000
  H   H572      1.0  0.07018  0.33537  0.51057  1.0000
  H   H573      1.0  0.11106  0.38673  0.72122  1.0000
  C   C353      1.0  0.12399  0.60547  0.58241  1.0000
  H   H574      1.0  0.08511  0.56352  0.55772  1.0000
  H   H575      1.0  0.03884  0.40862  0.54171  1.0000
  C   C354      1.0  0.06815  0.34701  0.59661  1.0000
  C   C355      1.0  0.15465  0.41479  0.67577  1.0000
  H   H576      1.0  0.07543  0.38259  0.62886  1.0000
  H   H577      1.0  0.00111  0.56165  0.69868  1.0000
  S   S139      1.0  0.12785  0.61843  0.49283  1.0000
  H   H578      1.0  0.04623  0.45101  0.62151  1.0000
  H   H579      1.0  0.05486  0.48166  0.59095  1.0000
  H   H580      1.0  0.09520  0.60364  0.56174  1.0000
  H   H581      1.0  0.07431  0.55781  0.58014  1.0000
  C   C356      1.0  0.05437  0.33050  0.49599  1.0000
  H   H582      1.0  0.03363  0.47726  0.60070  1.0000
  H   H583      1.0  0.10246  0.51714  0.70468  1.0000
  C   C357      1.0  0.09843  0.62892  0.57880  1.0000
  H   H584      1.0  0.13679  0.59857  0.57696  1.0000
  H   H585      1.0  0.05991  0.36007  0.59214  1.0000
  H   H586      1.0  0.03580  0.37239  0.52423  1.0000
  H   H587      1.0  0.02348  0.39241  0.65914  1.0000
  H   H588      1.0  0.03560  0.47625  0.64591  1.0000
  H   H589      1.0  0.05203  0.37155  0.53555  1.0000
  H   H590      1.0  0.99340  0.60948  0.56916  1.0000
  H   H591      1.0  0.11530  0.39048  0.68910  1.0000
  H   H592      1.0  0.01229  0.39094  0.63438  1.0000
  C   C358      1.0  0.02762  0.33377  0.52544  1.0000
  H   H593      1.0  0.05981  0.45310  0.63448  1.0000
  H   H594      1.0  0.11727  0.51131  0.68552  1.0000
  H   H595      1.0  0.03737  0.49823  0.59925  1.0000
  C   C359      1.0  0.03233  0.39029  0.64705  1.0000
  C   C360      1.0  0.11479  0.61973  0.57169  1.0000
  C   C361      1.0  0.03812  0.32794  0.49634  1.0000
  H   H596      1.0  0.01037  0.37804  0.56809  1.0000
  N   N38       1.0  0.12858  0.50467  0.70806  1.0000
  C   C362      1.0  0.13407  0.52141  0.70373  1.0000
  H   H597      1.0  0.01725  0.33497  0.53679  1.0000
  H   H598      1.0  0.01628  0.41005  0.52559  1.0000
  H   H599      1.0  0.14530  0.64994  0.56809  1.0000
  H   H600      1.0  0.02803  0.64927  0.54600  1.0000
  H   H601      1.0  0.04231  0.37432  0.69606  1.0000
  H   H602      1.0  0.15854  0.44170  0.69882  1.0000
  H   H603      1.0  0.04090  0.56126  0.66319  1.0000
  C   C363      1.0  0.02931  0.65331  0.53198  1.0000
  C   C364      1.0  0.16094  0.43587  0.68739  1.0000
  N   N39       1.0  0.16456  0.35445  0.61135  1.0000
  H   H604      1.0  0.04511  0.53201  0.69498  1.0000
  C   C365      1.0  0.16508  0.37320  0.60557  1.0000
  H   H605      1.0  0.00720  0.47109  0.59106  1.0000
  C   C366      1.0  0.13142  0.65526  0.56722  1.0000
  H   H606      1.0  0.16472  0.37871  0.61672  1.0000
  H   H607      1.0  0.04506  0.38917  0.55782  1.0000
  C   C367      1.0  0.11185  0.33250  0.60557  1.0000
  H   H608      1.0  0.00164  0.40482  0.54610  1.0000
  S   S140      1.0  0.99314  0.57711  0.62678  1.0000
  C   C368      1.0  0.02470  0.32993  0.51097  1.0000
  H   H609      1.0  0.00328  0.55841  0.66847  1.0000
  H   H610      1.0  0.11922  0.48630  0.73099  1.0000
  C   C369      1.0  0.11370  0.32877  0.58931  1.0000
  H   H611      1.0  0.00521  0.53837  0.70644  1.0000
  C   C370      1.0  0.99349  0.36886  0.67354  1.0000
  H   H612      1.0  0.00656  0.53523  0.67701  1.0000
  C   C371      1.0  0.02018  0.65432  0.50583  1.0000
  H   H613      1.0  0.18016  0.34914  0.63035  1.0000
  C   C372      1.0  0.17991  0.34445  0.61887  1.0000
  H   H614      1.0  0.17214  0.45659  0.72576  1.0000
  H   H615      1.0  0.05397  0.40443  0.71550  1.0000
  H   H616      1.0  0.17986  0.33025  0.62341  1.0000
  H   H617      1.0  0.03229  0.40317  0.71634  1.0000
  C   C373      1.0  0.99436  0.47103  0.59917  1.0000
  S   S141      1.0  0.99698  0.37125  0.70490  1.0000
  S   S142      1.0  0.99597  0.40067  0.73233  1.0000
  H   H618      1.0  0.99211  0.40551  0.68062  1.0000
  C   C374      1.0  0.15884  0.47422  0.76159  1.0000
  H   H619      1.0  0.17734  0.49071  0.95529  1.0000
  S   S143      1.0  0.01151  0.37851  0.77676  1.0000
  H   H620      1.0  0.03381  0.37774  0.74187  1.0000
  H   H621      1.0  0.03296  0.43172  0.74624  1.0000
  N   N40       1.0  0.17285  0.35300  0.88659  1.0000
  H   H622      1.0  0.04498  0.57035  0.81060  1.0000
  C   C375      1.0  0.02762  0.47709  0.79357  1.0000
  H   H623      1.0  0.30560  0.57177  0.96867  1.0000
  C   C376      1.0  0.15790  0.46445  0.82336  1.0000
  Fe  Fe70      1.0  0.11650  0.40544  0.78707  1.0000
  S   S144      1.0  0.10373  0.43201  0.77312  1.0000
  C   C377      1.0  0.30679  0.41988  0.95032  1.0000
  H   H624      1.0  0.18832  0.53486  0.96504  1.0000
  S   S145      1.0  0.14456  0.53431  0.77737  1.0000
  H   H625      1.0  0.14214  0.44738  0.85337  1.0000
  Fe  Fe71      1.0  0.08977  0.41746  0.76390  1.0000
  S   S146      1.0  0.13885  0.40125  0.76451  1.0000
  H   H626      1.0  0.27970  0.60200  0.95007  1.0000
  H   H627      1.0  0.04530  0.46682  0.75399  1.0000
  H   H628      1.0  0.05510  0.37999  0.74134  1.0000
  S   S147      1.0  0.01680  0.54312  0.78035  1.0000
  H   H629      1.0  0.06131  0.46267  0.79384  1.0000
  S   S148      1.0  0.30105  0.40635  0.94066  1.0000
  C   C378      1.0  0.06442  0.51015  0.80183  1.0000
  H   H630      1.0  0.02992  0.45720  0.77149  1.0000
  Fe  Fe72      1.0  0.24336  0.51753  0.88544  1.0000
  S   S149      1.0  0.22954  0.54444  0.87350  1.0000
  S   S150      1.0  0.27210  0.50709  0.88503  1.0000
  Fe  Fe73      1.0  0.20950  0.50550  0.90211  1.0000
  S   S151      1.0  0.19293  0.53138  0.89183  1.0000
  S   S152      1.0  0.19878  0.48252  0.91927  1.0000
  Fe  Fe74      1.0  0.21277  0.53065  0.86681  1.0000
  S   S153      1.0  0.20746  0.53658  0.83961  1.0000
  Fe  Fe75      1.0  0.21107  0.54255  0.89959  1.0000
  S   S154      1.0  0.19991  0.56477  0.91340  1.0000
  S   S155      1.0  0.22823  0.50372  0.87669  1.0000
  S   S156      1.0  0.22599  0.51664  0.91193  1.0000
  S   S157      1.0  0.10309  0.54123  0.79647  1.0000
  C   C379      1.0  0.18815  0.36024  0.87661  1.0000
  H   H631      1.0  0.07181  0.58087  0.75717  1.0000
  C   C380      1.0  0.15909  0.36677  0.89385  1.0000
  H   H632      1.0  0.12400  0.45843  0.76356  1.0000
  H   H633      1.0  0.18481  0.37144  0.86569  1.0000
  C   C381      1.0  0.14235  0.47042  0.76763  1.0000
  S   S158      1.0  0.16566  0.48600  0.77235  1.0000
  C   C382      1.0  0.04027  0.58055  0.77766  1.0000
  Fe  Fe76      1.0  0.19535  0.40246  0.85333  1.0000
  S   S159      1.0  0.17436  0.40614  0.87697  1.0000
  S   S160      1.0  0.19283  0.39240  0.83133  1.0000
  Fe  Fe77      1.0  0.22035  0.41647  0.86466  1.0000
  S   S161      1.0  0.20165  0.42059  0.88948  1.0000
  Fe  Fe78      1.0  0.19628  0.39474  0.89130  1.0000
  S   S162      1.0  0.19128  0.37591  0.91713  1.0000
  Fe  Fe79      1.0  0.18158  0.43159  0.87307  1.0000
  S   S163      1.0  0.16323  0.45755  0.87457  1.0000
  S   S164      1.0  0.21707  0.38923  0.86788  1.0000
  S   S165      1.0  0.20055  0.42914  0.84797  1.0000
  H   H634      1.0  0.25639  0.39116  0.86362  1.0000
  C   C383      1.0  0.20265  0.37859  0.93127  1.0000
  C   C384      1.0  0.19457  0.37904  0.94868  1.0000
  C   C385      1.0  0.20352  0.38178  0.95979  1.0000
  C   C386      1.0  0.22076  0.38351  0.95365  1.0000
  C   C387      1.0  0.22901  0.38233  0.93644  1.0000
  C   C388      1.0  0.21986  0.38033  0.92515  1.0000
  H   H635      1.0  0.18127  0.37764  0.95349  1.0000
  N   N41       1.0  0.30726  0.47136  0.85761  1.0000
  H   H636      1.0  0.24249  0.38304  0.93173  1.0000
  H   H637      1.0  0.22626  0.37975  0.91180  1.0000
  C   C389      1.0  0.15383  0.53890  0.83057  1.0000
  H   H638      1.0  0.16091  0.43214  0.84495  1.0000
  C   C390      1.0  0.16836  0.53870  0.81679  1.0000
  H   H639      1.0  0.29132  0.49603  0.96294  1.0000
  H   H640      1.0  0.16257  0.35753  0.86369  1.0000
  H   H641      1.0  0.29409  0.51870  0.91618  1.0000
  Fe  Fe80      1.0  0.10488  0.51286  0.79847  1.0000
  C   C391      1.0  0.31079  0.42593  0.97620  1.0000
  H   H642      1.0  0.02855  0.58543  0.78715  1.0000
  H   H643      1.0  0.30383  0.41885  0.86137  1.0000
  C   C392      1.0  0.18595  0.47669  0.90870  1.0000
  C   C393      1.0  0.18292  0.45977  0.91390  1.0000
  C   C394      1.0  0.17461  0.45428  0.90417  1.0000
  C   C395      1.0  0.16913  0.46571  0.88936  1.0000
  C   C396      1.0  0.17061  0.48313  0.88520  1.0000
  C   C397      1.0  0.17941  0.48851  0.89459  1.0000
  H   H644      1.0  0.18748  0.45069  0.92508  1.0000
  H   H645      1.0  0.17265  0.44106  0.90800  1.0000
  H   H646      1.0  0.16564  0.49226  0.87427  1.0000
  H   H647      1.0  0.18128  0.50173  0.89071  1.0000
  C   C398      1.0  0.28490  0.52285  0.87852  1.0000
  C   C399      1.0  0.27821  0.54038  0.87121  1.0000
  C   C400      1.0  0.28861  0.55272  0.86631  1.0000
  C   C401      1.0  0.30562  0.54767  0.86907  1.0000
  H   H648      1.0  0.31046  0.48308  0.95182  1.0000
  C   C402      1.0  0.30214  0.51772  0.88074  1.0000
  H   H649      1.0  0.26505  0.54449  0.86923  1.0000
  H   H650      1.0  0.28333  0.56627  0.86071  1.0000
  Fe  Fe81      1.0  0.99449  0.53161  0.78159  1.0000
  H   H651      1.0  0.18843  0.32779  0.89611  1.0000
  C   C403      1.0  0.20670  0.56508  0.93200  1.0000
  C   C404      1.0  0.20011  0.58007  0.93887  1.0000
  C   C405      1.0  0.20489  0.58095  0.95375  1.0000
  C   C406      1.0  0.21607  0.56671  0.96217  1.0000
  C   C407      1.0  0.22258  0.55152  0.95550  1.0000
  C   C408      1.0  0.21808  0.55081  0.94026  1.0000
  H   H652      1.0  0.19133  0.59114  0.93256  1.0000
  H   H653      1.0  0.19981  0.59271  0.95881  1.0000
  H   H654      1.0  0.23119  0.54044  0.96192  1.0000
  H   H655      1.0  0.22345  0.53933  0.93488  1.0000
  Fe  Fe82      1.0  0.11886  0.54085  0.76929  1.0000
  H   H656      1.0  0.03994  0.58978  0.76472  1.0000
  C   C409      1.0  0.18465  0.53835  0.81967  1.0000
  C   C410      1.0  0.18663  0.53778  0.83641  1.0000
  C   C411      1.0  0.17216  0.53768  0.85023  1.0000
  C   C412      1.0  0.15582  0.53841  0.84727  1.0000
  H   H657      1.0  0.19575  0.53852  0.80889  1.0000
  H   H658      1.0  0.17348  0.53727  0.86316  1.0000
  H   H659      1.0  0.14463  0.53863  0.85797  1.0000
  H   H660      1.0  0.28588  0.37281  0.86618  1.0000
  C   C413      1.0  0.29673  0.39462  0.86424  1.0000
  H   H661      1.0  0.15148  0.47290  0.83295  1.0000
  C   C414      1.0  0.02379  0.40810  0.75922  1.0000
  C   C415      1.0  0.05759  0.59575  0.78516  1.0000
  C   C416      1.0  0.13962  0.39837  0.81958  1.0000
  C   C417      1.0  0.14088  0.39843  0.83638  1.0000
  C   C418      1.0  0.15714  0.39656  0.84019  1.0000
  C   C419      1.0  0.17226  0.39438  0.82725  1.0000
  C   C420      1.0  0.17105  0.39381  0.81064  1.0000
  C   C421      1.0  0.15479  0.39595  0.80676  1.0000
  H   H662      1.0  0.15794  0.39690  0.85305  1.0000
  H   H663      1.0  0.18270  0.39201  0.80060  1.0000
  H   H664      1.0  0.15404  0.39574  0.79384  1.0000
  H   H665      1.0  0.04662  0.49740  0.82281  1.0000
  S   S166      1.0  0.06253  0.42930  0.75959  1.0000
  H   H666      1.0  0.31158  0.48034  0.92144  1.0000
  H   H667      1.0  0.27794  0.59020  0.93531  1.0000
  C   C422      1.0  0.03499  0.46935  0.76563  1.0000
  H   H668      1.0  0.18240  0.47200  0.74190  1.0000
  H   H669      1.0  0.05576  0.55283  0.79968  1.0000
  C   C423      1.0  0.30468  0.41619  0.96847  1.0000
  H   H670      1.0  0.13010  0.46794  0.80978  1.0000
  Fe  Fe83      1.0  0.12886  0.53217  0.80479  1.0000
  N   N42       1.0  0.04174  0.47409  0.77831  1.0000
  H   H671      1.0  0.27447  0.43714  0.85861  1.0000
  H   H672      1.0  0.09069  0.53867  0.75031  1.0000
  C   C424      1.0  0.14767  0.43961  0.84310  1.0000
  C   C425      1.0  0.29131  0.57371  0.97387  1.0000
  C   C426      1.0  0.16967  0.46902  0.74661  1.0000
  H   H673      1.0  0.03231  0.48039  0.80356  1.0000
  C   C427      1.0  0.30485  0.48956  0.84711  1.0000
  S   S167      1.0  0.12913  0.50380  0.80911  1.0000
  C   C428      1.0  0.07161  0.57212  0.77042  1.0000
  H   H674      1.0  0.17135  0.45832  0.82540  1.0000
  C   C429      1.0  0.02598  0.39238  0.77171  1.0000
  C   C430      1.0  0.03994  0.38763  0.78016  1.0000
  C   C431      1.0  0.05154  0.39868  0.77623  1.0000
  H   H675      1.0  0.04182  0.37538  0.78974  1.0000
  H   H676      1.0  0.06221  0.39499  0.78288  1.0000
  C   C432      1.0  0.13678  0.46124  0.75886  1.0000
  H   H677      1.0  0.28723  0.54634  0.96484  1.0000
  H   H678      1.0  0.28921  0.56271  0.98534  1.0000
  N   N43       1.0  0.20637  0.48259  0.83817  1.0000
  C   C433      1.0  0.21891  0.49399  0.83287  1.0000
  C   C434      1.0  0.20853  0.47061  0.85518  1.0000
  C   C435      1.0  0.20960  0.47237  0.82486  1.0000
  C   C436      1.0  0.18848  0.49343  0.83983  1.0000
  H   H679      1.0  0.21665  0.50437  0.82096  1.0000
  H   H680      1.0  0.23254  0.48637  0.83023  1.0000
  H   H681      1.0  0.21772  0.50078  0.84331  1.0000
  H   H682      1.0  0.19950  0.46158  0.85956  1.0000
  H   H683      1.0  0.22197  0.46250  0.85452  1.0000
  H   H684      1.0  0.20588  0.47796  0.86555  1.0000
  H   H685      1.0  0.19963  0.46455  0.82789  1.0000
  H   H686      1.0  0.22254  0.46309  0.82413  1.0000
  H   H687      1.0  0.20913  0.48108  0.81167  1.0000
  H   H688      1.0  0.17863  0.48523  0.84475  1.0000
  H   H689      1.0  0.18607  0.50210  0.82710  1.0000
  H   H690      1.0  0.18596  0.50199  0.84909  1.0000
  N   N44       1.0  0.28201  0.57433  0.96044  1.0000
  H   H691      1.0  0.29875  0.58848  0.93967  1.0000
  H   H692      1.0  0.01674  0.48806  0.78972  1.0000
  N   N45       1.0  0.29070  0.49594  0.93676  1.0000
  H   H693      1.0  0.05300  0.54109  0.76657  1.0000
  C   C437      1.0  0.21456  0.45795  0.98390  1.0000
  C   C438      1.0  0.29711  0.48369  0.92493  1.0000
  H   H694      1.0  0.29231  0.48946  0.91259  1.0000
  S   S168      1.0  0.11865  0.51316  0.77070  1.0000
  H   H695      1.0  0.25576  0.57644  0.95848  1.0000
  H   H696      1.0  0.05163  0.44719  0.79006  1.0000
  C   C439      1.0  0.03503  0.41937  0.75564  1.0000
  H   H697      1.0  0.03775  0.50158  0.76617  1.0000
  C   C440      1.0  0.27152  0.50125  0.93970  1.0000
  H   H698      1.0  0.13389  0.47451  0.77911  1.0000
  H   H699      1.0  0.02412  0.47988  0.76105  1.0000
  H   H700      1.0  0.16738  0.53071  0.94150  1.0000
  C   C441      1.0  0.29108  0.46517  0.86123  1.0000
  H   H701      1.0  0.05856  0.48858  0.75803  1.0000
  C   C442      1.0  0.16628  0.34671  0.87486  1.0000
  H   H702      1.0  0.12918  0.40023  0.84637  1.0000
  S   S169      1.0  0.11892  0.40198  0.81496  1.0000
  H   H703      1.0  0.18288  0.34288  0.91010  1.0000
  C   C443      1.0  0.03502  0.52901  0.78792  1.0000
  C   C444      1.0  0.29604  0.48723  0.95361  1.0000
  C   C445      1.0  0.04895  0.41467  0.76410  1.0000
  H   H704      1.0  0.31468  0.45708  0.88199  1.0000
  H   H705      1.0  0.02207  0.46530  0.79988  1.0000
  H   H706      1.0  0.17670  0.49133  0.97724  1.0000
  H   H707      1.0  0.07171  0.55886  0.76929  1.0000
  H   H708      1.0  0.03891  0.56783  0.77637  1.0000
  H   H709      1.0  0.22087  0.43857  0.90658  1.0000
  C   C446      1.0  0.23235  0.42838  0.91031  1.0000
  C   C447      1.0  0.26669  0.39719  0.86325  1.0000
  H   H710      1.0  0.25122  0.40674  0.93413  1.0000
  H   H711      1.0  0.22802  0.41585  0.91606  1.0000
  N   N46       1.0  0.05645  0.57860  0.78344  1.0000
  H   H712      1.0  0.32287  0.47647  0.87203  1.0000
  C   C448      1.0  0.16385  0.46037  0.73748  1.0000
  H   H713      1.0  0.29899  0.40534  0.97646  1.0000
  S   S170      1.0  0.23228  0.38761  0.96688  1.0000
  H   H714      1.0  0.24011  0.46094  0.96923  1.0000
  H   H715      1.0  0.24217  0.42676  0.89808  1.0000
  H   H716      1.0  0.16660  0.53140  0.97186  1.0000
  S   S171      1.0  0.22181  0.56860  0.98075  1.0000
  C   C449      1.0  0.14745  0.45635  0.74369  1.0000
  S   S172      1.0  0.10039  0.39124  0.77992  1.0000
  S   S173      1.0  0.31831  0.56329  0.86392  1.0000
  H   H717      1.0  0.15891  0.47310  0.81004  1.0000
  H   H718      1.0  0.29263  0.47126  0.93103  1.0000
  Fe  Fe84      1.0  0.14286  0.50652  0.78116  1.0000
  H   H719      1.0  0.25756  0.58841  0.97302  1.0000
  C   C450      1.0  0.29346  0.41276  0.86219  1.0000
  N   N47       1.0  0.23944  0.43314  0.92273  1.0000
  C   C451      1.0  0.25479  0.41946  0.92716  1.0000
  H   H720      1.0  0.26493  0.41721  0.91531  1.0000
  H   H721      1.0  0.30045  0.47820  0.88253  1.0000
  H   H722      1.0  0.01341  0.41162  0.75234  1.0000
  H   H723      1.0  0.19356  0.36493  0.88511  1.0000
  S   S174      1.0  0.08262  0.49946  0.81112  1.0000
  H   H724      1.0  0.22132  0.42240  0.94486  1.0000
  C   C452      1.0  0.22599  0.43475  0.93880  1.0000
  H   H725      1.0  0.12256  0.44963  0.82473  1.0000
  S   S175      1.0  0.24312  0.42893  0.85870  1.0000
  H   H726      1.0  0.23332  0.46062  0.91095  1.0000
  H   H727      1.0  0.26089  0.42292  0.93599  1.0000
  C   C453      1.0  0.24458  0.45006  0.91462  1.0000
  H   H728      1.0  0.07889  0.52467  0.77914  1.0000
  C   C454      1.0  0.18056  0.52457  0.96993  1.0000
  H   H729      1.0  0.19714  0.38237  0.97311  1.0000
  H   H730      1.0  0.27992  0.47372  0.86836  1.0000
  H   H731      1.0  0.16674  0.33250  0.90891  1.0000
  C   C455      1.0  0.28470  0.58943  0.94573  1.0000
  H   H732      1.0  0.18410  0.51529  0.93090  1.0000
  H   H733      1.0  0.21447  0.44541  0.93607  1.0000
  H   H734      1.0  0.23107  0.43761  0.94876  1.0000
  H   H735      1.0  0.25480  0.44922  0.90254  1.0000
  C   C456      1.0  0.28338  0.38684  0.86463  1.0000
  N   N48       1.0  0.18483  0.51303  0.95758  1.0000
  H   H736      1.0  0.31264  0.50795  0.92593  1.0000
  C   C457      1.0  0.26324  0.57617  0.96814  1.0000
  H   H737      1.0  0.29073  0.47530  0.96001  1.0000
  H   H738      1.0  0.24971  0.45423  0.92371  1.0000
  C   C458      1.0  0.20341  0.50422  0.95556  1.0000
  H   H739      1.0  0.32394  0.44614  0.85539  1.0000
  S   S176      1.0  0.13310  0.36504  0.74560  1.0000
  C   C459      1.0  0.04800  0.50683  0.81046  1.0000
  C   C460      1.0  0.05155  0.53164  0.77890  1.0000
  H   H740      1.0  0.18334  0.51703  0.98293  1.0000
  C   C461      1.0  0.17424  0.49965  0.96436  1.0000
  S   S177      1.0  0.25851  0.52732  0.98223  1.0000
  H   H741      1.0  0.28688  0.58600  0.97871  1.0000
  C   C462      1.0  0.31970  0.44402  0.94779  1.0000
  C   C463      1.0  0.29815  0.51159  0.92875  1.0000
  H   H742      1.0  0.17027  0.43313  0.81395  1.0000
  H   H743      1.0  0.29399  0.49851  0.85399  1.0000
  H   H744      1.0  0.30288  0.55626  0.94800  1.0000
  H   H745      1.0  0.15460  0.34130  0.88186  1.0000
  C   C464      1.0  0.26351  0.41534  0.86108  1.0000
  H   H746      1.0  0.31672  0.49476  0.84443  1.0000
  H   H747      1.0  0.06968  0.59468  0.78953  1.0000
  H   H748      1.0  0.29241  0.45158  0.86939  1.0000
  S   S178      1.0  0.11003  0.41451  0.73960  1.0000
  C   C465      1.0  0.06621  0.52231  0.78590  1.0000
  H   H749      1.0  0.14953  0.43082  0.81268  1.0000
  C   C466      1.0  0.04834  0.49021  0.76997  1.0000
  H   H750      1.0  0.16694  0.53928  0.80383  1.0000
  H   H751      1.0  0.30763  0.50422  0.88611  1.0000
  H   H752      1.0  0.26552  0.48970  0.94554  1.0000
  C   C467      1.0  0.15697  0.44049  0.81213  1.0000
  C   C468      1.0  0.27691  0.42309  0.86050  1.0000
  C   C469      1.0  0.32165  0.45997  0.84783  1.0000
  C   C470      1.0  0.17793  0.33835  0.90105  1.0000
  H   H753      1.0  0.15826  0.44891  0.79866  1.0000
  H   H754      1.0  0.04636  0.60110  0.79486  1.0000
  C   C471      1.0  0.31827  0.43989  0.96585  1.0000
  H   H755      1.0  0.17631  0.33627  0.86918  1.0000
  C   C472      1.0  0.03325  0.51632  0.80352  1.0000
  S   S179      1.0  0.13290  0.54049  0.82736  1.0000
  C   C473      1.0  0.13024  0.45949  0.82308  1.0000
  H   H756      1.0  0.28762  0.46519  0.84896  1.0000
  H   H757      1.0  0.19875  0.35031  0.87076  1.0000
  H   H758      1.0  0.30181  0.49051  0.83436  1.0000
  H   H759      1.0  0.02048  0.51436  0.81061  1.0000
  H   H760      1.0  0.26706  0.50807  0.92725  1.0000
  N   N49       1.0  0.14819  0.45101  0.82541  1.0000
  H   H761      1.0  0.13951  0.43004  0.84556  1.0000
  H   H762      1.0  0.12322  0.46781  0.83266  1.0000
  C   C474      1.0  0.05603  0.45969  0.78407  1.0000
  C   C475      1.0  0.28878  0.55799  0.95402  1.0000
  H   H763      1.0  0.99514  0.41808  0.80095  1.0000
  H   H764      1.0  0.21185  0.51383  0.95057  1.0000
  H   H765      1.0  0.06830  0.56434  0.80538  1.0000
  Fe  Fe85      1.0  0.12177  0.38938  0.75611  1.0000
  C   C476      1.0  0.22942  0.46481  0.97954  1.0000
  Fe  Fe86      1.0  0.12497  0.42672  0.75015  1.0000
  H   H766      1.0  0.29391  0.52094  0.93748  1.0000
  H   H767      1.0  0.26616  0.51025  0.94883  1.0000
  H   H768      1.0  0.28190  0.55792  0.94402  1.0000
  S   S180      1.0  0.99819  0.51807  0.76015  1.0000
  S   S181      1.0  0.24919  0.48480  0.98324  1.0000
  H   H769      1.0  0.14747  0.36166  0.90176  1.0000
  H   H770      1.0  0.06698  0.45722  0.77289  1.0000
  C   C477      1.0  0.31235  0.53012  0.87632  1.0000
  H   H771      1.0  0.05421  0.49367  0.77896  1.0000
  H   H772      1.0  0.16012  0.50575  0.96598  1.0000
  H   H773      1.0  0.26073  0.56508  0.97939  1.0000
  H   H774      1.0  0.18924  0.53363  0.93482  1.0000
  C   C478      1.0  0.18123  0.52362  0.94047  1.0000
  H   H775      1.0  0.08407  0.57125  0.77394  1.0000
  S   S182      1.0  0.31860  0.41750  0.89033  1.0000
  H   H776      1.0  0.20646  0.49622  0.96824  1.0000
  C   C479      1.0  0.31146  0.47075  0.87428  1.0000
  H   H777      1.0  0.20713  0.49532  0.94639  1.0000
  Fe  Fe87      1.0  0.32157  0.40185  0.91699  1.0000
  C   C480      1.0  0.05637  0.56601  0.80051  1.0000
  S   S183      1.0  0.31752  0.38170  0.86626  1.0000
  H   H778      1.0  0.31612  0.43658  0.92589  1.0000
  H   H779      1.0  0.05783  0.60551  0.77246  1.0000
  S   S184      1.0  0.11347  0.56200  0.74546  1.0000
  H   H780      1.0  0.15475  0.37794  0.88332  1.0000
  C   C481      1.0  0.31430  0.43380  0.93995  1.0000
  H   H781      1.0  0.31898  0.46006  0.83515  1.0000
  H   H782      1.0  0.21378  0.44878  0.97697  1.0000
  H   H783      1.0  0.16375  0.37206  0.90249  1.0000
  H   H784      1.0  0.99270  0.39593  0.80994  1.0000
  H   H785      1.0  0.99746  0.43873  0.77385  1.0000
  C   C482      1.0  0.09251  0.54588  0.73690  1.0000
  H   H786      1.0  0.05177  0.35930  0.74089  1.0000
  Fe  Fe88      1.0  0.17843  0.88749  0.39881  1.0000
  S   S185      1.0  0.19454  0.86106  0.39576  1.0000
  S   S186      1.0  0.16143  0.89257  0.42429  1.0000
  Fe  Fe89      1.0  0.19437  0.90587  0.36250  1.0000
  S   S187      1.0  0.21166  0.88080  0.35609  1.0000
  S   S188      1.0  0.19540  0.93323  0.34640  1.0000
  Fe  Fe90      1.0  0.18815  0.86923  0.36917  1.0000
  S   S189      1.0  0.18405  0.84748  0.35983  1.0000
  Fe  Fe91      1.0  0.21651  0.87461  0.38313  1.0000
  S   S190      1.0  0.17019  0.89499  0.37315  1.0000
  S   S191      1.0  0.20096  0.90038  0.38854  1.0000
  C   C483      1.0  0.02659  0.66344  0.36810  1.0000
  C   C484      1.0  0.17421  0.84321  0.44396  1.0000
  H   H787      1.0  0.06582  0.75309  0.34823  1.0000
  H   H788      1.0  0.18184  0.94633  0.41419  1.0000
  H   H789      1.0  0.05225  0.66628  0.45233  1.0000
  S   S192      1.0  0.99858  0.77921  0.46713  1.0000
  H   H790      1.0  0.28634  0.88693  0.44097  1.0000
  S   S193      1.0  0.05634  0.67799  0.39103  1.0000
  S   S194      1.0  0.13747  0.68133  0.38455  1.0000
  N   N50       1.0  0.16798  0.84451  0.46241  1.0000
  H   H791      1.0  0.13734  0.76685  0.47202  1.0000
  S   S195      1.0  0.15126  0.79758  0.45442  1.0000
  S   S196      1.0  0.29591  0.91081  0.34826  1.0000
  H   H792      1.0  0.99860  0.66279  0.41814  1.0000
  N   N51       1.0  0.06937  0.72919  0.36795  1.0000
  H   H793      1.0  0.16229  0.97365  0.40184  1.0000
  H   H794      1.0  0.18999  0.97571  0.44494  1.0000
  C   C485      1.0  0.15112  0.85728  0.46438  1.0000
  Fe  Fe92      1.0  0.10422  0.80621  0.37950  1.0000
  S   S197      1.0  0.12468  0.78126  0.37868  1.0000
  S   S198      1.0  0.10823  0.83328  0.37690  1.0000
  Fe  Fe93      1.0  0.07419  0.78742  0.39007  1.0000
  S   S199      1.0  0.09204  0.76104  0.39066  1.0000
  S   S200      1.0  0.04524  0.79020  0.39932  1.0000
  Fe  Fe94      1.0  0.10771  0.77002  0.40354  1.0000
  S   S201      1.0  0.11682  0.75306  0.42774  1.0000
  Fe  Fe95      1.0  0.10723  0.77451  0.36577  1.0000
  S   S202      1.0  0.11583  0.75964  0.34455  1.0000
  S   S203      1.0  0.08844  0.79528  0.40540  1.0000
  S   S204      1.0  0.08812  0.80050  0.36420  1.0000
  C   C486      1.0  0.01366  0.77613  0.36895  1.0000
  C   C487      1.0  0.03091  0.77746  0.36135  1.0000
  C   C488      1.0  0.04076  0.78192  0.37046  1.0000
  C   C489      1.0  0.03343  0.78482  0.38727  1.0000
  C   C490      1.0  0.01616  0.78366  0.39472  1.0000
  C   C491      1.0  0.00629  0.77943  0.38557  1.0000
  H   H795      1.0  0.03652  0.77534  0.34831  1.0000
  H   H796      1.0  0.05387  0.78346  0.36438  1.0000
  H   H797      1.0  0.01035  0.78600  0.40764  1.0000
  H   H798      1.0  0.26471  0.93836  0.35740  1.0000
  C   C492      1.0  0.14459  0.78307  0.44665  1.0000
  C   C493      1.0  0.14509  0.78600  0.42881  1.0000
  C   C494      1.0  0.13677  0.77662  0.42291  1.0000
  C   C495      1.0  0.12857  0.76377  0.43474  1.0000
  C   C496      1.0  0.12917  0.75996  0.45241  1.0000
  C   C497      1.0  0.13706  0.76970  0.45836  1.0000
  H   H799      1.0  0.15134  0.79596  0.41960  1.0000
  H   H800      1.0  0.13669  0.77939  0.40920  1.0000
  H   H801      1.0  0.12315  0.74981  0.46158  1.0000
  H   H802      1.0  0.06835  0.78784  0.48467  1.0000
  H   H803      1.0  0.14764  0.97292  0.38925  1.0000
  H   H804      1.0  0.00638  0.85091  0.42783  1.0000
  H   H805      1.0  0.04674  0.71973  0.38343  1.0000
  H   H806      1.0  0.15235  0.87063  0.45670  1.0000
  C   C498      1.0  0.13330  0.70281  0.37198  1.0000
  C   C499      1.0  0.13563  0.71636  0.37780  1.0000
  C   C500      1.0  0.13056  0.73380  0.36916  1.0000
  C   C501      1.0  0.12392  0.73775  0.35411  1.0000
  C   C502      1.0  0.12260  0.72416  0.34757  1.0000
  C   C503      1.0  0.12700  0.70668  0.35668  1.0000
  H   H807      1.0  0.14107  0.71350  0.38920  1.0000
  H   H808      1.0  0.13190  0.74421  0.37409  1.0000
  H   H809      1.0  0.11774  0.72718  0.33574  1.0000
  H   H810      1.0  0.12576  0.69624  0.35176  1.0000
  H   H811      1.0  0.29970  0.95043  0.34220  1.0000
  H   H812      1.0  0.25416  0.96415  0.33601  1.0000
  H   H813      1.0  0.02820  0.83847  0.42849  1.0000
  H   H814      1.0  0.28671  0.90904  0.43966  1.0000
  H   H815      1.0  0.11790  0.70179  0.41241  1.0000
  H   H816      1.0  0.26257  0.91056  0.34426  1.0000
  H   H817      1.0  0.24879  0.92490  0.43852  1.0000
  H   H818      1.0  0.27538  0.91060  0.39792  1.0000
  H   H819      1.0  0.29055  0.91521  0.40743  1.0000
  H   H820      1.0  0.17599  0.85606  0.43526  1.0000
  C   C504      1.0  0.16293  0.84358  0.36489  1.0000
  C   C505      1.0  0.14822  0.85648  0.36930  1.0000
  C   C506      1.0  0.13152  0.85327  0.37257  1.0000
  C   C507      1.0  0.12942  0.83699  0.37192  1.0000
  C   C508      1.0  0.14413  0.82400  0.36781  1.0000
  C   C509      1.0  0.16082  0.82736  0.36410  1.0000
  H   H821      1.0  0.14969  0.86907  0.36976  1.0000
  H   H822      1.0  0.12020  0.86342  0.37564  1.0000
  H   H823      1.0  0.14268  0.81145  0.36720  1.0000
  H   H824      1.0  0.17212  0.81734  0.36063  1.0000
  C   C510      1.0  0.20603  0.94348  0.35537  1.0000
  C   C511      1.0  0.21871  0.93338  0.36481  1.0000
  C   C512      1.0  0.22477  0.94077  0.37488  1.0000
  C   C513      1.0  0.21865  0.95855  0.37504  1.0000
  C   C514      1.0  0.20709  0.96912  0.36439  1.0000
  C   C515      1.0  0.20071  0.96154  0.35459  1.0000
  H   H825      1.0  0.22357  0.91969  0.36470  1.0000
  H   H826      1.0  0.23385  0.93252  0.38291  1.0000
  H   H827      1.0  0.04687  0.74138  0.38469  1.0000
  H   H828      1.0  0.19112  0.96951  0.34703  1.0000
  H   H829      1.0  0.26872  0.90002  0.45349  1.0000
  C   C516      1.0  0.19879  0.91027  0.44328  1.0000
  C   C517      1.0  0.18094  0.91551  0.44980  1.0000
  C   C518      1.0  0.16915  0.90851  0.44569  1.0000
  C   C519      1.0  0.17533  0.89646  0.43497  1.0000
  C   C520      1.0  0.19319  0.88980  0.43028  1.0000
  C   C521      1.0  0.20494  0.89692  0.43414  1.0000
  H   H830      1.0  0.99383  0.71406  0.38221  1.0000
  H   H831      1.0  0.15532  0.91327  0.44987  1.0000
  H   H832      1.0  0.19803  0.87979  0.42279  1.0000
  H   H833      1.0  0.21874  0.89251  0.42946  1.0000
  S   S205      1.0  0.22491  0.96671  0.38954  1.0000
  H   H834      1.0  0.01112  0.83553  0.44752  1.0000
  N   N52       1.0  0.16226  0.94778  0.40038  1.0000
  C   C522      1.0  0.17963  0.94020  0.40466  1.0000
  H   H835      1.0  0.13659  0.69461  0.45861  1.0000
  C   C523      1.0  0.16057  0.96673  0.39268  1.0000
  C   C524      1.0  0.14872  0.94507  0.41642  1.0000
  H   H836      1.0  0.18143  0.92594  0.41035  1.0000
  C   C525      1.0  0.12637  0.67792  0.44022  1.0000
  C   C526      1.0  0.11717  0.70722  0.42371  1.0000
  C   C527      1.0  0.22564  0.98334  0.45255  1.0000
  H   H837      1.0  0.12984  0.71637  0.44615  1.0000
  C   C528      1.0  0.27716  0.97392  0.35955  1.0000
  C   C529      1.0  0.12744  0.70288  0.45003  1.0000
  H   H838      1.0  0.19906  0.95479  0.47139  1.0000
  H   H839      1.0  0.01867  0.79584  0.43082  1.0000
  H   H840      1.0  0.24603  0.97588  0.35309  1.0000
  H   H841      1.0  0.03952  0.81981  0.47694  1.0000
  H   H842      1.0  0.06998  0.67850  0.35465  1.0000
  C   C530      1.0  0.07368  0.71730  0.35597  1.0000
  N   N53       1.0  0.26887  0.90638  0.42594  1.0000
  C   C531      1.0  0.14756  0.69517  0.42426  1.0000
  C   C532      1.0  0.25733  0.87667  0.37934  1.0000
  H   H843      1.0  0.21660  0.95725  0.47897  1.0000
  C   C533      1.0  0.28498  0.88443  0.37522  1.0000
  C   C534      1.0  0.25829  0.92434  0.42593  1.0000
  H   H844      1.0  0.16169  0.92469  0.39304  1.0000
  N   N54       1.0  0.01073  0.82387  0.42715  1.0000
  H   H845      1.0  0.17057  0.96913  0.38050  1.0000
  N   N55       1.0  0.27291  0.96265  0.35068  1.0000
  C   C535      1.0  0.07393  0.74605  0.35812  1.0000
  S   S206      1.0  0.31537  0.92950  0.37404  1.0000
  Fe  Fe96      1.0  0.08399  0.66339  0.38618  1.0000
  C   C536      1.0  0.26551  0.90040  0.35556  1.0000
  H   H846      1.0  0.07024  0.70452  0.36293  1.0000
  H   H847      1.0  0.99828  0.76849  0.43651  1.0000
  H   H848      1.0  0.23083  0.98205  0.46425  1.0000
  H   H849      1.0  0.13517  0.66902  0.44889  1.0000
  H   H850      1.0  0.13548  0.95142  0.41382  1.0000
  H   H851      1.0  0.02057  0.70425  0.36107  1.0000
  C   C537      1.0  0.04799  0.67377  0.37549  1.0000
  H   H852      1.0  0.06907  0.76998  0.47551  1.0000
  C   C538      1.0  0.07937  0.72119  0.38194  1.0000
  S   S207      1.0  0.10440  0.67050  0.36261  1.0000
  N   N56       1.0  0.20893  0.97785  0.45753  1.0000
  H   H853      1.0  0.15056  0.95039  0.42675  1.0000
  C   C539      1.0  0.07360  0.77356  0.48543  1.0000
  N   N57       1.0  0.10525  0.83058  0.42982  1.0000
  C   C540      1.0  0.10366  0.84396  0.43946  1.0000
  C   C541      1.0  0.10408  0.81360  0.44221  1.0000
  C   C542      1.0  0.12221  0.82870  0.41745  1.0000
  C   C543      1.0  0.09108  0.83609  0.42014  1.0000
  H   H854      1.0  0.10321  0.85718  0.43062  1.0000
  H   H855      1.0  0.11496  0.84094  0.44568  1.0000
  H   H856      1.0  0.09168  0.84470  0.44996  1.0000
  H   H857      1.0  0.10613  0.80302  0.43526  1.0000
  H   H858      1.0  0.11403  0.80952  0.45036  1.0000
  H   H859      1.0  0.09116  0.81425  0.45124  1.0000
  H   H860      1.0  0.12368  0.81903  0.40958  1.0000
  H   H861      1.0  0.13320  0.82419  0.42438  1.0000
  H   H862      1.0  0.12371  0.84133  0.40814  1.0000
  H   H863      1.0  0.09163  0.82607  0.41312  1.0000
  H   H864      1.0  0.09208  0.84842  0.41004  1.0000
  H   H865      1.0  0.07811  0.83818  0.42904  1.0000
  Fe  Fe97      1.0  0.31910  0.90970  0.35846  1.0000
  H   H866      1.0  0.03319  0.66873  0.48183  1.0000
  H   H867      1.0  0.11277  0.67797  0.44751  1.0000
  Fe  Fe98      1.0  0.12116  0.66454  0.38212  1.0000
  H   H868      1.0  0.20064  0.98753  0.48107  1.0000
  H   H869      1.0  0.14125  0.85357  0.45998  1.0000
  H   H870      1.0  0.01494  0.65848  0.37207  1.0000
  C   C544      1.0  0.02155  0.80685  0.43427  1.0000
  S   S208      1.0  0.23526  0.91877  0.48252  1.0000
  H   H871      1.0  0.01924  0.80405  0.44875  1.0000
  H   H872      1.0  0.15644  0.82232  0.46943  1.0000
  H   H873      1.0  0.26612  0.97794  0.37012  1.0000
  N   N58       1.0  0.24777  0.83269  0.35513  1.0000
  C   C545      1.0  0.24945  0.82201  0.34261  1.0000
  C   C546      1.0  0.22999  0.83476  0.36598  1.0000
  C   C547      1.0  0.25109  0.85010  0.34546  1.0000
  C   C548      1.0  0.26046  0.82392  0.36650  1.0000
  H   H874      1.0  0.07668  0.70814  0.38923  1.0000
  H   H875      1.0  0.23983  0.82825  0.33403  1.0000
  H   H876      1.0  0.24706  0.80876  0.34948  1.0000
  H   H877      1.0  0.22009  0.84159  0.35785  1.0000
  H   H878      1.0  0.22682  0.82192  0.37324  1.0000
  H   H879      1.0  0.22829  0.84254  0.37576  1.0000
  H   H880      1.0  0.24177  0.85710  0.33671  1.0000
  H   H881      1.0  0.26445  0.84907  0.33726  1.0000
  H   H882      1.0  0.24976  0.85855  0.35453  1.0000
  H   H883      1.0  0.25948  0.83179  0.37603  1.0000
  C   C549      1.0  0.25763  0.97226  0.34289  1.0000
  H   H884      1.0  0.25823  0.81082  0.37414  1.0000
  H   H885      1.0  0.04260  0.73814  0.36559  1.0000
  H   H886      1.0  0.99538  0.68960  0.36988  1.0000
  C   C550      1.0  0.03610  0.66469  0.35092  1.0000
  H   H887      1.0  0.15729  0.68688  0.43216  1.0000
  H   H888      1.0  0.19368  0.84110  0.46650  1.0000
  C   C551      1.0  0.05770  0.67466  0.35842  1.0000
  H   H889      1.0  0.06658  0.72300  0.34509  1.0000
  H   H890      1.0  0.14716  0.94427  0.38428  1.0000
  H   H891      1.0  0.09360  0.71928  0.37654  1.0000
  H   H892      1.0  0.26655  0.93373  0.42396  1.0000
  H   H893      1.0  0.01850  0.72595  0.34730  1.0000
  H   H894      1.0  0.99587  0.69276  0.34707  1.0000
  H   H895      1.0  0.18687  0.83364  0.44200  1.0000
  H   H896      1.0  0.28033  0.93856  0.36890  1.0000
  H   H897      1.0  0.07614  0.72962  0.39147  1.0000
  C   C552      1.0  0.18077  0.85035  0.46788  1.0000
  C   C553      1.0  0.01425  0.83784  0.43300  1.0000
  H   H898      1.0  0.19009  0.94188  0.39282  1.0000
  H   H899      1.0  0.25031  0.89877  0.41698  1.0000
  H   H900      1.0  0.26496  0.88087  0.42788  1.0000
  N   N59       1.0  0.12963  0.69580  0.43458  1.0000
  H   H901      1.0  0.10358  0.70876  0.43135  1.0000
  H   H902      1.0  0.25066  0.92910  0.41542  1.0000
  H   H903      1.0  0.07226  0.75485  0.36691  1.0000
  H   H904      1.0  0.17005  0.94097  0.37540  1.0000
  H   H905      1.0  0.00887  0.71939  0.46737  1.0000
  H   H906      1.0  0.14976  0.68961  0.41264  1.0000
  H   H907      1.0  0.14900  0.93088  0.42182  1.0000
  H   H908      1.0  0.27403  0.82211  0.35877  1.0000
  H   H909      1.0  0.26264  0.82028  0.33405  1.0000
  Fe  Fe99      1.0  0.21778  0.90896  0.47278  1.0000
  H   H910      1.0  0.03566  0.80642  0.42909  1.0000
  H   H911      1.0  0.28525  0.94886  0.33007  1.0000
  N   N60       1.0  0.99532  0.71594  0.35504  1.0000
  H   H912      1.0  0.01995  0.70748  0.33861  1.0000
  H   H913      1.0  0.24747  0.89434  0.44025  1.0000
  C   C554      1.0  0.25743  0.89454  0.42786  1.0000
  H   H914      1.0  0.15035  0.70851  0.41947  1.0000
  H   H915      1.0  0.29126  0.96934  0.32681  1.0000
  C   C555      1.0  0.28125  0.89762  0.36063  1.0000
  S   S209      1.0  0.24261  0.86321  0.39057  1.0000
  H   H916      1.0  0.08768  0.74413  0.35100  1.0000
  H   H917      1.0  0.28869  0.96710  0.36552  1.0000
  H   H918      1.0  0.11406  0.70363  0.45814  1.0000
  C   C556      1.0  0.19613  0.98883  0.46895  1.0000
  C   C557      1.0  0.28177  0.90633  0.40931  1.0000
  C   C558      1.0  0.01497  0.82745  0.40786  1.0000
  S   S210      1.0  0.21339  0.92079  0.44590  1.0000
  H   H919      1.0  0.99245  0.72329  0.32835  1.0000
  H   H920      1.0  0.29720  0.88211  0.37907  1.0000
  H   H921      1.0  0.11984  0.72058  0.41842  1.0000
  H   H922      1.0  0.24159  0.89211  0.36073  1.0000
  C   C559      1.0  0.01444  0.71332  0.35028  1.0000
  H   H923      1.0  0.99218  0.73589  0.36879  1.0000
  C   C560      1.0  0.05057  0.73221  0.37578  1.0000
  H   H924      1.0  0.18256  0.86350  0.46000  1.0000
  H   H925      1.0  0.08785  0.71452  0.35009  1.0000
  C   C561      1.0  0.25358  0.88999  0.36491  1.0000
  C   C562      1.0  0.27800  0.90034  0.44066  1.0000
  H   H926      1.0  0.17621  0.92547  0.45737  1.0000
  H   H927      1.0  0.29020  0.89303  0.40900  1.0000
  S   S211      1.0  0.00149  0.77001  0.35780  1.0000
  C   C563      1.0  0.27304  0.87389  0.38453  1.0000
  C   C564      1.0  0.16017  0.93907  0.38773  1.0000
  H   H928      1.0  0.27603  0.86350  0.39564  1.0000
  H   H929      1.0  0.02503  0.66718  0.39364  1.0000
  C   C565      1.0  0.00925  0.71020  0.48032  1.0000
  H   H930      1.0  0.05913  0.67116  0.33285  1.0000
  C   C566      1.0  0.28791  0.95766  0.33680  1.0000
  H   H931      1.0  0.99295  0.77871  0.39139  1.0000
  H   H932      1.0  0.08802  0.77142  0.48149  1.0000
  H   H933      1.0  0.25825  0.94998  0.37460  1.0000
  H   H934      1.0  0.12849  0.67206  0.42882  1.0000
  S   S212      1.0  0.02881  0.65930  0.33531  1.0000
  H   H935      1.0  0.02900  0.82748  0.40259  1.0000
  H   H936      1.0  0.18338  0.98501  0.47305  1.0000
  H   H937      1.0  0.16483  0.83882  0.43943  1.0000
  S   S213      1.0  0.23004  0.88082  0.48146  1.0000
  H   H938      1.0  0.00723  0.84028  0.40199  1.0000
  C   C567      1.0  0.05161  0.67041  0.34607  1.0000
  C   C568      1.0  0.99218  0.82330  0.43349  1.0000
  H   H939      1.0  0.21194  0.97178  0.43271  1.0000
  C   C569      1.0  0.21147  0.95932  0.46704  1.0000
  H   H940      1.0  0.02261  0.70177  0.47969  1.0000
  C   C570      1.0  0.26886  0.94671  0.36348  1.0000
  H   H941      1.0  0.01699  0.74069  0.47892  1.0000
  H   H942      1.0  0.01230  0.81721  0.40303  1.0000
  H   H943      1.0  0.20248  0.98293  0.36429  1.0000
  C   C571      1.0  0.03234  0.66832  0.38033  1.0000
  H   H944      1.0  0.22072  0.95062  0.45866  1.0000
  C   C572      1.0  0.20252  0.97986  0.44165  1.0000
  C   C573      1.0  0.16577  0.82719  0.47344  1.0000
  H   H945      1.0  0.06164  0.66719  0.42955  1.0000
  H   H946      1.0  0.28023  0.98614  0.35031  1.0000
  H   H947      1.0  0.03456  0.66278  0.42512  1.0000
  H   H948      1.0  0.23564  0.97532  0.44396  1.0000
  H   H949      1.0  0.14583  0.85831  0.47820  1.0000
  H   H950      1.0  0.02508  0.66207  0.44783  1.0000
  H   H951      1.0  0.26003  0.98454  0.33335  1.0000
  S   S214      1.0  0.09993  0.65973  0.40561  1.0000
  H   H952      1.0  0.00017  0.70154  0.48244  1.0000
  H   H953      1.0  0.17823  0.81721  0.47255  1.0000
  Fe  Fe100     1.0  0.13345  0.80144  0.47997  1.0000
  S   S215      1.0  0.07076  0.82454  0.48248  1.0000
  H   H954      1.0  0.32234  0.89810  0.45621  1.0000
  H   H955      1.0  0.17646  0.85135  0.48176  1.0000
  S   S216      1.0  0.11764  0.82844  0.48095  1.0000
  S   S217      1.0  0.32415  0.90273  0.41946  1.0000
  C   C574      1.0  0.05961  0.65817  0.44265  1.0000
  Fe  Fe101     1.0  0.21420  0.91782  0.50663  1.0000
  S   S218      1.0  0.22591  0.89026  0.51935  1.0000
  S   S219      1.0  0.20401  0.94212  0.51750  1.0000
  C   C575      1.0  0.04278  0.66888  0.50383  1.0000
  H   H956      1.0  0.23299  0.85183  0.53009  1.0000
  H   H957      1.0  0.24686  0.81292  0.54337  1.0000
  Fe  Fe102     1.0  0.20980  0.88177  0.50615  1.0000
  S   S220      1.0  0.20148  0.85591  0.51781  1.0000
  C   C576      1.0  0.07607  0.74441  0.50371  1.0000
  S   S221      1.0  0.30902  0.91651  0.52478  1.0000
  S   S222      1.0  0.19594  0.90940  0.49607  1.0000
  H   H958      1.0  0.13485  0.67851  0.53585  1.0000
  H   H959      1.0  0.01418  0.73770  0.50207  1.0000
  H   H960      1.0  0.25771  0.84938  0.49487  1.0000
  S   S223      1.0  0.12952  0.69911  0.49673  1.0000
  C   C577      1.0  0.03441  0.81430  0.52666  1.0000
  H   H961      1.0  0.26501  0.90657  0.57461  1.0000
  H   H962      1.0  0.27843  0.94193  0.53614  1.0000
  H   H963      1.0  0.09861  0.72988  0.54396  1.0000
  C   C578      1.0  0.07395  0.76880  0.51590  1.0000
  C   C579      1.0  0.10817  0.72992  0.53186  1.0000
  Fe  Fe103     1.0  0.12318  0.82263  0.50771  1.0000
  H   H964      1.0  0.04401  0.76212  0.49821  1.0000
  S   S224      1.0  0.12875  0.84616  0.51297  1.0000
  Fe  Fe104     1.0  0.11607  0.78628  0.51658  1.0000
  S   S225      1.0  0.11194  0.76094  0.53550  1.0000
  N   N61       1.0  0.32135  0.98089  0.51711  1.0000
  S   S226      1.0  0.27372  0.87804  0.49131  1.0000
  H   H965      1.0  0.28002  0.83661  0.51279  1.0000
  S   S227      1.0  0.09884  0.81228  0.52074  1.0000
  C   C580      1.0  0.02095  0.81241  0.52031  1.0000
  C   C581      1.0  0.05164  0.82000  0.49720  1.0000
  C   C582      1.0  0.04981  0.81791  0.51515  1.0000
  C   C583      1.0  0.02288  0.81426  0.50236  1.0000
  H   H966      1.0  0.04270  0.77989  0.50771  1.0000
  H   H967      1.0  0.27611  0.91062  0.55217  1.0000
  H   H968      1.0  0.24983  0.80667  0.52313  1.0000
  H   H969      1.0  0.16061  0.82774  0.48739  1.0000
  N   N62       1.0  0.00456  0.71976  0.49442  1.0000
  C   C584      1.0  0.24503  0.81789  0.52967  1.0000
  H   H970      1.0  0.07262  0.73615  0.51700  1.0000
  S   S228      1.0  0.00183  0.80778  0.53496  1.0000
  H   H971      1.0  0.25370  0.85788  0.52267  1.0000
  H   H972      1.0  0.25441  0.93080  0.59025  1.0000
  C   C585      1.0  0.01720  0.73064  0.49141  1.0000
  C   C586      1.0  0.28377  0.88904  0.49998  1.0000
  H   H973      1.0  0.03068  0.72247  0.49088  1.0000
  H   H974      1.0  0.15161  0.67688  0.54690  1.0000
  C   C587      1.0  0.03209  0.66450  0.49580  1.0000
  C   C588      1.0  0.18136  0.85337  0.51602  1.0000
  C   C589      1.0  0.17846  0.83643  0.51953  1.0000
  C   C590      1.0  0.16249  0.83396  0.51846  1.0000
  C   C591      1.0  0.14919  0.84845  0.51416  1.0000
  C   C592      1.0  0.15211  0.86537  0.51068  1.0000
  C   C593      1.0  0.16819  0.86784  0.51140  1.0000
  H   H975      1.0  0.18854  0.82517  0.52322  1.0000
  H   H976      1.0  0.16031  0.82088  0.52138  1.0000
  H   H977      1.0  0.14185  0.87664  0.50744  1.0000
  H   H978      1.0  0.17022  0.88094  0.50878  1.0000
  H   H979      1.0  0.09053  0.74203  0.50008  1.0000
  Fe  Fe105     1.0  0.08083  0.67089  0.50381  1.0000
  S   S229      1.0  0.99754  0.77078  0.51554  1.0000
  C   C594      1.0  0.29960  0.90621  0.51463  1.0000
  C   C595      1.0  0.28154  0.91052  0.51622  1.0000
  C   C596      1.0  0.27364  0.90193  0.50896  1.0000
  C   C597      1.0  0.10818  0.68084  0.56306  1.0000
  H   H980      1.0  0.09973  0.67517  0.57535  1.0000
  H   H981      1.0  0.27360  0.92054  0.52298  1.0000
  H   H982      1.0  0.25969  0.90522  0.51044  1.0000
  C   C598      1.0  0.21921  0.95386  0.51700  1.0000
  C   C599      1.0  0.23706  0.94712  0.51224  1.0000
  C   C600      1.0  0.24896  0.95622  0.51294  1.0000
  C   C601      1.0  0.24310  0.97212  0.51829  1.0000
  C   C602      1.0  0.22526  0.97923  0.52237  1.0000
  C   C603      1.0  0.21334  0.97006  0.52181  1.0000
  H   H983      1.0  0.24170  0.93470  0.50847  1.0000
  H   H984      1.0  0.26276  0.95079  0.50956  1.0000
  H   H985      1.0  0.29478  0.98820  0.51415  1.0000
  H   H986      1.0  0.19954  0.97534  0.52549  1.0000
  S   S230      1.0  0.14081  0.79620  0.50582  1.0000
  C   C604      1.0  0.24721  0.84678  0.52944  1.0000
  H   H987      1.0  0.03297  0.81291  0.54053  1.0000
  C   C605      1.0  0.30274  0.98848  0.52312  1.0000
  H   H988      1.0  0.12653  0.69486  0.57599  1.0000
  Fe  Fe106     1.0  0.09493  0.81603  0.49367  1.0000
  C   C606      1.0  0.12409  0.71636  0.50751  1.0000
  H   H989      1.0  0.25685  0.95254  0.57883  1.0000
  H   H990      1.0  0.12209  0.67497  0.59095  1.0000
  N   N63       1.0  0.25411  0.83223  0.52030  1.0000
  C   C607      1.0  0.12896  0.74387  0.50905  1.0000
  H   H991      1.0  0.10479  0.70591  0.52842  1.0000
  S   S231      1.0  0.05771  0.68150  0.49132  1.0000
  C   C608      1.0  0.32346  0.96266  0.51590  1.0000
  S   S232      1.0  0.08669  0.68243  0.52277  1.0000
  H   H992      1.0  0.14388  0.67582  0.57908  1.0000
  H   H993      1.0  0.30977  0.87498  0.49103  1.0000
  H   H994      1.0  0.13485  0.69645  0.54442  1.0000
  S   S233      1.0  0.11035  0.78951  0.49048  1.0000
  H   H995      1.0  0.07008  0.76132  0.52948  1.0000
  H   H996      1.0  0.24922  0.84260  0.54308  1.0000
  H   H997      1.0  0.06011  0.81937  0.52017  1.0000
  C   C609      1.0  0.25117  0.83845  0.50227  1.0000
  H   H998      1.0  0.27867  0.81496  0.51295  1.0000
  H   H999      1.0  0.28639  0.91111  0.56858  1.0000
  H   H1000     1.0  0.01259  0.81277  0.49736  1.0000
  C   C610      1.0  0.27296  0.82592  0.51981  1.0000
  H   H1001     1.0  0.10536  0.67690  0.55232  1.0000
  Fe  Fe107     1.0  0.24532  0.89059  0.49399  1.0000
  C   C611      1.0  0.11161  0.71639  0.52308  1.0000
  Fe  Fe108     1.0  0.11371  0.67854  0.50659  1.0000
  H   H1002     1.0  0.29098  0.93961  0.55184  1.0000
  C   C612      1.0  0.11684  0.74369  0.52483  1.0000
  N   N64       1.0  0.26577  0.93359  0.56286  1.0000
  C   C613      1.0  0.27360  0.91465  0.56470  1.0000
  C   C614      1.0  0.24889  0.93768  0.55764  1.0000
  C   C615      1.0  0.27755  0.94371  0.54941  1.0000
  C   C616      1.0  0.26304  0.93837  0.57971  1.0000
  C   C617      1.0  0.04899  0.76591  0.50768  1.0000
  C   C618      1.0  0.04158  0.66310  0.52188  1.0000
  H   H1003     1.0  0.13579  0.75440  0.50363  1.0000
  H   H1004     1.0  0.24312  0.95203  0.55509  1.0000
  H   H1005     1.0  0.25033  0.93340  0.54544  1.0000
  H   H1006     1.0  0.23931  0.93101  0.56784  1.0000
  H   H1007     1.0  0.27557  0.93577  0.58385  1.0000
  H   H1008     1.0  0.27291  0.95798  0.54891  1.0000
  H   H1009     1.0  0.27569  0.82120  0.53319  1.0000
  H   H1010     1.0  0.31616  0.96196  0.50653  1.0000
  N   N65       1.0  0.12677  0.67459  0.56385  1.0000
  C   C619      1.0  0.30186  0.88487  0.49809  1.0000
  H   H1011     1.0  0.04983  0.66651  0.52814  1.0000
  C   C620      1.0  0.13268  0.73017  0.50049  1.0000
  S   S234      1.0  0.25825  0.98165  0.52175  1.0000
  H   H1012     1.0  0.99603  0.69810  0.51380  1.0000
  C   C621      1.0  0.03813  0.81824  0.49082  1.0000
  H   H1013     1.0  0.23075  0.82245  0.53019  1.0000
  C   C622      1.0  0.13748  0.68191  0.54705  1.0000
  H   H1014     1.0  0.01812  0.69875  0.51198  1.0000
  H   H1015     1.0  0.10407  0.69535  0.56086  1.0000
  H   H1016     1.0  0.04445  0.75814  0.52094  1.0000
  H   H1017     1.0  0.31874  0.95432  0.52875  1.0000
  C   C623      1.0  0.30978  0.89349  0.50538  1.0000
  C   C624      1.0  0.12997  0.68031  0.57810  1.0000
  H   H1018     1.0  0.08830  0.76678  0.51300  1.0000
  N   N66       1.0  0.06814  0.76316  0.50318  1.0000
  H   H1019     1.0  0.23707  0.84332  0.50216  1.0000
  C   C625      1.0  0.00487  0.70706  0.51138  1.0000
  H   H1020     1.0  0.06849  0.78295  0.51572  1.0000
  H   H1021     1.0  0.14232  0.73026  0.48842  1.0000
  H   H1022     1.0  0.25625  0.82783  0.49496  1.0000
  H   H1023     1.0  0.00072  0.71380  0.52243  1.0000
  H   H1024     1.0  0.32372  0.89014  0.50398  1.0000
  H   H1025     1.0  0.29745  0.98118  0.53633  1.0000
  H   H1026     1.0  0.07181  0.73961  0.49443  1.0000
  S   S235      1.0  0.10714  0.66924  0.48637  1.0000
  C   C626      1.0  0.64889  0.02378  0.05425  1.0000
  Fe  Fe109     1.0  0.64141  0.27397  0.01108  1.0000
  S   S236      1.0  0.61312  0.27924  0.01126  1.0000
  H   H1027     1.0  0.45028  0.99767  0.17315  1.0000
  Fe  Fe110     1.0  0.61171  0.30554  0.01524  1.0000
  H   H1028     1.0  0.50296  0.22639  0.99701  1.0000
  S   S237      1.0  0.63941  0.29921  0.01817  1.0000
  Fe  Fe111     1.0  0.46874  0.30522  0.01260  1.0000
  Fe  Fe112     1.0  0.60498  0.16776  0.00914  1.0000
  S   S238      1.0  0.48567  0.99641  0.15199  1.0000
  Fe  Fe113     1.0  0.49940  0.27405  0.01877  1.0000
  C   C627      1.0  0.53205  0.00333  0.14927  1.0000
  S   S239      1.0  0.50954  0.24606  0.03193  1.0000
  Fe  Fe114     1.0  0.50342  0.31113  0.01337  1.0000
  H   H1029     1.0  0.48662  0.07328  0.04651  1.0000
  H   H1030     1.0  0.53351  0.28848  0.07697  1.0000
  C   C628      1.0  0.46680  0.06809  0.02844  1.0000
  S   S240      1.0  0.48519  0.29553  0.03287  1.0000
  S   S241      1.0  0.48130  0.28199  0.00038  1.0000
  H   H1031     1.0  0.51933  0.99404  0.22526  1.0000
  S   S242      1.0  0.47366  0.14357  0.02674  1.0000
  Fe  Fe115     1.0  0.63310  0.13693  0.02115  1.0000
  H   H1032     1.0  0.47257  0.08969  0.99669  1.0000
  H   H1033     1.0  0.47227  0.23783  0.99223  1.0000
  Fe  Fe116     1.0  0.50145  0.13036  0.02808  1.0000
  S   S243      1.0  0.51157  0.10857  0.04958  1.0000
  S   S244      1.0  0.51040  0.15558  0.02000  1.0000
  S   S245      1.0  0.59830  0.04287  0.14942  1.0000
  C   C629      1.0  0.61787  0.03887  0.19071  1.0000
  H   H1034     1.0  0.56106  0.02420  0.22982  1.0000
  S   S246      1.0  0.63286  0.03476  0.11860  1.0000
  C   C630      1.0  0.52702  0.05064  0.12270  1.0000
  C   C631      1.0  0.61059  0.10517  0.05814  1.0000
  H   H1035     1.0  0.64998  0.01124  0.06435  1.0000
  Fe  Fe117     1.0  0.46996  0.03633  0.11647  1.0000
  S   S247      1.0  0.48869  0.03686  0.13178  1.0000
  S   S248      1.0  0.46041  0.05978  0.09612  1.0000
  H   H1036     1.0  0.45841  0.23033  0.02566  1.0000
  H   H1037     1.0  0.60962  0.04291  0.18132  1.0000
  Fe  Fe118     1.0  0.47144  0.02342  0.15505  1.0000
  S   S249      1.0  0.46010  0.02852  0.18199  1.0000
  Fe  Fe119     1.0  0.50084  0.00977  0.12722  1.0000
  S   S250      1.0  0.64205  0.11482  0.04310  1.0000
  S   S251      1.0  0.45145  0.02527  0.14017  1.0000
  S   S252      1.0  0.48329  0.00996  0.11042  1.0000
  H   H1038     1.0  0.55366  0.03738  0.13949  1.0000
  C   C632      1.0  0.47384  0.02905  0.19491  1.0000
  C   C633      1.0  0.46641  0.03245  0.21155  1.0000
  H   H1039     1.0  0.51133  0.26209  0.06277  1.0000
  H   H1040     1.0  0.53641  0.07734  0.09713  1.0000
  C   C634      1.0  0.50243  0.02637  0.19993  1.0000
  C   C635      1.0  0.49190  0.02597  0.18909  1.0000
  H   H1041     1.0  0.55479  0.07801  0.10475  1.0000
  C   C636      1.0  0.60595  0.08363  0.08565  1.0000
  H   H1042     1.0  0.63196  0.99661  0.18210  1.0000
  H   H1043     1.0  0.49770  0.02337  0.17625  1.0000
  H   H1044     1.0  0.51170  0.27044  0.08084  1.0000
  H   H1045     1.0  0.63566  0.06718  0.05440  1.0000
  H   H1046     1.0  0.50451  0.28515  0.06192  1.0000
  C   C637      1.0  0.54207  0.07408  0.10892  1.0000
  C   C638      1.0  0.54078  0.99862  0.13343  1.0000
  C   C639      1.0  0.65684  0.23120  0.01355  1.0000
  H   H1047     1.0  0.59781  0.04943  0.21068  1.0000
  C   C640      1.0  0.59977  0.09527  0.07120  1.0000
  H   H1048     1.0  0.44660  0.99923  0.21071  1.0000
  C   C641      1.0  0.60741  0.21430  0.99797  1.0000
  C   C642      1.0  0.54882  0.18602  0.00237  1.0000
  C   C643      1.0  0.49714  0.09564  0.06356  1.0000
  C   C644      1.0  0.50373  0.07929  0.07370  1.0000
  C   C645      1.0  0.49253  0.06831  0.08412  1.0000
  C   C646      1.0  0.47467  0.07371  0.08449  1.0000
  C   C647      1.0  0.46807  0.09023  0.07469  1.0000
  C   C648      1.0  0.47926  0.10117  0.06426  1.0000
  H   H1049     1.0  0.51756  0.07491  0.07316  1.0000
  H   H1050     1.0  0.49772  0.05551  0.09153  1.0000
  H   H1051     1.0  0.45424  0.09454  0.07514  1.0000
  H   H1052     1.0  0.47400  0.11387  0.05680  1.0000
  C   C649      1.0  0.49788  0.23135  0.03093  1.0000
  C   C650      1.0  0.50608  0.21366  0.03154  1.0000
  C   C651      1.0  0.49734  0.20215  0.02927  1.0000
  H   H1053     1.0  0.64736  0.02486  0.22462  1.0000
  C   C652      1.0  0.55963  0.00173  0.15578  1.0000
  C   C653      1.0  0.48066  0.23727  0.02886  1.0000
  H   H1054     1.0  0.51935  0.20900  0.03329  1.0000
  H   H1055     1.0  0.45559  0.07180  0.02190  1.0000
  C   C654      1.0  0.62473  0.03821  0.07346  1.0000
  H   H1056     1.0  0.47408  0.25077  0.02878  1.0000
  H   H1057     1.0  0.45396  0.10317  0.02053  1.0000
  C   C655      1.0  0.62176  0.03749  0.21969  1.0000
  H   H1058     1.0  0.50387  0.18868  0.02933  1.0000
  N   N67       1.0  0.64216  0.03907  0.06239  1.0000
  S   S253      1.0  0.43959  0.31419  0.02057  1.0000
  S   S254      1.0  0.59727  0.02307  0.11972  1.0000
  H   H1059     1.0  0.51801  0.00654  0.15254  1.0000
  C   C656      1.0  0.63385  0.09169  0.07391  1.0000
  H   H1060     1.0  0.52817  0.03647  0.12883  1.0000
  H   H1061     1.0  0.52560  0.30255  0.05816  1.0000
  C   C657      1.0  0.55583  0.04476  0.10494  1.0000
  H   H1062     1.0  0.62839  0.23313  0.99840  1.0000
  C   C658      1.0  0.65405  0.03881  0.07325  1.0000
  C   C659      1.0  0.56680  0.17978  0.00082  1.0000
  H   H1063     1.0  0.54830  0.29260  0.05628  1.0000
  N   N68       1.0  0.47655  0.08211  0.02303  1.0000
  H   H1064     1.0  0.64697  0.21359  0.03699  1.0000
  H   H1065     1.0  0.46154  0.06533  0.04282  1.0000
  C   C660      1.0  0.43853  0.99465  0.18293  1.0000
  H   H1066     1.0  0.60691  0.24550  0.00466  1.0000
  H   H1067     1.0  0.47522  0.05564  0.02518  1.0000
  H   H1068     1.0  0.54176  0.19496  0.01077  1.0000
  S   S255      1.0  0.50886  0.12579  0.00090  1.0000
  H   H1069     1.0  0.50072  0.06494  0.02833  1.0000
  H   H1070     1.0  0.49066  0.09599  0.99949  1.0000
  H   H1071     1.0  0.51790  0.05804  0.13234  1.0000
  C   C661      1.0  0.46484  0.09832  0.02764  1.0000
  H   H1072     1.0  0.51639  0.02402  0.19545  1.0000
  C   C662      1.0  0.62302  0.08186  0.08697  1.0000
  Fe  Fe120     1.0  0.64267  0.16987  0.99611  1.0000
  C   C663      1.0  0.47178  0.22565  0.02715  1.0000
  S   S256      1.0  0.64439  0.02681  0.16484  1.0000
  C   C664      1.0  0.54453  0.25905  0.06486  1.0000
  C   C665      1.0  0.53502  0.29030  0.06266  1.0000
  S   S257      1.0  0.51899  0.28901  0.00068  1.0000
  H   H1073     1.0  0.52581  0.29015  0.03383  1.0000
  H   H1074     1.0  0.45244  0.03494  0.21606  1.0000
  H   H1075     1.0  0.62511  0.02588  0.08374  1.0000
  H   H1076     1.0  0.53241  0.26694  0.03536  1.0000
  Fe  Fe121     1.0  0.48331  0.16855  0.01636  1.0000
  H   H1077     1.0  0.54284  0.25639  0.07929  1.0000
  H   H1078     1.0  0.55822  0.26023  0.05902  1.0000
  H   H1079     1.0  0.54272  0.24740  0.06161  1.0000
  S   S258      1.0  0.52919  0.99958  0.11804  1.0000
  C   C666      1.0  0.55893  0.99444  0.12926  1.0000
  C   C667      1.0  0.48017  0.20817  0.02693  1.0000
  S   S259      1.0  0.57112  0.00746  0.16762  1.0000
  H   H1080     1.0  0.52086  0.05344  0.11131  1.0000
  H   H1081     1.0  0.54830  0.27935  0.03260  1.0000
  C   C668      1.0  0.64096  0.05542  0.04866  1.0000
  H   H1082     1.0  0.62784  0.07310  0.09815  1.0000
  N   N69       1.0  0.55146  0.14406  0.04824  1.0000
  C   C669      1.0  0.53897  0.13270  0.05696  1.0000
  C   C670      1.0  0.56023  0.14039  0.03086  1.0000
  C   C671      1.0  0.56461  0.14055  0.05884  1.0000
  C   C672      1.0  0.54207  0.16262  0.04628  1.0000
  H   H1083     1.0  0.53219  0.13493  0.07019  1.0000
  H   H1084     1.0  0.54547  0.11858  0.05839  1.0000
  H   H1085     1.0  0.52879  0.13523  0.04934  1.0000
  H   H1086     1.0  0.57042  0.14802  0.02437  1.0000
  H   H1087     1.0  0.56676  0.12633  0.03178  1.0000
  H   H1088     1.0  0.55091  0.14384  0.02206  1.0000
  H   H1089     1.0  0.57200  0.12671  0.06052  1.0000
  H   H1090     1.0  0.55853  0.14318  0.07206  1.0000
  H   H1091     1.0  0.57425  0.14895  0.05251  1.0000
  H   H1092     1.0  0.55115  0.17158  0.04029  1.0000
  H   H1093     1.0  0.53483  0.16571  0.05908  1.0000
  H   H1094     1.0  0.53253  0.16599  0.03776  1.0000
  Fe  Fe122     1.0  0.48173  0.14062  0.99888  1.0000
  C   C673      1.0  0.53991  0.18015  0.99346  1.0000
  H   H1095     1.0  0.65392  0.05673  0.04024  1.0000
  C   C674      1.0  0.54857  0.31503  0.01577  1.0000
  H   H1096     1.0  0.60584  0.11399  0.04694  1.0000
  H   H1097     1.0  0.52599  0.18480  0.99481  1.0000
  S   S260      1.0  0.59221  0.07112  0.10158  1.0000
  H   H1098     1.0  0.64704  0.09032  0.07502  1.0000
  S   S261      1.0  0.46897  0.19463  0.02289  1.0000
  C   C675      1.0  0.49121  0.07668  0.03209  1.0000
  Fe  Fe123     1.0  0.59355  0.01737  0.14886  1.0000
  H   H1099     1.0  0.61530  0.03875  0.06567  1.0000
  C   C676      1.0  0.64594  0.02567  0.19836  1.0000
  C   C677      1.0  0.54151  0.00483  0.16050  1.0000
  H   H1100     1.0  0.59874  0.21661  0.01057  1.0000
  H   H1101     1.0  0.58666  0.09644  0.07003  1.0000
  H   H1102     1.0  0.53333  0.08235  0.11798  1.0000
  C   C678      1.0  0.61119  0.04254  0.20738  1.0000
  H   H1103     1.0  0.56460  0.05501  0.12937  1.0000
  C   C679      1.0  0.63535  0.03068  0.18603  1.0000
  Fe  Fe124     1.0  0.62605  0.02792  0.14800  1.0000
  N   N70       1.0  0.53213  0.27509  0.05829  1.0000
  H   H1104     1.0  0.47188  0.10903  0.02417  1.0000
  Fe  Fe125     1.0  0.51489  0.15241  0.99271  1.0000
  H   H1105     1.0  0.54316  0.05898  0.14274  1.0000
  S   S262      1.0  0.50841  0.02907  0.23041  1.0000
  C   C680      1.0  0.55171  0.05152  0.13291  1.0000
  H   H1106     1.0  0.53478  0.00926  0.17235  1.0000
  C   C681      1.0  0.48331  0.08541  0.00395  1.0000
  Fe  Fe126     1.0  0.60455  0.04741  0.12009  1.0000
  H   H1107     1.0  0.64841  0.19066  0.02172  1.0000
  H   H1108     1.0  0.43094  0.00712  0.18676  1.0000
  Fe  Fe127     1.0  0.62503  0.01003  0.12024  1.0000
  N   N71       1.0  0.54416  0.05526  0.11737  1.0000
  H   H1109     1.0  0.56882  0.04811  0.10044  1.0000
  H   H1110     1.0  0.58239  0.99312  0.13705  1.0000
  C   C682      1.0  0.51414  0.27307  0.06635  1.0000
  S   S263      1.0  0.62071  0.00206  0.14931  1.0000
  H   H1111     1.0  0.60140  0.20677  0.99277  1.0000
  H   H1112     1.0  0.55038  0.04696  0.09321  1.0000
  H   H1113     1.0  0.55787  0.03048  0.11103  1.0000
  C   C683      1.0  0.53481  0.27798  0.03917  1.0000
  S   S264      1.0  0.61047  0.13907  0.00971  1.0000
  H   H1114     1.0  0.48837  0.20876  0.98815  1.0000
  C   C684      1.0  0.49495  0.02975  0.21660  1.0000
  H   H1115     1.0  0.45905  0.09626  0.04186  1.0000
  S   S265      1.0  0.65527  0.24766  0.02428  1.0000
  C   C685      1.0  0.63909  0.02875  0.21525  1.0000
  H   H1116     1.0  0.49217  0.07350  0.99987  1.0000
  S   S266      1.0  0.62600  0.16524  0.02303  1.0000
  S   S267      1.0  0.48842  0.16694  0.98835  1.0000
  C   C686      1.0  0.47692  0.03286  0.22234  1.0000
  H   H1117     1.0  0.54624  0.30880  0.00684  1.0000
  C   C687      1.0  0.62769  0.10339  0.05947  1.0000
  S   S268      1.0  0.57787  0.18424  0.01408  1.0000
  C   C688      1.0  0.56558  0.31257  0.01814  1.0000
  C   C689      1.0  0.56836  0.99603  0.14044  1.0000
  H   H1118     1.0  0.49833  0.08731  0.02908  1.0000
  H   H1119     1.0  0.63226  0.05601  0.04006  1.0000
  Fe  Fe128     1.0  0.46675  0.99895  0.13571  1.0000
  H   H1120     1.0  0.64018  0.02343  0.04607  1.0000
  C   C690      1.0  0.65173  0.21558  0.02301  1.0000
  H   H1121     1.0  0.61945  0.04926  0.08018  1.0000
  H   H1122     1.0  0.63414  0.07311  0.23138  1.0000
  S   S269      1.0  0.65142  0.14144  0.99495  1.0000
  H   H1123     1.0  0.57638  0.30446  0.01101  1.0000
  H   H1124     1.0  0.62002  0.20579  0.00088  1.0000
  C   C691      1.0  0.65248  0.20262  0.01438  1.0000
  H   H1125     1.0  0.65526  0.02661  0.08373  1.0000
  H   H1126     1.0  0.64935  0.05014  0.07965  1.0000
  H   H1127     1.0  0.58966  0.16353  0.98838  1.0000
  C   C692      1.0  0.57583  0.16829  0.98990  1.0000
  S   S270      1.0  0.58922  0.31729  0.03417  1.0000
  H   H1128     1.0  0.48232  0.99068  0.22951  1.0000
  H   H1129     1.0  0.59267  0.01495  0.22874  1.0000
  C   C693      1.0  0.56851  0.32054  0.02992  1.0000
  C   C694      1.0  0.64756  0.06620  0.23322  1.0000
  H   H1130     1.0  0.65637  0.06749  0.22012  1.0000
  S   S271      1.0  0.61740  0.31855  0.98685  1.0000
  C   C695      1.0  0.61662  0.24106  0.99343  1.0000
  H   H1131     1.0  0.58325  0.24401  0.99274  1.0000
  H   H1132     1.0  0.43079  0.99053  0.17614  1.0000
  Fe  Fe129     1.0  0.64553  0.30995  0.98916  1.0000
  S   S272      1.0  0.64232  0.99282  0.10228  1.0000
  H   H1133     1.0  0.56568  0.99058  0.11710  1.0000
  S   S273      1.0  0.46507  0.13104  0.98731  1.0000
  H   H1134     1.0  0.47102  0.03571  0.23506  1.0000
  H   H1135     1.0  0.46602  0.98956  0.19724  1.0000
  H   H1136     1.0  0.64004  0.09966  0.23594  1.0000
  S   S274      1.0  0.48589  0.32256  0.99420  1.0000
  Fe  Fe130     1.0  0.50266  0.03196  0.29163  1.0000
  C   C696      1.0  0.64093  0.07122  0.26231  1.0000
  S   S275      1.0  0.52038  0.04406  0.29891  1.0000
  Fe  Fe131     1.0  0.46535  0.04029  0.28778  1.0000
  H   H1137     1.0  0.57967  0.99658  0.27651  1.0000
  S   S276      1.0  0.43797  0.05577  0.29483  1.0000
  S   S277      1.0  0.61319  0.04316  0.24011  1.0000
  C   C697      1.0  0.42462  0.01173  0.32389  1.0000
  Fe  Fe132     1.0  0.36686  0.02284  0.42464  1.0000
  S   S278      1.0  0.47895  0.02293  0.30892  1.0000
  S   S279      1.0  0.48847  0.05100  0.27153  1.0000
  S   S280      1.0  0.39180  0.01425  0.40653  1.0000
  S   S281      1.0  0.47063  0.01986  0.27242  1.0000
  Fe  Fe133     1.0  0.34660  0.03793  0.39559  1.0000
  S   S282      1.0  0.36080  0.04974  0.40776  1.0000
  H   H1138     1.0  0.48884  0.00024  0.24328  1.0000
  Fe  Fe134     1.0  0.38442  0.04016  0.38834  1.0000
  S   S283      1.0  0.40658  0.05359  0.37511  1.0000
  H   H1139     1.0  0.32868  0.04363  0.42941  1.0000
  S   S284      1.0  0.51097  0.00999  0.27777  1.0000
  S   S285      1.0  0.36981  0.03088  0.37442  1.0000
  H   H1140     1.0  0.62735  0.07810  0.26113  1.0000
  C   C698      1.0  0.57241  0.02848  0.25602  1.0000
  C   C699      1.0  0.37183  0.02163  0.46621  1.0000
  S   S286      1.0  0.64196  0.99843  0.30488  1.0000
  S   S287      1.0  0.61752  0.03605  0.28808  1.0000
  Fe  Fe135     1.0  0.48555  0.00304  0.29273  1.0000
  Fe  Fe136     1.0  0.37577  0.00554  0.39389  1.0000
  C   C700      1.0  0.38328  0.03287  0.45847  1.0000
  Fe  Fe137     1.0  0.62579  0.02736  0.26273  1.0000
  C   C701      1.0  0.54226  0.01266  0.31021  1.0000
  H   H1141     1.0  0.38581  0.03785  0.44447  1.0000
  Fe  Fe138     1.0  0.61463  0.00842  0.30041  1.0000
  C   C702      1.0  0.42924  0.05469  0.31724  1.0000
  C   C703      1.0  0.41120  0.05759  0.32345  1.0000
  C   C704      1.0  0.40411  0.05664  0.34133  1.0000
  C   C705      1.0  0.41502  0.05349  0.35293  1.0000
  C   C706      1.0  0.43303  0.05076  0.34668  1.0000
  C   C707      1.0  0.44012  0.05095  0.32897  1.0000
  H   H1142     1.0  0.40270  0.06051  0.31443  1.0000
  H   H1143     1.0  0.39017  0.05897  0.34605  1.0000
  H   H1144     1.0  0.44150  0.04832  0.35564  1.0000
  H   H1145     1.0  0.45397  0.04868  0.32434  1.0000
  C   C708      1.0  0.54034  0.03067  0.30322  1.0000
  C   C709      1.0  0.55440  0.03843  0.30016  1.0000
  C   C710      1.0  0.57032  0.02828  0.30413  1.0000
  H   H1146     1.0  0.55295  0.05237  0.29482  1.0000
  H   H1147     1.0  0.58098  0.03446  0.30197  1.0000
  H   H1148     1.0  0.60071  0.00378  0.24819  1.0000
  C   C711      1.0  0.57211  0.01041  0.31173  1.0000
  H   H1149     1.0  0.55911  0.00197  0.23924  1.0000
  N   N72       1.0  0.47694  0.08358  0.31045  1.0000
  C   C712      1.0  0.48130  0.06615  0.32205  1.0000
  C   C713      1.0  0.47327  0.09725  0.32037  1.0000
  C   C714      1.0  0.46145  0.08491  0.30377  1.0000
  C   C715      1.0  0.49178  0.08600  0.29562  1.0000
  H   H1150     1.0  0.48382  0.05552  0.31506  1.0000
  H   H1151     1.0  0.47061  0.06397  0.33364  1.0000
  H   H1152     1.0  0.49331  0.06443  0.32682  1.0000
  H   H1153     1.0  0.46993  0.11060  0.31203  1.0000
  H   H1154     1.0  0.46212  0.09577  0.33166  1.0000
  H   H1155     1.0  0.48470  0.09656  0.32562  1.0000
  H   H1156     1.0  0.45798  0.09774  0.29466  1.0000
  H   H1157     1.0  0.44988  0.08346  0.31456  1.0000
  H   H1158     1.0  0.46361  0.07453  0.29654  1.0000
  H   H1159     1.0  0.48913  0.09910  0.28669  1.0000
  H   H1160     1.0  0.49474  0.07601  0.28776  1.0000
  H   H1161     1.0  0.50385  0.08454  0.30018  1.0000
  H   H1162     1.0  0.53140  0.00661  0.31272  1.0000
  C   C716      1.0  0.42399  0.00679  0.35464  1.0000
  C   C717      1.0  0.55808  0.00258  0.31470  1.0000
  C   C718      1.0  0.39143  0.03774  0.46896  1.0000
  H   H1163     1.0  0.35658  0.00011  0.37403  1.0000
  H   H1164     1.0  0.41128  0.01638  0.35646  1.0000
  S   S288      1.0  0.59173  0.99790  0.31772  1.0000
  N   N73       1.0  0.57286  0.01172  0.25212  1.0000
  C   C719      1.0  0.65563  0.03398  0.32957  1.0000
  S   S289      1.0  0.35139  0.01156  0.41363  1.0000
  H   H1165     1.0  0.43487  0.99154  0.27210  1.0000
  H   H1166     1.0  0.39913  0.99701  0.34697  1.0000
  H   H1167     1.0  0.40023  0.04647  0.46296  1.0000
  Fe  Fe139     1.0  0.49534  0.02845  0.25859  1.0000
  C   C720      1.0  0.59005  0.00548  0.24144  1.0000
  S   S290      1.0  0.62074  0.00079  0.27495  1.0000
  S   S291      1.0  0.36073  0.01546  0.45404  1.0000
  S   S292      1.0  0.65406  0.01871  0.26358  1.0000
  H   H1168     1.0  0.58239  0.02691  0.26361  1.0000
  H   H1169     1.0  0.64275  0.03372  0.32878  1.0000
  H   H1170     1.0  0.57508  0.03862  0.24385  1.0000
  H   H1171     1.0  0.64466  0.07634  0.27173  1.0000
  H   H1172     1.0  0.64895  0.99003  0.24537  1.0000
  Fe  Fe140     1.0  0.64566  0.02534  0.29004  1.0000
  C   C721      1.0  0.56979  0.99859  0.26866  1.0000
  H   H1173     1.0  0.59103  0.99264  0.23855  1.0000
  H   H1174     1.0  0.32757  0.05750  0.44338  1.0000
  H   H1175     1.0  0.45071  0.99655  0.29143  1.0000
  H   H1176     1.0  0.64920  0.03133  0.35750  1.0000
  H   H1177     1.0  0.45405  0.99317  0.33430  1.0000
  H   H1178     1.0  0.43436  0.01405  0.35211  1.0000
  H   H1179     1.0  0.64095  0.05722  0.26834  1.0000
  N   N74       1.0  0.42607  0.99827  0.34022  1.0000
  H   H1180     1.0  0.41207  0.02157  0.32535  1.0000
  H   H1181     1.0  0.43526  0.01892  0.31991  1.0000
  H   H1182     1.0  0.54599  0.01913  0.25001  1.0000
  H   H1183     1.0  0.42445  0.99706  0.36729  1.0000
  H   H1184     1.0  0.55680  0.00279  0.27689  1.0000
  H   H1185     1.0  0.55953  0.03371  0.26386  1.0000
  H   H1186     1.0  0.42541  0.00586  0.31289  1.0000
  Fe  Fe141     1.0  0.64824  0.99280  0.27838  1.0000
  H   H1187     1.0  0.33948  0.99394  0.35655  1.0000
  H   H1188     1.0  0.32818  0.02665  0.37277  1.0000
  H   H1189     1.0  0.64738  0.05209  0.23835  1.0000
  N   N75       1.0  0.65313  0.07313  0.24520  1.0000
  C   C722      1.0  0.65320  0.09185  0.23781  1.0000
  C   C723      1.0  0.36863  0.01532  0.48431  1.0000
  C   C724      1.0  0.55917  0.01436  0.24239  1.0000
  H   H1190     1.0  0.65733  0.09747  0.24657  1.0000
  C   C725      1.0  0.55380  0.00318  0.70968  1.0000
  S   S293      1.0  0.49541  0.02640  0.64474  1.0000
  C   C726      1.0  0.63558  0.05507  0.73051  1.0000
  H   H1191     1.0  0.44548  0.00475  0.70862  1.0000
  S   S294      1.0  0.46023  0.01026  0.65782  1.0000
  C   C727      1.0  0.42935  0.02604  0.59013  1.0000
  Fe  Fe142     1.0  0.48232  0.01167  0.63449  1.0000
  S   S295      1.0  0.48153  0.01656  0.60592  1.0000
  Fe  Fe143     1.0  0.47466  0.02252  0.66911  1.0000
  S   S296      1.0  0.46046  0.04500  0.68195  1.0000
  Fe  Fe144     1.0  0.50949  0.00007  0.65733  1.0000
  C   C728      1.0  0.46064  0.02582  0.73348  1.0000
  Fe  Fe145     1.0  0.60800  0.03333  0.65653  1.0000
  S   S297      1.0  0.61854  0.00759  0.67307  1.0000
  S   S298      1.0  0.57904  0.04362  0.66307  1.0000
  Fe  Fe146     1.0  0.64403  0.03699  0.63477  1.0000
  H   H1192     1.0  0.32665  0.00515  0.50025  1.0000
  S   S299      1.0  0.38308  0.00106  0.53899  1.0000
  Fe  Fe147     1.0  0.63520  0.00162  0.64791  1.0000
  H   H1193     1.0  0.36229  0.06720  0.48860  1.0000
  Fe  Fe148     1.0  0.63930  0.02018  0.67348  1.0000
  C   C729      1.0  0.52292  0.00779  0.71214  1.0000
  S   S300      1.0  0.62306  0.02645  0.63109  1.0000
  S   S301      1.0  0.62764  0.04663  0.65877  1.0000
  H   H1194     1.0  0.56189  0.99278  0.57830  1.0000
  S   S302      1.0  0.39782  0.03820  0.50033  1.0000
  N   N76       1.0  0.53904  0.99920  0.59778  1.0000
  H   H1195     1.0  0.55607  0.00752  0.69520  1.0000
  C   C730      1.0  0.44075  0.99289  0.70979  1.0000
  H   H1196     1.0  0.49913  0.05039  0.71917  1.0000
  H   H1197     1.0  0.60887  0.03094  0.69959  1.0000
  H   H1198     1.0  0.48470  0.09852  0.71670  1.0000
  C   C731      1.0  0.57539  0.04858  0.70592  1.0000
  C   C732      1.0  0.34140  0.06952  0.53027  1.0000
  C   C733      1.0  0.33843  0.02553  0.53616  1.0000
  H   H1199     1.0  0.58256  0.05414  0.69275  1.0000
  N   N77       1.0  0.58705  0.04077  0.71844  1.0000
  H   H1200     1.0  0.64228  0.05152  0.68836  1.0000
  H   H1201     1.0  0.47248  0.02365  0.57255  1.0000
  H   H1202     1.0  0.63620  0.07385  0.70588  1.0000
  N   N78       1.0  0.48594  0.07595  0.70738  1.0000
  Fe  Fe149     1.0  0.36907  0.01326  0.56145  1.0000
  C   C734      1.0  0.55220  0.00443  0.58212  1.0000
  C   C735      1.0  0.43008  0.02256  0.60779  1.0000
  C   C736      1.0  0.48552  0.08420  0.72150  1.0000
  C   C737      1.0  0.59518  0.05431  0.71954  1.0000
  H   H1203     1.0  0.60954  0.01984  0.72182  1.0000
  Fe  Fe150     1.0  0.39574  0.02386  0.52883  1.0000
  H   H1204     1.0  0.53305  0.08523  0.71415  1.0000
  H   H1205     1.0  0.34097  0.06337  0.49928  1.0000
  H   H1206     1.0  0.44423  0.02944  0.56378  1.0000
  C   C738      1.0  0.56723  0.00156  0.65593  1.0000
  H   H1207     1.0  0.54085  0.10666  0.72552  1.0000
  C   C739      1.0  0.53500  0.08190  0.72738  1.0000
  N   N79       1.0  0.35150  0.07588  0.51271  1.0000
  C   C740      1.0  0.37678  0.02013  0.49467  1.0000
  C   C741      1.0  0.32936  0.02108  0.55334  1.0000
  H   H1208     1.0  0.46883  0.09815  0.69459  1.0000
  C   C742      1.0  0.50131  0.07854  0.69327  1.0000
  C   C743      1.0  0.46069  0.02310  0.58244  1.0000
  S   S303      1.0  0.40887  0.03196  0.58434  1.0000
  C   C744      1.0  0.44602  0.01931  0.61279  1.0000
  H   H1209     1.0  0.45813  0.08237  0.71082  1.0000
  H   H1210     1.0  0.50101  0.09269  0.68762  1.0000
  N   N80       1.0  0.53868  0.99494  0.71670  1.0000
  S   S304      1.0  0.38030  0.03708  0.55077  1.0000
  H   H1211     1.0  0.61270  0.00035  0.59254  1.0000
  H   H1212     1.0  0.35217  0.02483  0.53352  1.0000
  H   H1213     1.0  0.32989  0.99459  0.53102  1.0000
  Fe  Fe151     1.0  0.40195  0.02154  0.56482  1.0000
  S   S305      1.0  0.64839  0.01343  0.69866  1.0000
  H   H1214     1.0  0.58524  0.06560  0.72386  1.0000
  H   H1215     1.0  0.43546  0.06551  0.70413  1.0000
  C   C745      1.0  0.34218  0.09345  0.50484  1.0000
  H   H1216     1.0  0.48648  0.05050  0.70436  1.0000
  C   C746      1.0  0.44474  0.02621  0.57745  1.0000
  H   H1217     1.0  0.50201  0.07238  0.68248  1.0000
  H   H1218     1.0  0.56925  0.03876  0.70434  1.0000
  H   H1219     1.0  0.34828  0.05643  0.53672  1.0000
  H   H1220     1.0  0.37376  0.01541  0.50852  1.0000
  H   H1221     1.0  0.52405  0.01199  0.69774  1.0000
  H   H1222     1.0  0.60310  0.05955  0.70670  1.0000
  S   S306      1.0  0.52793  0.05004  0.73056  1.0000
  C   C747      1.0  0.35364  0.06367  0.50156  1.0000
  C   C748      1.0  0.63757  0.06013  0.71227  1.0000
  H   H1223     1.0  0.33922  0.07853  0.53902  1.0000
  H   H1224     1.0  0.51615  0.01134  0.61395  1.0000
  H   H1225     1.0  0.51359  0.07260  0.69819  1.0000
  H   H1226     1.0  0.53238  0.02410  0.60485  1.0000
  H   H1227     1.0  0.59503  0.01594  0.71111  1.0000
  H   H1228     1.0  0.56998  0.02436  0.73549  1.0000
  H   H1229     1.0  0.32901  0.09322  0.50375  1.0000
  C   C749      1.0  0.64162  0.02470  0.72876  1.0000
  H   H1230     1.0  0.56474  0.05936  0.71024  1.0000
  H   H1231     1.0  0.41822  0.02263  0.61766  1.0000
  H   H1232     1.0  0.33696  0.03388  0.50901  1.0000
  C   C750      1.0  0.36880  0.07680  0.51412  1.0000
  H   H1233     1.0  0.35967  0.05011  0.50774  1.0000
  C   C751      1.0  0.32973  0.03099  0.52230  1.0000
  S   S307      1.0  0.53802  0.99116  0.65734  1.0000
  H   H1234     1.0  0.44632  0.01678  0.62643  1.0000
  C   C752      1.0  0.54910  0.00632  0.65822  1.0000
  C   C753      1.0  0.54017  0.02269  0.66175  1.0000
  C   C754      1.0  0.54942  0.03418  0.66316  1.0000
  C   C755      1.0  0.56759  0.02942  0.66077  1.0000
  C   C756      1.0  0.57646  0.01312  0.65706  1.0000
  H   H1235     1.0  0.34938  0.09846  0.49147  1.0000
  H   H1236     1.0  0.52617  0.02647  0.66346  1.0000
  H   H1237     1.0  0.54252  0.04681  0.66596  1.0000
  H   H1238     1.0  0.59048  0.00939  0.65499  1.0000
  S   S308      1.0  0.48978  0.99709  0.68241  1.0000
  C   C757      1.0  0.45485  0.04136  0.70480  1.0000
  C   C758      1.0  0.46364  0.02681  0.71546  1.0000
  C   C759      1.0  0.46994  0.08391  0.70038  1.0000
  H   H1239     1.0  0.60390  0.04894  0.72904  1.0000
  S   S309      1.0  0.41867  0.01061  0.54179  1.0000
  C   C760      1.0  0.44241  0.05432  0.71230  1.0000
  H   H1240     1.0  0.47330  0.01680  0.70975  1.0000
  H   H1241     1.0  0.49739  0.07843  0.72711  1.0000
  S   S310      1.0  0.38935  0.99865  0.57720  1.0000
  C   C761      1.0  0.60070  0.02623  0.71247  1.0000
  C   C762      1.0  0.48696  0.05703  0.71442  1.0000
  C   C763      1.0  0.32787  0.99135  0.49976  1.0000
  S   S311      1.0  0.34040  0.01402  0.57073  1.0000
  H   H1242     1.0  0.46957  0.07759  0.69007  1.0000
  C   C764      1.0  0.43937  0.05330  0.73024  1.0000
  H   H1243     1.0  0.37682  0.08146  0.50110  1.0000
  H   H1244     1.0  0.51913  0.02217  0.59141  1.0000
  C   C765      1.0  0.46137  0.01983  0.60013  1.0000
  H   H1245     1.0  0.55389  0.99854  0.61616  1.0000
  C   C766      1.0  0.64326  0.02974  0.71061  1.0000
  H   H1246     1.0  0.56589  0.99388  0.71303  1.0000
  H   H1247     1.0  0.63096  0.99966  0.61248  1.0000
  H   H1248     1.0  0.47607  0.05466  0.72569  1.0000
  H   H1249     1.0  0.55179  0.01490  0.71500  1.0000
  H   H1250     1.0  0.36780  0.08565  0.52267  1.0000
  H   H1251     1.0  0.35985  0.00663  0.49043  1.0000
  C   C767      1.0  0.64102  0.04751  0.70236  1.0000
  C   C768      1.0  0.38829  0.03127  0.48714  1.0000
  H   H1252     1.0  0.37629  0.06369  0.51967  1.0000
  H   H1253     1.0  0.52066  0.01975  0.71716  1.0000
  H   H1254     1.0  0.43017  0.99132  0.58777  1.0000
  H   H1255     1.0  0.55958  0.01276  0.58453  1.0000
  C   C769      1.0  0.53931  0.09403  0.73382  1.0000
  H   H1256     1.0  0.52324  0.99414  0.58339  1.0000
  H   H1257     1.0  0.47415  0.08229  0.73244  1.0000
  H   H1258     1.0  0.64365  0.01097  0.73513  1.0000
  H   H1259     1.0  0.54611  0.01187  0.57078  1.0000
  C   C770      1.0  0.52617  0.01493  0.60216  1.0000
  H   H1260     1.0  0.45537  0.99744  0.56411  1.0000
  S   S312      1.0  0.65719  0.01149  0.64994  1.0000
  H   H1261     1.0  0.51117  0.00218  0.71775  1.0000
  H   H1262     1.0  0.42659  0.99712  0.70989  1.0000
  H   H1263     1.0  0.32849  0.06806  0.52963  1.0000
  H   H1264     1.0  0.34054  0.10305  0.51282  1.0000
  C   C771      1.0  0.54769  0.98991  0.61259  1.0000
  H   H1265     1.0  0.43020  0.06373  0.73583  1.0000
  C   C772      1.0  0.61389  0.98967  0.60388  1.0000
  C   C773      1.0  0.62408  0.98937  0.61525  1.0000
  C   C774      1.0  0.57698  0.03405  0.73585  1.0000
  C   C775      1.0  0.60571  0.26130  0.80362  1.0000
  Fe  Fe152     1.0  0.49644  0.03472  0.79280  1.0000
  S   S313      1.0  0.52020  0.01956  0.77762  1.0000
  S   S314      1.0  0.50299  0.04048  0.81552  1.0000
  S   S315      1.0  0.45943  0.26982  0.93030  1.0000
  S   S316      1.0  0.58628  0.06201  0.76162  1.0000
  Fe  Fe153     1.0  0.50287  0.00285  0.77776  1.0000
  H   H1266     1.0  0.58148  0.13979  0.80812  1.0000
  H   H1267     1.0  0.51294  0.28851  0.92356  1.0000
  S   S317      1.0  0.47971  0.01629  0.79482  1.0000
  H   H1268     1.0  0.55957  0.29365  0.93953  1.0000
  Fe  Fe154     1.0  0.61244  0.16500  0.83975  1.0000
  S   S318      1.0  0.60306  0.15978  0.86898  1.0000
  Fe  Fe155     1.0  0.60041  0.20467  0.83516  1.0000
  S   S319      1.0  0.58994  0.20295  0.86362  1.0000
  S   S320      1.0  0.59655  0.22983  0.81500  1.0000
  Fe  Fe156     1.0  0.61429  0.18249  0.86738  1.0000
  S   S321      1.0  0.62716  0.18674  0.88652  1.0000
  Fe  Fe157     1.0  0.57972  0.18070  0.86280  1.0000
  S   S322      1.0  0.55213  0.18034  0.87590  1.0000
  S   S323      1.0  0.62582  0.18607  0.83859  1.0000
  S   S324      1.0  0.58797  0.18408  0.83388  1.0000
  H   H1269     1.0  0.51601  0.21762  0.84301  1.0000
  H   H1270     1.0  0.55674  0.29423  0.83386  1.0000
  C   C776      1.0  0.64942  0.25145  0.85548  1.0000
  H   H1271     1.0  0.49280  0.24169  0.94566  1.0000
  C   C777      1.0  0.52462  0.29834  0.88406  1.0000
  H   H1272     1.0  0.50403  0.25374  0.95243  1.0000
  H   H1273     1.0  0.52770  0.25033  0.81932  1.0000
  H   H1274     1.0  0.52652  0.26079  0.83635  1.0000
  H   H1275     1.0  0.53529  0.21943  0.86963  1.0000
  Fe  Fe158     1.0  0.59169  0.30457  0.88444  1.0000
  H   H1276     1.0  0.47174  0.18048  0.90504  1.0000
  S   S325      1.0  0.60877  0.28131  0.87437  1.0000
  S   S326      1.0  0.48996  0.25719  0.88721  1.0000
  S   S327      1.0  0.48057  0.23552  0.85693  1.0000
  Fe  Fe159     1.0  0.46954  0.11376  0.86769  1.0000
  S   S328      1.0  0.49674  0.10427  0.87205  1.0000
  S   S329      1.0  0.45772  0.10136  0.85360  1.0000
  Fe  Fe160     1.0  0.46323  0.14648  0.88117  1.0000
  S   S330      1.0  0.48997  0.13989  0.88643  1.0000
  S   S331      1.0  0.44470  0.17110  0.88770  1.0000
  Fe  Fe161     1.0  0.49875  0.13211  0.86070  1.0000
  S   S332      1.0  0.52372  0.13653  0.84218  1.0000
  Fe  Fe162     1.0  0.48601  0.11268  0.89753  1.0000
  S   S333      1.0  0.49903  0.09894  0.92038  1.0000
  S   S334      1.0  0.47240  0.14122  0.85426  1.0000
  S   S335      1.0  0.45824  0.11967  0.89447  1.0000
  C   C778      1.0  0.46719  0.28516  0.95191  1.0000
  H   H1277     1.0  0.51716  0.12024  0.77908  1.0000
  H   H1278     1.0  0.62335  0.15059  0.89942  1.0000
  C   C779      1.0  0.60545  0.15225  0.78176  1.0000
  C   C780      1.0  0.48966  0.10775  0.93904  1.0000
  C   C781      1.0  0.47190  0.10948  0.94629  1.0000
  C   C782      1.0  0.46460  0.11630  0.96133  1.0000
  C   C783      1.0  0.47489  0.12189  0.96890  1.0000
  C   C784      1.0  0.49267  0.12017  0.96166  1.0000
  C   C785      1.0  0.50007  0.11289  0.94690  1.0000
  H   H1279     1.0  0.46381  0.10540  0.94039  1.0000
  Fe  Fe163     1.0  0.62803  0.14606  0.98352  1.0000
  C   C786      1.0  0.43735  0.31898  0.92805  1.0000
  H   H1280     1.0  0.51384  0.11147  0.94141  1.0000
  C   C787      1.0  0.47015  0.21797  0.86567  1.0000
  C   C788      1.0  0.45433  0.21939  0.87776  1.0000
  C   C789      1.0  0.44617  0.20516  0.88406  1.0000
  C   C790      1.0  0.45404  0.18941  0.87860  1.0000
  C   C791      1.0  0.46988  0.18802  0.86664  1.0000
  C   C792      1.0  0.47786  0.20229  0.86009  1.0000
  H   H1281     1.0  0.44823  0.23154  0.88193  1.0000
  H   H1282     1.0  0.43377  0.20637  0.89315  1.0000
  H   H1283     1.0  0.47586  0.17599  0.86222  1.0000
  H   H1284     1.0  0.49003  0.20117  0.85065  1.0000
  C   C793      1.0  0.47279  0.27933  0.93638  1.0000
  H   H1285     1.0  0.51070  0.30324  0.88580  1.0000
  H   H1286     1.0  0.62834  0.22216  0.88614  1.0000
  C   C794      1.0  0.53698  0.00326  0.82196  1.0000
  C   C795      1.0  0.48907  0.28107  0.92584  1.0000
  H   H1287     1.0  0.47929  0.25701  0.97855  1.0000
  H   H1288     1.0  0.49350  0.27654  0.91381  1.0000
  H   H1289     1.0  0.61093  0.15768  0.76786  1.0000
  Fe  Fe164     1.0  0.47384  0.03342  0.76928  1.0000
  H   H1290     1.0  0.53132  0.12303  0.80913  1.0000
  Fe  Fe165     1.0  0.51080  0.03689  0.75400  1.0000
  H   H1291     1.0  0.50697  0.00373  0.81454  1.0000
  C   C796      1.0  0.47398  0.17919  0.91823  1.0000
  S   S336      1.0  0.56428  0.30558  0.89986  1.0000
  S   S337      1.0  0.53815  0.15937  0.97300  1.0000
  H   H1292     1.0  0.57461  0.28175  0.87688  1.0000
  H   H1293     1.0  0.55805  0.27268  0.86127  1.0000
  C   C797      1.0  0.60887  0.27526  0.93758  1.0000
  S   S338      1.0  0.58626  0.08710  0.82568  1.0000
  H   H1294     1.0  0.52998  0.24302  0.86566  1.0000
  H   H1295     1.0  0.51473  0.23229  0.94875  1.0000
  H   H1296     1.0  0.57645  0.14592  0.77795  1.0000
  H   H1297     1.0  0.63610  0.22960  0.84617  1.0000
  H   H1298     1.0  0.62030  0.25283  0.98388  1.0000
  C   C798      1.0  0.59310  0.24112  0.98092  1.0000
  H   H1299     1.0  0.60526  0.26035  0.79081  1.0000
  H   H1300     1.0  0.37406  0.31396  0.87254  1.0000
  H   H1301     1.0  0.58782  0.23388  0.97462  1.0000
  C   C799      1.0  0.50760  0.23218  0.98307  1.0000
  C   C800      1.0  0.54440  0.16874  0.86574  1.0000
  C   C801      1.0  0.55601  0.15723  0.85576  1.0000
  C   C802      1.0  0.54968  0.14781  0.84785  1.0000
  C   C803      1.0  0.53176  0.14994  0.84993  1.0000
  C   C804      1.0  0.52025  0.16193  0.85934  1.0000
  C   C805      1.0  0.52652  0.17119  0.86740  1.0000
  H   H1302     1.0  0.56985  0.15525  0.85451  1.0000
  H   H1303     1.0  0.55862  0.13850  0.84062  1.0000
  H   H1304     1.0  0.50645  0.16416  0.86031  1.0000
  H   H1305     1.0  0.51750  0.18035  0.87479  1.0000
  H   H1306     1.0  0.48745  0.17137  0.91855  1.0000
  C   C806      1.0  0.60276  0.24916  0.83467  1.0000
  C   C807      1.0  0.60979  0.99561  0.76201  1.0000
  H   H1307     1.0  0.59978  0.23890  0.84597  1.0000
  C   C808      1.0  0.49460  0.29339  0.94703  1.0000
  C   C809      1.0  0.62754  0.17202  0.90698  1.0000
  C   C810      1.0  0.62758  0.14945  0.94029  1.0000
  H   H1308     1.0  0.58104  0.16544  0.76243  1.0000
  H   H1309     1.0  0.56394  0.99416  0.79063  1.0000
  H   H1310     1.0  0.54352  0.06921  0.77430  1.0000
  C   C811      1.0  0.55224  0.29778  0.89014  1.0000
  C   C812      1.0  0.49011  0.05739  0.82595  1.0000
  C   C813      1.0  0.49581  0.06073  0.83917  1.0000
  C   C814      1.0  0.48603  0.07422  0.84770  1.0000
  C   C815      1.0  0.47037  0.08435  0.84316  1.0000
  C   C816      1.0  0.46465  0.08096  0.82998  1.0000
  C   C817      1.0  0.47454  0.06759  0.82130  1.0000
  H   H1311     1.0  0.50782  0.05282  0.84286  1.0000
  H   H1312     1.0  0.49040  0.07654  0.85802  1.0000
  H   H1313     1.0  0.45250  0.08871  0.82648  1.0000
  H   H1314     1.0  0.47002  0.06506  0.81116  1.0000
  H   H1315     1.0  0.63545  0.21986  0.97223  1.0000
  H   H1316     1.0  0.58552  0.02763  0.74544  1.0000
  C   C818      1.0  0.54076  0.07303  0.76135  1.0000
  Fe  Fe166     1.0  0.60890  0.06921  0.76587  1.0000
  H   H1317     1.0  0.61310  0.28614  0.79415  1.0000
  C   C819      1.0  0.61015  0.27591  0.80552  1.0000
  C   C820      1.0  0.52401  0.24920  0.83367  1.0000
  H   H1318     1.0  0.47055  0.31898  0.91308  1.0000
  C   C821      1.0  0.53012  0.21767  0.83900  1.0000
  H   H1319     1.0  0.54139  0.31859  0.84973  1.0000
  H   H1320     1.0  0.59650  0.13216  0.84810  1.0000
  C   C822      1.0  0.57637  0.15994  0.77653  1.0000
  C   C823      1.0  0.54239  0.08946  0.75077  1.0000
  H   H1321     1.0  0.50612  0.20611  0.96990  1.0000
  C   C824      1.0  0.50203  0.24041  0.95400  1.0000
  S   S339      1.0  0.61233  0.30911  0.89463  1.0000
  C   C825      1.0  0.50939  0.99544  0.82736  1.0000
  C   C826      1.0  0.57681  0.99445  0.78281  1.0000
  C   C827      1.0  0.55794  0.29772  0.95192  1.0000
  S   S340      1.0  0.47288  0.29903  0.88567  1.0000
  H   H1322     1.0  0.57663  0.29561  0.83822  1.0000
  N   N81       1.0  0.49532  0.23277  0.97249  1.0000
  H   H1323     1.0  0.57407  0.15219  0.97419  1.0000
  H   H1324     1.0  0.53548  0.01165  0.80886  1.0000
  H   H1325     1.0  0.56852  0.28921  0.95862  1.0000
  Fe  Fe167     1.0  0.45605  0.29723  0.86901  1.0000
  C   C828      1.0  0.56696  0.16213  0.98142  1.0000
  C   C829      1.0  0.53318  0.06552  0.73816  1.0000
  H   H1326     1.0  0.50073  0.12441  0.96742  1.0000
  N   N82       1.0  0.57048  0.16686  0.92177  1.0000
  C   C830      1.0  0.57713  0.16247  0.93792  1.0000
  C   C831      1.0  0.55130  0.17031  0.92619  1.0000
  C   C832      1.0  0.57738  0.15200  0.91304  1.0000
  C   C833      1.0  0.57612  0.18260  0.91005  1.0000
  H   H1327     1.0  0.59151  0.16035  0.93517  1.0000
  H   H1328     1.0  0.57359  0.15031  0.94682  1.0000
  H   H1329     1.0  0.57175  0.17316  0.94513  1.0000
  H   H1330     1.0  0.54578  0.17373  0.91430  1.0000
  H   H1331     1.0  0.54668  0.15865  0.93509  1.0000
  H   H1332     1.0  0.54566  0.18127  0.93305  1.0000
  H   H1333     1.0  0.57262  0.15489  0.90077  1.0000
  H   H1334     1.0  0.57338  0.13992  0.92160  1.0000
  H   H1335     1.0  0.59183  0.14897  0.90966  1.0000
  H   H1336     1.0  0.59055  0.18025  0.90606  1.0000
  H   H1337     1.0  0.57162  0.19389  0.91647  1.0000
  H   H1338     1.0  0.57086  0.18660  0.89797  1.0000
  H   H1339     1.0  0.49506  0.12130  0.79079  1.0000
  C   C834      1.0  0.44894  0.03941  0.74076  1.0000
  H   H1340     1.0  0.52401  0.08866  0.79178  1.0000
  N   N83       1.0  0.54669  0.09373  0.88153  1.0000
  C   C835      1.0  0.56428  0.09010  0.88501  1.0000
  C   C836      1.0  0.53624  0.11013  0.88672  1.0000
  C   C837      1.0  0.53827  0.07911  0.89174  1.0000
  C   C838      1.0  0.54794  0.09555  0.86270  1.0000
  H   H1341     1.0  0.57283  0.07828  0.88044  1.0000
  H   H1342     1.0  0.56384  0.08787  0.89920  1.0000
  H   H1343     1.0  0.57068  0.10124  0.87821  1.0000
  H   H1344     1.0  0.52308  0.11351  0.88381  1.0000
  H   H1345     1.0  0.53443  0.10902  0.90098  1.0000
  H   H1346     1.0  0.54236  0.12141  0.87960  1.0000
  H   H1347     1.0  0.52488  0.08148  0.88961  1.0000
  H   H1348     1.0  0.53696  0.07743  0.90603  1.0000
  H   H1349     1.0  0.54576  0.06652  0.88813  1.0000
  H   H1350     1.0  0.55656  0.08383  0.85801  1.0000
  H   H1351     1.0  0.55319  0.10711  0.85463  1.0000
  H   H1352     1.0  0.53500  0.09747  0.85972  1.0000
  H   H1353     1.0  0.45450  0.28408  0.95997  1.0000
  Fe  Fe168     1.0  0.58977  0.07697  0.80142  1.0000
  C   C839      1.0  0.47795  0.29254  0.95702  1.0000
  C   C840      1.0  0.58073  0.15407  0.80587  1.0000
  H   H1354     1.0  0.59450  0.25385  0.97173  1.0000
  Fe  Fe169     1.0  0.49965  0.29883  0.98337  1.0000
  H   H1355     1.0  0.63254  0.19051  0.91829  1.0000
  H   H1356     1.0  0.53719  0.20499  0.84597  1.0000
  C   C841      1.0  0.58696  0.18035  0.78523  1.0000
  H   H1357     1.0  0.56763  0.31315  0.97167  1.0000
  Fe  Fe170     1.0  0.47272  0.25852  0.86960  1.0000
  S   S341      1.0  0.59319  0.09399  0.77434  1.0000
  S   S342      1.0  0.62096  0.17478  0.98239  1.0000
  H   H1358     1.0  0.60628  0.13809  0.78317  1.0000
  S   S343      1.0  0.49590  0.01860  0.75241  1.0000
  H   H1359     1.0  0.45228  0.14684  0.93918  1.0000
  H   H1360     1.0  0.59487  0.27797  0.94009  1.0000
  C   C842      1.0  0.62504  0.15509  0.90996  1.0000
  H   H1361     1.0  0.50341  0.00384  0.83703  1.0000
  H   H1362     1.0  0.53665  0.09995  0.81820  1.0000
  H   H1363     1.0  0.57510  0.29724  0.81632  1.0000
  H   H1364     1.0  0.47519  0.14472  0.92988  1.0000
  H   H1365     1.0  0.64544  0.20996  0.86023  1.0000
  S   S344      1.0  0.50892  0.30036  0.95463  1.0000
  H   H1366     1.0  0.53461  0.04867  0.76357  1.0000
  C   C843      1.0  0.62517  0.14379  0.92656  1.0000
  H   H1367     1.0  0.62996  0.24316  0.88757  1.0000
  H   H1368     1.0  0.60673  0.26528  0.84941  1.0000
  H   H1369     1.0  0.53410  0.00025  0.74217  1.0000
  C   C844      1.0  0.53161  0.10997  0.80723  1.0000
  H   H1370     1.0  0.45086  0.11750  0.96691  1.0000
  C   C845      1.0  0.60679  0.26408  0.83662  1.0000
  C   C846      1.0  0.62118  0.11805  0.81185  1.0000
  S   S345      1.0  0.62657  0.13542  0.96126  1.0000
  C   C847      1.0  0.60220  0.24780  0.81811  1.0000
  C   C848      1.0  0.61732  0.27801  0.94898  1.0000
  S   S346      1.0  0.44847  0.27233  0.88558  1.0000
  H   H1371     1.0  0.56017  0.21974  0.84447  1.0000
  H   H1372     1.0  0.56262  0.16688  0.78036  1.0000
  Fe  Fe171     1.0  0.46660  0.27338  0.90131  1.0000
  S   S347      1.0  0.62514  0.14518  0.82291  1.0000
  H   H1373     1.0  0.50114  0.12455  0.82530  1.0000
  H   H1374     1.0  0.50587  0.10142  0.83439  1.0000
  C   C849      1.0  0.61073  0.27739  0.82199  1.0000
  C   C850      1.0  0.53412  0.30344  0.89300  1.0000
  S   S348      1.0  0.64913  0.28412  0.98233  1.0000
  S   S349      1.0  0.63136  0.07096  0.74275  1.0000
  H   H1375     1.0  0.50216  0.08943  0.80410  1.0000
  C   C851      1.0  0.50189  0.11154  0.82297  1.0000
  N   N84       1.0  0.51420  0.10864  0.80655  1.0000
  H   H1376     1.0  0.54118  0.10801  0.79495  1.0000
  H   H1377     1.0  0.64209  0.27617  0.95444  1.0000
  C   C852      1.0  0.50813  0.12203  0.79170  1.0000
  C   C853      1.0  0.63548  0.27425  0.94565  1.0000
  C   C854      1.0  0.64517  0.26884  0.93032  1.0000
  C   C855      1.0  0.63660  0.26733  0.91836  1.0000
  H   H1378     1.0  0.60820  0.01752  0.77271  1.0000
  C   C856      1.0  0.61850  0.26998  0.92227  1.0000
  H   H1379     1.0  0.58614  0.31171  0.94242  1.0000
  C   C857      1.0  0.53570  0.06132  0.75523  1.0000
  C   C858      1.0  0.61531  0.12795  0.82471  1.0000
  H   H1380     1.0  0.51395  0.23146  0.86662  1.0000
  H   H1381     1.0  0.50720  0.13548  0.79302  1.0000
  H   H1382     1.0  0.48851  0.11101  0.82282  1.0000
  S   S350      1.0  0.52257  0.28375  0.85841  1.0000
  H   H1383     1.0  0.55725  0.23317  0.82347  1.0000
  H   H1384     1.0  0.43994  0.18297  0.91878  1.0000
  C   C859      1.0  0.52801  0.23160  0.86211  1.0000
  H   H1385     1.0  0.63239  0.12033  0.80160  1.0000
  C   C860      1.0  0.51515  0.09105  0.80426  1.0000
  H   H1386     1.0  0.52008  0.08053  0.81498  1.0000
  C   C861      1.0  0.41603  0.32136  0.89156  1.0000
  Fe  Fe172     1.0  0.63002  0.28760  0.88202  1.0000
  S   S351      1.0  0.60767  0.05258  0.79331  1.0000
  H   H1387     1.0  0.54536  0.29505  0.96031  1.0000
  C   C862      1.0  0.60165  0.00778  0.77256  1.0000
  C   C863      1.0  0.60102  0.12472  0.83806  1.0000
  H   H1388     1.0  0.57357  0.18784  0.78957  1.0000
  H   H1389     1.0  0.61182  0.26889  0.91301  1.0000
  H   H1390     1.0  0.47328  0.19259  0.91953  1.0000
  H   H1391     1.0  0.53145  0.01203  0.83131  1.0000
  S   S352      1.0  0.48820  0.05338  0.76884  1.0000
  C   C864      1.0  0.54903  0.16802  0.98312  1.0000
  C   C865      1.0  0.44343  0.18173  0.93139  1.0000
  C   C866      1.0  0.46211  0.15340  0.92927  1.0000
  N   N85       1.0  0.55822  0.31641  0.94852  1.0000
  C   C867      1.0  0.61236  0.10554  0.81188  1.0000
  H   H1392     1.0  0.61916  0.24159  0.87178  1.0000
  H   H1393     1.0  0.63267  0.17064  0.94745  1.0000
  H   H1394     1.0  0.59535  0.18195  0.79312  1.0000
  H   H1395     1.0  0.58838  0.15567  0.81444  1.0000
  N   N86       1.0  0.46110  0.17078  0.93206  1.0000
  H   H1396     1.0  0.44229  0.19518  0.93281  1.0000
  H   H1397     1.0  0.45961  0.15436  0.91629  1.0000
  H   H1398     1.0  0.43346  0.17591  0.94189  1.0000
  S   S353      1.0  0.57491  0.02168  0.79703  1.0000
  C   C868      1.0  0.59251  0.11191  0.83833  1.0000
  C   C869      1.0  0.63035  0.17752  0.92056  1.0000
  C   C870      1.0  0.63037  0.23528  0.87827  1.0000
  N   N87       1.0  0.58737  0.16166  0.78733  1.0000
  H   H1399     1.0  0.53414  0.21804  0.82479  1.0000
  S   S354      1.0  0.44771  0.04064  0.76220  1.0000
  C   C871      1.0  0.59794  0.10246  0.82515  1.0000
  H   H1400     1.0  0.58152  0.10953  0.84864  1.0000
  H   H1401     1.0  0.61682  0.09816  0.80178  1.0000
  C   C872      1.0  0.58516  0.00714  0.78309  1.0000
  N   N88       1.0  0.64703  0.23379  0.86542  1.0000
  H   H1402     1.0  0.56721  0.04482  0.74113  1.0000
  Fe  Fe173     1.0  0.61547  0.30083  0.84966  1.0000
  C   C873      1.0  0.46485  0.16869  0.94934  1.0000
  H   H1403     1.0  0.47797  0.16025  0.95045  1.0000
  H   H1404     1.0  0.61817  0.21874  0.96343  1.0000
  C   C874      1.0  0.56075  0.28648  0.87889  1.0000
  S   S355      1.0  0.54975  0.10341  0.75846  1.0000
  H   H1405     1.0  0.45533  0.16237  0.96004  1.0000
  H   H1406     1.0  0.46427  0.18153  0.95191  1.0000
  C   C875      1.0  0.55132  0.28131  0.87007  1.0000
  H   H1407     1.0  0.62332  0.13067  0.92883  1.0000
  H   H1408     1.0  0.50973  0.25017  0.83768  1.0000
  S   S356      1.0  0.56564  0.07015  0.79972  1.0000
  H   H1409     1.0  0.61411  0.15318  0.78972  1.0000
  S   S357      1.0  0.60480  0.28668  0.96691  1.0000
  H   H1410     1.0  0.59177  0.18659  0.77138  1.0000
  C   C876      1.0  0.55249  0.23217  0.83777  1.0000
  H   H1411     1.0  0.55567  0.24315  0.84094  1.0000
  C   C877      1.0  0.53333  0.28761  0.87226  1.0000
  Fe  Fe174     1.0  0.49460  0.28268  0.86978  1.0000
  S   S358      1.0  0.47851  0.28340  0.85137  1.0000
  S   S359      1.0  0.64765  0.26613  0.89709  1.0000
  C   C878      1.0  0.64697  0.22345  0.85323  1.0000
  C   C879      1.0  0.50004  0.28795  0.93127  1.0000
  H   H1412     1.0  0.56185  0.31946  0.85299  1.0000
  C   C880      1.0  0.63033  0.16630  0.93716  1.0000
  N   N89       1.0  0.53367  0.23266  0.84312  1.0000
  Fe  Fe175     1.0  0.57051  0.08537  0.77217  1.0000
  H   H1413     1.0  0.55117  0.99863  0.82163  1.0000
  S   S360      1.0  0.61577  0.29642  0.82356  1.0000
  H   H1414     1.0  0.47324  0.29776  0.96860  1.0000
  H   H1415     1.0  0.62433  0.23924  0.95944  1.0000
  Fe  Fe176     1.0  0.58363  0.04725  0.78942  1.0000
  H   H1416     1.0  0.63885  0.25853  0.84823  1.0000
  H   H1417     1.0  0.56694  0.16047  0.81040  1.0000
  C   C881      1.0  0.56776  0.30097  0.82884  1.0000
  H   H1418     1.0  0.63605  0.03334  0.75277  1.0000
  H   H1419     1.0  0.50910  0.24553  0.98234  1.0000
  H   H1420     1.0  0.42289  0.30790  0.89526  1.0000
  H   H1421     1.0  0.44032  0.99798  0.74128  1.0000
  Fe  Fe177     1.0  0.62046  0.29165  0.98300  1.0000
  H   H1422     1.0  0.46887  0.24537  0.97028  1.0000
  H   H1423     1.0  0.52748  0.31214  0.90176  1.0000
  H   H1424     1.0  0.46757  0.01472  0.74171  1.0000
  H   H1425     1.0  0.48418  0.21482  0.96655  1.0000
  H   H1426     1.0  0.57650  0.31592  0.92403  1.0000
  H   H1427     1.0  0.62263  0.99599  0.75408  1.0000
  H   H1428     1.0  0.64950  0.25966  0.86424  1.0000
  C   C882      1.0  0.62246  0.22704  0.96942  1.0000
  H   H1429     1.0  0.44329  0.30902  0.91994  1.0000
  C   C883      1.0  0.57476  0.31956  0.93664  1.0000
  S   S361      1.0  0.43732  0.32189  0.85893  1.0000
  C   C884      1.0  0.49345  0.21483  0.97429  1.0000
  C   C885      1.0  0.47820  0.24371  0.97864  1.0000
  C   C886      1.0  0.63739  0.03734  0.73874  1.0000
  S   S362      1.0  0.63844  0.30544  0.85645  1.0000
  H   H1430     1.0  0.42115  0.99100  0.74205  1.0000
  H   H1431     1.0  0.52070  0.22409  0.97879  1.0000
  H   H1432     1.0  0.43928  0.31248  0.94155  1.0000
  H   H1433     1.0  0.54433  0.31886  0.97446  1.0000
  H   H1434     1.0  0.53764  0.32031  0.82037  1.0000
  C   C887      1.0  0.55667  0.32109  0.96518  1.0000
  N   N90       1.0  0.56155  0.32015  0.82652  1.0000
  H   H1435     1.0  0.39861  0.32126  0.91670  1.0000
  N   N91       1.0  0.60990  0.23089  0.98543  1.0000
  H   H1436     1.0  0.42314  0.32253  0.92855  1.0000
  H   H1437     1.0  0.52759  0.65005  0.01754  1.0000
  S   S363      1.0  0.59731  0.63456  0.00154  1.0000
  H   H1438     1.0  0.35724  0.50894  0.05862  1.0000
  C   C888      1.0  0.42867  0.33461  0.00976  1.0000
  S   S364      1.0  0.38463  0.55783  0.01141  1.0000
  H   H1439     1.0  0.43498  0.55813  0.99537  1.0000
  S   S365      1.0  0.50777  0.65017  0.99340  1.0000
  C   C889      1.0  0.34050  0.47272  0.06974  1.0000
  H   H1440     1.0  0.32904  0.46939  0.06771  1.0000
  C   C890      1.0  0.53774  0.33379  0.03641  1.0000
  C   C891      1.0  0.40331  0.38880  0.04775  1.0000
  C   C892      1.0  0.39342  0.44963  0.05480  1.0000
  S   S366      1.0  0.48787  0.61738  0.01231  1.0000
  Fe  Fe178     1.0  0.46334  0.63610  0.00611  1.0000
  S   S367      1.0  0.43674  0.62999  0.01211  1.0000
  Fe  Fe179     1.0  0.49320  0.63937  0.01996  1.0000
  S   S368      1.0  0.50228  0.63320  0.04514  1.0000
  S   S369      1.0  0.38778  0.52512  0.04568  1.0000
  H   H1441     1.0  0.43807  0.64072  0.04225  1.0000
  H   H1442     1.0  0.44552  0.60094  0.08824  1.0000
  H   H1443     1.0  0.43614  0.37204  0.03557  1.0000
  H   H1444     1.0  0.45543  0.63662  0.07188  1.0000
  C   C893      1.0  0.33420  0.54032  0.01012  1.0000
  C   C894      1.0  0.40497  0.40377  0.01754  1.0000
  Fe  Fe180     1.0  0.35427  0.41791  0.02726  1.0000
  S   S370      1.0  0.36694  0.42810  0.99965  1.0000
  H   H1445     1.0  0.45705  0.61148  0.03982  1.0000
  H   H1446     1.0  0.53585  0.59174  0.01581  1.0000
  H   H1447     1.0  0.43351  0.41116  0.02119  1.0000
  H   H1448     1.0  0.55641  0.57678  0.01096  1.0000
  C   C895      1.0  0.45089  0.60608  0.05348  1.0000
  S   S371      1.0  0.36227  0.38962  0.02572  1.0000
  C   C896      1.0  0.54849  0.58998  0.00629  1.0000
  C   C897      1.0  0.43730  0.34494  0.99504  1.0000
  N   N92       1.0  0.55761  0.60391  0.00422  1.0000
  H   H1449     1.0  0.43149  0.62200  0.08993  1.0000
  H   H1450     1.0  0.34689  0.54290  0.00418  1.0000
  C   C898      1.0  0.55442  0.64329  0.04537  1.0000
  H   H1451     1.0  0.39527  0.41552  0.02111  1.0000
  N   N93       1.0  0.41518  0.39456  0.03116  1.0000
  Fe  Fe181     1.0  0.33706  0.39472  0.01729  1.0000
  H   H1452     1.0  0.52706  0.34209  0.04348  1.0000
  H   H1453     1.0  0.39776  0.39508  0.01557  1.0000
  C   C899      1.0  0.39413  0.46338  0.04001  1.0000
  C   C900      1.0  0.38473  0.46496  0.02741  1.0000
  C   C901      1.0  0.37453  0.45282  0.02980  1.0000
  C   C902      1.0  0.37349  0.43939  0.04496  1.0000
  C   C903      1.0  0.38295  0.43788  0.05740  1.0000
  H   H1454     1.0  0.38544  0.47546  0.01585  1.0000
  H   H1455     1.0  0.36710  0.45415  0.02021  1.0000
  H   H1456     1.0  0.38210  0.42764  0.06919  1.0000
  H   H1457     1.0  0.56779  0.61400  0.02008  1.0000
  C   C904      1.0  0.43410  0.60838  0.01581  1.0000
  C   C905      1.0  0.44799  0.59391  0.01795  1.0000
  H   H1458     1.0  0.38804  0.36120  0.01279  1.0000
  C   C906      1.0  0.42832  0.57409  0.02547  1.0000
  C   C907      1.0  0.41460  0.58852  0.02241  1.0000
  C   C908      1.0  0.41746  0.60561  0.01780  1.0000
  H   H1459     1.0  0.46093  0.59581  0.01617  1.0000
  H   H1460     1.0  0.40164  0.58653  0.02436  1.0000
  H   H1461     1.0  0.40664  0.61673  0.01614  1.0000
  C   C909      1.0  0.40178  0.35687  0.00789  1.0000
  C   C910      1.0  0.55454  0.33107  0.03903  1.0000
  C   C911      1.0  0.56103  0.60353  0.02122  1.0000
  H   H1462     1.0  0.58128  0.61162  0.98946  1.0000
  H   H1463     1.0  0.53398  0.62332  0.00732  1.0000
  C   C912      1.0  0.54853  0.64816  0.02970  1.0000
  C   C913      1.0  0.54658  0.62106  0.99791  1.0000
  H   H1464     1.0  0.64416  0.60859  0.01817  1.0000
  Fe  Fe182     1.0  0.62327  0.64197  0.99226  1.0000
  H   H1465     1.0  0.34332  0.50814  0.03612  1.0000
  H   H1466     1.0  0.42099  0.62973  0.05410  1.0000
  H   H1467     1.0  0.42649  0.64461  0.06330  1.0000
  C   C914      1.0  0.54403  0.63587  0.06077  1.0000
  C   C915      1.0  0.52804  0.63299  0.06051  1.0000
  C   C916      1.0  0.52212  0.63781  0.04490  1.0000
  H   H1468     1.0  0.35227  0.46378  0.06400  1.0000
  C   C917      1.0  0.43197  0.63433  0.05558  1.0000
  H   H1469     1.0  0.54846  0.63210  0.07293  1.0000
  H   H1470     1.0  0.52026  0.62695  0.07246  1.0000
  H   H1471     1.0  0.56932  0.59078  0.02647  1.0000
  Fe  Fe183     1.0  0.39601  0.53729  0.99569  1.0000
  S   S372      1.0  0.42495  0.55258  0.03369  1.0000
  H   H1472     1.0  0.40409  0.33261  0.02737  1.0000
  H   H1473     1.0  0.35715  0.49205  0.07823  1.0000
  S   S373      1.0  0.37828  0.51925  0.01110  1.0000
  C   C918      1.0  0.45956  0.62622  0.06432  1.0000
  C   C919      1.0  0.42788  0.37912  0.02582  1.0000
  Fe  Fe184     1.0  0.59150  0.65260  0.01959  1.0000
  C   C920      1.0  0.41087  0.34061  0.01608  1.0000
  H   H1474     1.0  0.44002  0.60079  0.05279  1.0000
  H   H1475     1.0  0.55292  0.63202  0.99616  1.0000
  H   H1476     1.0  0.41341  0.40811  0.00469  1.0000
  Fe  Fe185     1.0  0.39850  0.50701  0.02724  1.0000
  S   S374      1.0  0.41735  0.52307  0.01004  1.0000
  H   H1477     1.0  0.40072  0.44831  0.06452  1.0000
  C   C921      1.0  0.41043  0.36724  0.99327  1.0000
  C   C922      1.0  0.35675  0.49492  0.06418  1.0000
  H   H1478     1.0  0.55639  0.65391  0.01770  1.0000
  H   H1479     1.0  0.45572  0.56574  0.02537  1.0000
  H   H1480     1.0  0.46070  0.59489  0.05906  1.0000
  Fe  Fe186     1.0  0.40501  0.54251  0.02695  1.0000
  H   H1481     1.0  0.42125  0.36957  0.02440  1.0000
  H   H1482     1.0  0.33108  0.35638  0.98945  1.0000
  H   H1483     1.0  0.42497  0.60710  0.08174  1.0000
  H   H1484     1.0  0.39353  0.40013  0.05214  1.0000
  C   C923      1.0  0.43628  0.61210  0.08174  1.0000
  H   H1485     1.0  0.54872  0.60574  0.03113  1.0000
  H   H1486     1.0  0.36884  0.48697  0.05761  1.0000
  H   H1487     1.0  0.46619  0.63195  0.05096  1.0000
  S   S375      1.0  0.40708  0.47801  0.03792  1.0000
  H   H1488     1.0  0.43663  0.38287  0.01301  1.0000
  S   S376      1.0  0.33963  0.54459  0.04010  1.0000
  H   H1489     1.0  0.43218  0.40018  0.04379  1.0000
  Fe  Fe187     1.0  0.36847  0.53859  0.02835  1.0000
  C   C924      1.0  0.44503  0.57686  0.02308  1.0000
  S   S377      1.0  0.35960  0.42501  0.04964  1.0000
  S   S378      1.0  0.57457  0.64645  0.04611  1.0000
  N   N94       1.0  0.44467  0.61968  0.06380  1.0000
  H   H1490     1.0  0.55674  0.33729  0.04807  1.0000
  C   C925      1.0  0.42443  0.40660  0.03349  1.0000
  H   H1491     1.0  0.33993  0.46964  0.08403  1.0000
  C   C926      1.0  0.53225  0.64574  0.02954  1.0000
  H   H1492     1.0  0.39596  0.37987  0.04634  1.0000
  S   S379      1.0  0.51300  0.32891  0.02326  1.0000
  H   H1493     1.0  0.46956  0.61556  0.07027  1.0000
  H   H1494     1.0  0.45095  0.34040  0.98995  1.0000
  H   H1495     1.0  0.34545  0.50044  0.99134  1.0000
  Fe  Fe188     1.0  0.37325  0.40000  0.99760  1.0000
  C   C927      1.0  0.57419  0.60121  0.99140  1.0000
  H   H1496     1.0  0.41053  0.38169  0.05836  1.0000
  H   H1497     1.0  0.58291  0.58839  0.99570  1.0000
  C   C928      1.0  0.65596  0.60138  0.01127  1.0000
  H   H1498     1.0  0.41518  0.41848  0.03735  1.0000
  H   H1499     1.0  0.35246  0.48557  0.03637  1.0000
  N   N95       1.0  0.34104  0.49125  0.06169  1.0000
  C   C929      1.0  0.34149  0.49472  0.04281  1.0000
  C   C930      1.0  0.32693  0.54154  0.02738  1.0000
  Fe  Fe189     1.0  0.34109  0.42986  0.99416  1.0000
  C   C931      1.0  0.32542  0.50269  0.06999  1.0000
  S   S380      1.0  0.32770  0.42190  0.02200  1.0000
  C   C932      1.0  0.53464  0.32566  0.02498  1.0000
  H   H1500     1.0  0.54552  0.59016  0.99368  1.0000
  H   H1501     1.0  0.32566  0.51676  0.06448  1.0000
  H   H1502     1.0  0.32928  0.49343  0.04032  1.0000
  H   H1503     1.0  0.34712  0.36629  0.99141  1.0000
  C   C933      1.0  0.32508  0.53576  0.00051  1.0000
  H   H1504     1.0  0.41351  0.58547  0.98807  1.0000
  H   H1505     1.0  0.36650  0.48581  0.98842  1.0000
  S   S381      1.0  0.34875  0.40301  0.98900  1.0000
  H   H1506     1.0  0.33076  0.53508  0.98710  1.0000
  C   C934      1.0  0.42818  0.36119  0.98680  1.0000
  S   S382      1.0  0.58679  0.63304  0.87555  1.0000
  S   S383      1.0  0.59048  0.60599  0.92306  1.0000
  Fe  Fe190     1.0  0.61186  0.64177  0.86322  1.0000
  H   H1507     1.0  0.54412  0.32364  0.92793  1.0000
  Fe  Fe191     1.0  0.37369  0.55056  0.88569  1.0000
  S   S384      1.0  0.36813  0.53632  0.91367  1.0000
  N   N96       1.0  0.34868  0.36428  0.96530  1.0000
  Fe  Fe192     1.0  0.35346  0.52191  0.90528  1.0000
  C   C935      1.0  0.35384  0.46241  0.91306  1.0000
  S   S385      1.0  0.36165  0.53373  0.87685  1.0000
  H   H1508     1.0  0.43834  0.34165  0.94581  1.0000
  Fe  Fe193     1.0  0.34664  0.41788  0.88657  1.0000
  H   H1509     1.0  0.35472  0.57073  0.84645  1.0000
  S   S386      1.0  0.35412  0.44347  0.87204  1.0000
  Fe  Fe194     1.0  0.35684  0.37941  0.90402  1.0000
  H   H1510     1.0  0.35481  0.33622  0.97349  1.0000
  S   S387      1.0  0.37640  0.35564  0.91449  1.0000
  H   H1511     1.0  0.35500  0.59855  0.85253  1.0000
  C   C936      1.0  0.50342  0.58019  0.95024  1.0000
  H   H1512     1.0  0.36538  0.48036  0.95288  1.0000
  C   C937      1.0  0.65491  0.42958  0.84031  1.0000
  S   S388      1.0  0.35697  0.39339  0.87604  1.0000
  S   S389      1.0  0.34887  0.40400  0.91412  1.0000
  S   S390      1.0  0.62106  0.35317  0.87017  1.0000
  C   C938      1.0  0.43663  0.34734  0.93210  1.0000
  C   C939      1.0  0.54351  0.32721  0.94032  1.0000
  C   C940      1.0  0.59539  0.62074  0.94668  1.0000
  H   H1513     1.0  0.35020  0.59839  0.82387  1.0000
  H   H1514     1.0  0.54462  0.58214  0.92367  1.0000
  N   N97       1.0  0.36139  0.34100  0.86462  1.0000
  C   C941      1.0  0.46388  0.32919  0.92077  1.0000
  C   C942      1.0  0.39285  0.58314  0.82617  1.0000
  H   H1515     1.0  0.41508  0.35610  0.85678  1.0000
  C   C943      1.0  0.36776  0.51615  0.96482  1.0000
  H   H1516     1.0  0.39765  0.65249  0.90213  1.0000
  S   S391      1.0  0.62960  0.63513  0.83863  1.0000
  H   H1517     1.0  0.53528  0.62984  0.91941  1.0000
  C   C944      1.0  0.50820  0.60366  0.95987  1.0000
  Fe  Fe195     1.0  0.44402  0.62398  0.88672  1.0000
  H   H1518     1.0  0.60883  0.61393  0.94389  1.0000
  C   C945      1.0  0.39331  0.34636  0.89897  1.0000
  C   C946      1.0  0.39797  0.35612  0.88206  1.0000
  C   C947      1.0  0.36888  0.56907  0.84053  1.0000
  C   C948      1.0  0.35800  0.37858  0.95682  1.0000
  C   C949      1.0  0.33677  0.36453  0.95449  1.0000
  H   H1519     1.0  0.38008  0.51047  0.96965  1.0000
  H   H1520     1.0  0.39134  0.36965  0.87840  1.0000
  H   H1521     1.0  0.37572  0.36107  0.85847  1.0000
  Fe  Fe196     1.0  0.48078  0.63084  0.87698  1.0000
  C   C950      1.0  0.65714  0.38126  0.86141  1.0000
  H   H1522     1.0  0.62835  0.44840  0.82490  1.0000
  H   H1523     1.0  0.36950  0.56803  0.92060  1.0000
  S   S392      1.0  0.32724  0.45111  0.97534  1.0000
  H   H1524     1.0  0.38359  0.32489  0.85113  1.0000
  C   C951      1.0  0.36140  0.34730  0.96711  1.0000
  H   H1525     1.0  0.49099  0.62870  0.95338  1.0000
  C   C952      1.0  0.51282  0.58615  0.95852  1.0000
  H   H1526     1.0  0.64682  0.61234  0.91078  1.0000
  C   C953      1.0  0.34860  0.33678  0.85762  1.0000
  H   H1527     1.0  0.45257  0.56517  0.94769  1.0000
  H   H1528     1.0  0.58378  0.32504  0.80615  1.0000
  C   C954      1.0  0.38366  0.55531  0.95864  1.0000
  H   H1529     1.0  0.54752  0.64679  0.95453  1.0000
  C   C955      1.0  0.35477  0.49206  0.98266  1.0000
  S   S393      1.0  0.58312  0.65520  0.90514  1.0000
  S   S394      1.0  0.47543  0.64706  0.97848  1.0000
  H   H1530     1.0  0.64487  0.61121  0.86772  1.0000
  H   H1531     1.0  0.44216  0.35923  0.92721  1.0000
  C   C956      1.0  0.58318  0.61718  0.93989  1.0000
  C   C957      1.0  0.35368  0.48009  0.90552  1.0000
  C   C958      1.0  0.35411  0.48636  0.88763  1.0000
  C   C959      1.0  0.35477  0.47491  0.87735  1.0000
  C   C960      1.0  0.35441  0.45729  0.88502  1.0000
  C   C961      1.0  0.35390  0.45110  0.90291  1.0000
  H   H1532     1.0  0.54363  0.62187  0.98514  1.0000
  H   H1533     1.0  0.35403  0.49997  0.88168  1.0000
  H   H1534     1.0  0.35533  0.47977  0.86348  1.0000
  H   H1535     1.0  0.35390  0.43756  0.90895  1.0000
  H   H1536     1.0  0.34879  0.39163  0.95528  1.0000
  C   C962      1.0  0.43820  0.55723  0.98146  1.0000
  H   H1537     1.0  0.41424  0.59717  0.96570  1.0000
  C   C963      1.0  0.38434  0.55937  0.94070  1.0000
  H   H1538     1.0  0.56105  0.59336  0.92247  1.0000
  C   C964      1.0  0.43905  0.57270  0.95146  1.0000
  H   H1539     1.0  0.57198  0.60158  0.97842  1.0000
  H   H1540     1.0  0.42823  0.34723  0.90273  1.0000
  Fe  Fe197     1.0  0.46859  0.60870  0.91191  1.0000
  H   H1541     1.0  0.64366  0.51502  0.85553  1.0000
  S   S395      1.0  0.35257  0.49403  0.91888  1.0000
  H   H1542     1.0  0.33373  0.51928  0.96590  1.0000
  H   H1543     1.0  0.36786  0.60920  0.81319  1.0000
  S   S396      1.0  0.40266  0.54524  0.96660  1.0000
  H   H1544     1.0  0.53969  0.59948  0.93493  1.0000
  C   C965      1.0  0.41151  0.34848  0.86987  1.0000
  C   C966      1.0  0.42061  0.33112  0.87459  1.0000
  H   H1545     1.0  0.42239  0.35170  0.93249  1.0000
  S   S397      1.0  0.34972  0.57211  0.88792  1.0000
  H   H1546     1.0  0.63197  0.37964  0.87793  1.0000
  C   C967      1.0  0.65384  0.60924  0.82511  1.0000
  S   S398      1.0  0.40013  0.55641  0.87249  1.0000
  H   H1547     1.0  0.37182  0.56133  0.83045  1.0000
  C   C968      1.0  0.56580  0.62614  0.94326  1.0000
  S   S399      1.0  0.32820  0.54133  0.90951  1.0000
  C   C969      1.0  0.44231  0.34259  0.90299  1.0000
  S   S400      1.0  0.59675  0.32389  0.85911  1.0000
  C   C970      1.0  0.64197  0.63314  0.93313  1.0000
  H   H1548     1.0  0.37595  0.58868  0.85786  1.0000
  H   H1549     1.0  0.34855  0.48146  0.98291  1.0000
  C   C971      1.0  0.64229  0.37426  0.86814  1.0000
  H   H1550     1.0  0.65655  0.35761  0.94393  1.0000
  H   H1551     1.0  0.51465  0.61354  0.91877  1.0000
  N   N98       1.0  0.35932  0.50241  0.96469  1.0000
  H   H1552     1.0  0.36785  0.58908  0.80828  1.0000
  H   H1553     1.0  0.36268  0.34697  0.88820  1.0000
  H   H1554     1.0  0.37304  0.60888  0.84195  1.0000
  H   H1555     1.0  0.37062  0.34674  0.97517  1.0000
  H   H1556     1.0  0.55682  0.33512  0.96313  1.0000
  H   H1557     1.0  0.53082  0.32532  0.94902  1.0000
  C   C972      1.0  0.34332  0.51059  0.95771  1.0000
  C   C973      1.0  0.41690  0.58392  0.97436  1.0000
  H   H1558     1.0  0.65136  0.60331  0.95655  1.0000
  S   S401      1.0  0.50617  0.63250  0.85772  1.0000
  H   H1559     1.0  0.37609  0.56101  0.85089  1.0000
  C   C974      1.0  0.65042  0.35655  0.91332  1.0000
  H   H1560     1.0  0.46639  0.32363  0.93419  1.0000
  S   S402      1.0  0.33405  0.56891  0.93870  1.0000
  C   C975      1.0  0.65131  0.52250  0.88218  1.0000
  H   H1561     1.0  0.37103  0.52447  0.95152  1.0000
  H   H1562     1.0  0.55632  0.62344  0.93807  1.0000
  H   H1563     1.0  0.32925  0.35414  0.96059  1.0000
  S   S403      1.0  0.62142  0.63452  0.88800  1.0000
  S   S404      1.0  0.32956  0.37599  0.90958  1.0000
  H   H1564     1.0  0.32898  0.37955  0.98190  1.0000
  H   H1565     1.0  0.55735  0.62529  0.90739  1.0000
  S   S405      1.0  0.48000  0.63237  0.90411  1.0000
  H   H1566     1.0  0.58593  0.32433  0.82750  1.0000
  S   S406      1.0  0.41879  0.62377  0.88048  1.0000
  H   H1567     1.0  0.54404  0.34094  0.81279  1.0000
  H   H1568     1.0  0.45199  0.55006  0.97854  1.0000
  H   H1569     1.0  0.46063  0.57803  0.96842  1.0000
  C   C976      1.0  0.49416  0.61506  0.95310  1.0000
  H   H1570     1.0  0.34457  0.32454  0.86571  1.0000
  C   C977      1.0  0.55292  0.32448  0.84366  1.0000
  H   H1571     1.0  0.50713  0.56675  0.94889  1.0000
  C   C978      1.0  0.56086  0.63946  0.95244  1.0000
  H   H1572     1.0  0.41958  0.65456  0.89761  1.0000
  C   C979      1.0  0.64056  0.36052  0.86211  1.0000
  H   H1573     1.0  0.35400  0.45740  0.92680  1.0000
  N   N99       1.0  0.54188  0.60807  0.90718  1.0000
  H   H1574     1.0  0.43277  0.56642  0.86533  1.0000
  C   C980      1.0  0.55320  0.60281  0.89120  1.0000
  C   C981      1.0  0.52360  0.60900  0.90723  1.0000
  C   C982      1.0  0.54703  0.59515  0.92272  1.0000
  H   H1575     1.0  0.33660  0.34746  0.85742  1.0000
  H   H1576     1.0  0.38705  0.61178  0.89120  1.0000
  H   H1577     1.0  0.54969  0.61239  0.87925  1.0000
  C   C983      1.0  0.36765  0.55823  0.97023  1.0000
  H   H1578     1.0  0.55202  0.58980  0.89048  1.0000
  H   H1579     1.0  0.52147  0.59603  0.90756  1.0000
  H   H1580     1.0  0.36723  0.55569  0.98401  1.0000
  H   H1581     1.0  0.65795  0.65348  0.85472  1.0000
  H   H1582     1.0  0.36721  0.37875  0.96457  1.0000
  H   H1583     1.0  0.64465  0.64557  0.92404  1.0000
  H   H1584     1.0  0.64216  0.42880  0.84940  1.0000
  H   H1585     1.0  0.65768  0.55477  0.86992  1.0000
  Fe  Fe198     1.0  0.32902  0.39179  0.88240  1.0000
  H   H1586     1.0  0.37512  0.49817  0.93987  1.0000
  H   H1587     1.0  0.44380  0.58712  0.98477  1.0000
  S   S407      1.0  0.47873  0.58511  0.93146  1.0000
  C   C984      1.0  0.36610  0.35746  0.85360  1.0000
  H   H1588     1.0  0.60003  0.63706  0.96080  1.0000
  H   H1589     1.0  0.65385  0.50825  0.88275  1.0000
  H   H1590     1.0  0.43769  0.58561  0.94202  1.0000
  C   C985      1.0  0.64577  0.61557  0.84023  1.0000
  C   C986      1.0  0.36891  0.56513  0.93448  1.0000
  H   H1591     1.0  0.40020  0.57568  0.83666  1.0000
  H   H1592     1.0  0.64057  0.45034  0.80279  1.0000
  H   H1593     1.0  0.63939  0.35422  0.92451  1.0000
  H   H1594     1.0  0.62970  0.63150  0.93114  1.0000
  H   H1595     1.0  0.32719  0.37729  0.95265  1.0000
  Fe  Fe199     1.0  0.34339  0.55694  0.91540  1.0000
  H   H1596     1.0  0.43009  0.54904  0.98011  1.0000
  H   H1597     1.0  0.63808  0.52634  0.89012  1.0000
  H   H1598     1.0  0.34148  0.35353  0.88322  1.0000
  H   H1599     1.0  0.33691  0.50050  0.95709  1.0000
  H   H1600     1.0  0.33977  0.56517  0.97307  1.0000
  N   N100      1.0  0.65651  0.61804  0.93003  1.0000
  H   H1601     1.0  0.37190  0.35634  0.83986  1.0000
  C   C987      1.0  0.57326  0.64359  0.95848  1.0000
  H   H1602     1.0  0.54240  0.63401  0.84731  1.0000
  Fe  Fe200     1.0  0.33718  0.55417  0.88163  1.0000
  S   S408      1.0  0.51994  0.61148  0.96981  1.0000
  C   C988      1.0  0.42280  0.57619  0.87121  1.0000
  C   C989      1.0  0.37714  0.32665  0.86459  1.0000
  H   H1603     1.0  0.44049  0.59243  0.86876  1.0000
  C   C990      1.0  0.54370  0.62544  0.90754  1.0000
  H   H1604     1.0  0.65020  0.34957  0.90348  1.0000
  C   C991      1.0  0.42722  0.59088  0.87320  1.0000
  H   H1605     1.0  0.51952  0.61828  0.89535  1.0000
  H   H1606     1.0  0.57233  0.34310  0.81644  1.0000
  C   C992      1.0  0.65286  0.60201  0.94297  1.0000
  H   H1607     1.0  0.44540  0.59796  0.96208  1.0000
  S   S409      1.0  0.44119  0.62422  0.91477  1.0000
  H   H1608     1.0  0.56710  0.60202  0.89072  1.0000
  S   S410      1.0  0.45438  0.64856  0.87596  1.0000
  C   C993      1.0  0.40557  0.57415  0.87665  1.0000
  C   C994      1.0  0.39281  0.58684  0.88429  1.0000
  H   H1609     1.0  0.65325  0.46417  0.90315  1.0000
  Fe  Fe201     1.0  0.59543  0.62827  0.90050  1.0000
  H   H1610     1.0  0.35450  0.36857  0.85340  1.0000
  C   C995      1.0  0.59042  0.63390  0.95609  1.0000
  H   H1611     1.0  0.36920  0.34504  0.95413  1.0000
  C   C996      1.0  0.35285  0.56649  0.94618  1.0000
  N   N101      1.0  0.37388  0.58612  0.83312  1.0000
  C   C997      1.0  0.53578  0.64311  0.85567  1.0000
  C   C998      1.0  0.36455  0.59617  0.81896  1.0000
  C   C999      1.0  0.54526  0.65245  0.86025  1.0000
  N   N102      1.0  0.43523  0.57471  0.96964  1.0000
  C   C1000     1.0  0.37140  0.49075  0.95353  1.0000
  C   C1001     1.0  0.33855  0.36673  0.98273  1.0000
  C   C1002     1.0  0.36923  0.59604  0.84694  1.0000
  H   H1612     1.0  0.47350  0.61791  0.94034  1.0000
  H   H1613     1.0  0.37955  0.58536  0.88877  1.0000
  H   H1614     1.0  0.32569  0.45460  0.93982  1.0000
  H   H1615     1.0  0.39714  0.59571  0.82048  1.0000
  C   C1003     1.0  0.48459  0.60906  0.94518  1.0000
  H   H1616     1.0  0.65714  0.40415  0.82401  1.0000
  C   C1004     1.0  0.54905  0.32650  0.81483  1.0000
  H   H1617     1.0  0.64174  0.53673  0.84182  1.0000
  H   H1618     1.0  0.52365  0.57725  0.96382  1.0000
  H   H1619     1.0  0.64999  0.55979  0.85020  1.0000
  C   C1005     1.0  0.39710  0.60180  0.88573  1.0000
  H   H1620     1.0  0.43495  0.36913  0.97547  1.0000
  S   S411      1.0  0.47067  0.60621  0.88477  1.0000
  C   C1006     1.0  0.41430  0.60391  0.88018  1.0000
  H   H1621     1.0  0.39693  0.57545  0.81589  1.0000
  H   H1622     1.0  0.55516  0.32338  0.80180  1.0000
  H   H1623     1.0  0.35037  0.33088  0.89149  1.0000
  C   C1007     1.0  0.35217  0.56377  0.96401  1.0000
  C   C1008     1.0  0.48945  0.59176  0.94337  1.0000
  N   N103      1.0  0.44505  0.33453  0.92097  1.0000
  H   H1624     1.0  0.33409  0.46423  0.84506  1.0000
  H   H1625     1.0  0.39674  0.55748  0.93165  1.0000
  H   H1626     1.0  0.55913  0.65063  0.85530  1.0000
  H   H1627     1.0  0.53988  0.63547  0.89608  1.0000
  H   H1628     1.0  0.36570  0.37713  0.94358  1.0000
  H   H1629     1.0  0.35922  0.52502  0.97332  1.0000
  H   H1630     1.0  0.64790  0.37081  0.90720  1.0000
  H   H1631     1.0  0.64647  0.41815  0.80702  1.0000
  C   C1009     1.0  0.65385  0.35372  0.84932  1.0000
  H   H1632     1.0  0.64993  0.61622  0.81289  1.0000
  C   C1010     1.0  0.40232  0.32895  0.90368  1.0000
  H   H1633     1.0  0.32553  0.52607  0.87834  1.0000
  Fe  Fe202     1.0  0.45271  0.64791  0.90398  1.0000
  C   C1011     1.0  0.44674  0.58493  0.97133  1.0000
  H   H1634     1.0  0.64071  0.59906  0.94213  1.0000
  H   H1635     1.0  0.38688  0.32931  0.87013  1.0000
  N   N104      1.0  0.65291  0.53277  0.86395  1.0000
  H   H1636     1.0  0.34402  0.36244  0.94134  1.0000
  H   H1637     1.0  0.44835  0.35409  0.89702  1.0000
  H   H1638     1.0  0.63524  0.55603  0.87096  1.0000
  H   H1639     1.0  0.62708  0.53284  0.86263  1.0000
  C   C1012     1.0  0.64783  0.41682  0.82055  1.0000
  H   H1640     1.0  0.64581  0.45969  0.81766  1.0000
  H   H1641     1.0  0.65803  0.39197  0.86604  1.0000
  H   H1642     1.0  0.34619  0.51866  0.94426  1.0000
  H   H1643     1.0  0.54842  0.33886  0.84251  1.0000
  H   H1644     1.0  0.57536  0.33356  0.93360  1.0000
  H   H1645     1.0  0.44798  0.33311  0.89434  1.0000
  H   H1646     1.0  0.40788  0.57654  0.97319  1.0000
  H   H1647     1.0  0.47028  0.34045  0.91498  1.0000
  C   C1013     1.0  0.64079  0.52918  0.85561  1.0000
  Fe  Fe203     1.0  0.61901  0.32672  0.86842  1.0000
  H   H1648     1.0  0.63957  0.63492  0.94667  1.0000
  H   H1649     1.0  0.38357  0.48420  0.95844  1.0000
  C   C1014     1.0  0.51782  0.64528  0.86216  1.0000
  N   N105      1.0  0.65390  0.43166  0.82201  1.0000
  C   C1015     1.0  0.64160  0.44826  0.81658  1.0000
  H   H1650     1.0  0.43017  0.56556  0.94962  1.0000
  H   H1651     1.0  0.54345  0.34139  0.93721  1.0000
  C   C1016     1.0  0.57649  0.32859  0.81877  1.0000
  Fe  Fe204     1.0  0.50036  0.62971  0.98537  1.0000
  C   C1017     1.0  0.65095  0.60644  0.85599  1.0000
  S   S412      1.0  0.64827  0.62467  0.98075  1.0000
  H   H1652     1.0  0.63506  0.41566  0.82948  1.0000
  H   H1653     1.0  0.35396  0.33502  0.84401  1.0000
  C   C1018     1.0  0.64871  0.55164  0.86378  1.0000
  S   S413      1.0  0.39950  0.38790  0.98296  1.0000
  H   H1654     1.0  0.65255  0.34319  0.84451  1.0000
  C   C1019     1.0  0.35367  0.34316  0.88268  1.0000
  Fe  Fe205     1.0  0.45735  0.78727  0.00997  1.0000
  H   H1655     1.0  0.43057  0.96703  0.22257  1.0000
  S   S414      1.0  0.42982  0.79094  0.00740  1.0000
  Fe  Fe206     1.0  0.47786  0.78903  0.03518  1.0000
  S   S415      1.0  0.50334  0.78318  0.01653  1.0000
  S   S416      1.0  0.47919  0.79242  0.06132  1.0000
  S   S417      1.0  0.61638  0.95694  0.23031  1.0000
  H   H1656     1.0  0.61124  0.86703  0.19273  1.0000
  Fe  Fe207     1.0  0.49259  0.76329  0.01119  1.0000
  S   S418      1.0  0.50958  0.73684  0.00842  1.0000
  S   S419      1.0  0.46480  0.80950  0.01512  1.0000
  S   S420      1.0  0.46829  0.76719  0.03178  1.0000
  Fe  Fe208     1.0  0.57758  0.82480  0.00503  1.0000
  S   S421      1.0  0.57964  0.81143  0.03267  1.0000
  H   H1657     1.0  0.64440  0.73317  0.01669  1.0000
  H   H1658     1.0  0.39209  0.93464  0.08258  1.0000
  S   S422      1.0  0.61792  0.78941  0.01603  1.0000
  Fe  Fe209     1.0  0.59024  0.78682  0.02211  1.0000
  S   S423      1.0  0.58433  0.76000  0.03460  1.0000
  Fe  Fe210     1.0  0.60698  0.81539  0.02381  1.0000
  C   C1020     1.0  0.55960  0.88731  0.02414  1.0000
  C   C1021     1.0  0.52679  0.81782  0.99203  1.0000
  H   H1659     1.0  0.58930  0.76585  0.99704  1.0000
  C   C1022     1.0  0.50244  0.69920  0.98953  1.0000
  H   H1660     1.0  0.50672  0.95809  0.14378  1.0000
  C   C1023     1.0  0.65511  0.75788  0.98929  1.0000
  H   H1661     1.0  0.62682  0.85492  0.04903  1.0000
  H   H1662     1.0  0.59344  0.87607  0.17014  1.0000
  H   H1663     1.0  0.54265  0.72519  0.01527  1.0000
  S   S424      1.0  0.55476  0.92701  0.08326  1.0000
  H   H1664     1.0  0.52244  0.72427  0.04425  1.0000
  S   S425      1.0  0.47079  0.92030  0.19514  1.0000
  Fe  Fe211     1.0  0.46376  0.87201  0.09440  1.0000
  S   S426      1.0  0.47984  0.88949  0.07445  1.0000
  S   S427      1.0  0.44500  0.86482  0.08350  1.0000
  Fe  Fe212     1.0  0.47859  0.87384  0.12400  1.0000
  S   S428      1.0  0.49530  0.89197  0.10649  1.0000
  Fe  Fe213     1.0  0.47217  0.90558  0.09456  1.0000
  S   S429      1.0  0.46424  0.93472  0.08545  1.0000
  Fe  Fe214     1.0  0.50122  0.87406  0.08822  1.0000
  S   S430      1.0  0.52860  0.86566  0.07429  1.0000
  S   S431      1.0  0.45460  0.88914  0.11380  1.0000
  S   S432      1.0  0.48611  0.85486  0.10648  1.0000
  H   H1665     1.0  0.62598  0.91626  0.18478  1.0000
  H   H1666     1.0  0.58907  0.89294  0.02726  1.0000
  C   C1024     1.0  0.46199  0.94586  0.10169  1.0000
  C   C1025     1.0  0.45915  0.93732  0.11932  1.0000
  C   C1026     1.0  0.45680  0.94655  0.13220  1.0000
  C   C1027     1.0  0.45784  0.96416  0.12749  1.0000
  C   C1028     1.0  0.46106  0.97261  0.10985  1.0000
  C   C1029     1.0  0.46288  0.96352  0.09697  1.0000
  H   H1667     1.0  0.45842  0.92369  0.12308  1.0000
  H   H1668     1.0  0.45417  0.94002  0.14585  1.0000
  H   H1669     1.0  0.60887  0.93483  0.17878  1.0000
  H   H1670     1.0  0.46507  0.97017  0.08334  1.0000
  H   H1671     1.0  0.49147  0.94772  0.14067  1.0000
  H   H1672     1.0  0.39983  0.90645  0.10362  1.0000
  Fe  Fe215     1.0  0.60719  0.68071  0.99210  1.0000
  C   C1030     1.0  0.58616  0.87152  0.00871  1.0000
  C   C1031     1.0  0.54892  0.91044  0.07787  1.0000
  C   C1032     1.0  0.53319  0.91387  0.07263  1.0000
  C   C1033     1.0  0.52738  0.90013  0.07064  1.0000
  C   C1034     1.0  0.53745  0.88302  0.07352  1.0000
  C   C1035     1.0  0.55366  0.87974  0.07769  1.0000
  C   C1036     1.0  0.55932  0.89343  0.08000  1.0000
  H   H1673     1.0  0.52515  0.92700  0.07081  1.0000
  H   H1674     1.0  0.51482  0.90274  0.06736  1.0000
  H   H1675     1.0  0.56152  0.86654  0.07994  1.0000
  H   H1676     1.0  0.57160  0.89066  0.08380  1.0000
  C   C1037     1.0  0.57457  0.89590  0.18211  1.0000
  C   C1038     1.0  0.53330  0.71539  0.05044  1.0000
  H   H1677     1.0  0.53665  0.86200  0.21219  1.0000
  H   H1678     1.0  0.43447  0.90827  0.06340  1.0000
  C   C1039     1.0  0.58973  0.74557  0.02045  1.0000
  C   C1040     1.0  0.59262  0.72739  0.02718  1.0000
  C   C1041     1.0  0.59811  0.71577  0.01585  1.0000
  S   S433      1.0  0.58537  0.80018  0.99530  1.0000
  H   H1679     1.0  0.62925  0.98211  0.20290  1.0000
  C   C1042     1.0  0.59172  0.75200  0.00242  1.0000
  H   H1680     1.0  0.59112  0.72229  0.04114  1.0000
  S   S434      1.0  0.48105  0.78182  0.98907  1.0000
  H   H1681     1.0  0.47774  0.74587  0.99557  1.0000
  H   H1682     1.0  0.45747  0.95410  0.20334  1.0000
  C   C1043     1.0  0.46788  0.81198  0.06816  1.0000
  C   C1044     1.0  0.45771  0.82558  0.05793  1.0000
  C   C1045     1.0  0.45011  0.84158  0.06306  1.0000
  C   C1046     1.0  0.45296  0.84415  0.07823  1.0000
  C   C1047     1.0  0.46287  0.83045  0.08862  1.0000
  C   C1048     1.0  0.47010  0.81435  0.08371  1.0000
  H   H1683     1.0  0.45575  0.82384  0.04604  1.0000
  H   H1684     1.0  0.44238  0.85210  0.05502  1.0000
  H   H1685     1.0  0.46490  0.83223  0.10049  1.0000
  H   H1686     1.0  0.47776  0.80380  0.09181  1.0000
  H   H1687     1.0  0.55158  0.88313  0.01770  1.0000
  C   C1049     1.0  0.52572  0.89182  0.22377  1.0000
  H   H1688     1.0  0.51517  0.92169  0.13599  1.0000
  C   C1050     1.0  0.50109  0.95598  0.13379  1.0000
  H   H1689     1.0  0.52600  0.80427  0.99590  1.0000
  H   H1690     1.0  0.39817  0.79314  0.99794  1.0000
  H   H1691     1.0  0.46173  0.98624  0.10614  1.0000
  H   H1692     1.0  0.58625  0.82421  0.09613  1.0000
  H   H1693     1.0  0.53441  0.92422  0.11943  1.0000
  H   H1694     1.0  0.57508  0.90442  0.22049  1.0000
  S   S435      1.0  0.63274  0.91752  0.10519  1.0000
  H   H1695     1.0  0.55158  0.88946  0.03706  1.0000
  H   H1696     1.0  0.53349  0.96144  0.12124  1.0000
  C   C1051     1.0  0.50665  0.94553  0.10752  1.0000
  H   H1697     1.0  0.50557  0.87013  0.22766  1.0000
  C   C1052     1.0  0.45381  0.98684  0.20646  1.0000
  H   H1698     1.0  0.50727  0.91465  0.20092  1.0000
  N   N106      1.0  0.51473  0.94789  0.12057  1.0000
  H   H1699     1.0  0.53062  0.93196  0.13892  1.0000
  C   C1053     1.0  0.42739  0.97724  0.21085  1.0000
  H   H1700     1.0  0.64446  0.92807  0.15656  1.0000
  H   H1701     1.0  0.47058  0.86215  0.18912  1.0000
  N   N107      1.0  0.64757  0.74357  0.98894  1.0000
  H   H1702     1.0  0.56981  0.68549  0.03805  1.0000
  S   S436      1.0  0.58021  0.67657  0.00143  1.0000
  C   C1054     1.0  0.47252  0.87515  0.18243  1.0000
  H   H1703     1.0  0.60675  0.94921  0.11378  1.0000
  S   S437      1.0  0.46738  0.65722  0.01634  1.0000
  H   H1704     1.0  0.62474  0.97695  0.18500  1.0000
  H   H1705     1.0  0.54694  0.87865  0.19711  1.0000
  C   C1055     1.0  0.61175  0.83527  0.05604  1.0000
  C   C1056     1.0  0.57167  0.85731  0.03682  1.0000
  C   C1057     1.0  0.58621  0.88000  0.03464  1.0000
  H   H1706     1.0  0.58363  0.84695  0.03843  1.0000
  H   H1707     1.0  0.56411  0.85862  0.05012  1.0000
  H   H1708     1.0  0.56388  0.85250  0.03070  1.0000
  H   H1709     1.0  0.57935  0.88127  0.04811  1.0000
  H   H1710     1.0  0.44508  0.90775  0.08000  1.0000
  C   C1058     1.0  0.53683  0.69401  0.03384  1.0000
  C   C1059     1.0  0.42593  0.78519  0.98985  1.0000
  H   H1711     1.0  0.53748  0.95389  0.10163  1.0000
  C   C1060     1.0  0.51768  0.90415  0.19573  1.0000
  N   N108      1.0  0.44331  0.98088  0.19812  1.0000
  C   C1061     1.0  0.53441  0.87441  0.20214  1.0000
  H   H1712     1.0  0.62107  0.89234  0.16484  1.0000
  C   C1062     1.0  0.59464  0.83135  0.08571  1.0000
  H   H1713     1.0  0.61086  0.97830  0.11397  1.0000
  H   H1714     1.0  0.64131  0.89670  0.16474  1.0000
  C   C1063     1.0  0.61513  0.92109  0.17766  1.0000
  H   H1715     1.0  0.44603  0.95976  0.18593  1.0000
  C   C1064     1.0  0.50069  0.72548  0.99891  1.0000
  H   H1716     1.0  0.59924  0.93895  0.15067  1.0000
  H   H1717     1.0  0.53961  0.72375  0.05426  1.0000
  H   H1718     1.0  0.54790  0.81353  0.00479  1.0000
  H   H1719     1.0  0.46643  0.88434  0.20617  1.0000
  H   H1720     1.0  0.63895  0.92955  0.13639  1.0000
  C   C1065     1.0  0.60597  0.92502  0.15086  1.0000
  H   H1721     1.0  0.62686  0.94525  0.14925  1.0000
  C   C1066     1.0  0.51689  0.98152  0.22466  1.0000
  H   H1722     1.0  0.60994  0.92342  0.13719  1.0000
  C   C1067     1.0  0.59711  0.74050  0.99115  1.0000
  C   C1068     1.0  0.59463  0.88544  0.20792  1.0000
  C   C1069     1.0  0.59948  0.87721  0.19386  1.0000
  H   H1723     1.0  0.64477  0.76921  0.99286  1.0000
  C   C1070     1.0  0.45354  0.96475  0.19223  1.0000
  C   C1071     1.0  0.62997  0.90138  0.15831  1.0000
  H   H1724     1.0  0.64921  0.96917  0.16050  1.0000
  H   H1725     1.0  0.58948  0.88390  0.00018  1.0000
  C   C1072     1.0  0.56015  0.69353  0.04686  1.0000
  N   N109      1.0  0.65199  0.97299  0.18452  1.0000
  S   S438      1.0  0.61955  0.82972  0.03541  1.0000
  N   N110      1.0  0.57589  0.87405  0.02609  1.0000
  N   N111      1.0  0.54582  0.70494  0.03838  1.0000
  C   C1073     1.0  0.47276  0.90447  0.18351  1.0000
  H   H1726     1.0  0.43977  0.92786  0.06471  1.0000
  Fe  Fe216     1.0  0.60796  0.90828  0.11037  1.0000
  H   H1727     1.0  0.55531  0.68416  0.05887  1.0000
  H   H1728     1.0  0.60534  0.91314  0.18474  1.0000
  C   C1074     1.0  0.53937  0.82304  0.99685  1.0000
  H   H1729     1.0  0.52371  0.87300  0.13181  1.0000
  C   C1075     1.0  0.60074  0.72239  0.99776  1.0000
  H   H1730     1.0  0.56720  0.70131  0.05053  1.0000
  H   H1731     1.0  0.51660  0.93945  0.09735  1.0000
  C   C1076     1.0  0.60004  0.82686  0.06932  1.0000
  C   C1077     1.0  0.43505  0.91588  0.07252  1.0000
  Fe  Fe217     1.0  0.57375  0.91362  0.10063  1.0000
  H   H1732     1.0  0.46553  0.96703  0.18239  1.0000
  Fe  Fe218     1.0  0.61252  0.80376  0.98960  1.0000
  H   H1733     1.0  0.49373  0.96895  0.12768  1.0000
  Fe  Fe219     1.0  0.48169  0.66645  0.98912  1.0000
  S   S439      1.0  0.60046  0.89906  0.09047  1.0000
  H   H1734     1.0  0.63471  0.89996  0.14451  1.0000
  C   C1078     1.0  0.55297  0.71688  0.02239  1.0000
  H   H1735     1.0  0.56223  0.90015  0.01614  1.0000
  H   H1736     1.0  0.51356  0.90177  0.18485  1.0000
  C   C1079     1.0  0.52413  0.93067  0.12915  1.0000
  H   H1737     1.0  0.41154  0.89599  0.08581  1.0000
  H   H1738     1.0  0.59564  0.81649  0.06716  1.0000
  H   H1739     1.0  0.60096  0.70177  0.02106  1.0000
  H   H1740     1.0  0.42420  0.94219  0.08916  1.0000
  H   H1741     1.0  0.49719  0.93696  0.11366  1.0000
  N   N112      1.0  0.41810  0.92018  0.08439  1.0000
  H   H1742     1.0  0.53993  0.82753  0.03401  1.0000
  C   C1080     1.0  0.41260  0.90380  0.09452  1.0000
  H   H1743     1.0  0.40725  0.93346  0.10559  1.0000
  C   C1081     1.0  0.61953  0.95204  0.10928  1.0000
  C   C1082     1.0  0.41976  0.92991  0.09642  1.0000
  C   C1083     1.0  0.65025  0.94328  0.09741  1.0000
  H   H1744     1.0  0.54255  0.85301  0.15259  1.0000
  H   H1745     1.0  0.49469  0.82315  0.03947  1.0000
  H   H1746     1.0  0.50427  0.81092  0.06768  1.0000
  H   H1747     1.0  0.40355  0.92416  0.06479  1.0000
  H   H1748     1.0  0.52775  0.84964  0.02886  1.0000
  C   C1084     1.0  0.52956  0.83779  0.03962  1.0000
  H   H1749     1.0  0.50354  0.84993  0.06439  1.0000
  H   H1750     1.0  0.45733  0.97689  0.21821  1.0000
  C   C1085     1.0  0.40506  0.93113  0.07403  1.0000
  H   H1751     1.0  0.40888  0.94356  0.06619  1.0000
  H   H1752     1.0  0.59888  0.87057  0.03560  1.0000
  H   H1753     1.0  0.53438  0.84123  0.04944  1.0000
  H   H1754     1.0  0.42218  0.89517  0.10245  1.0000
  C   C1086     1.0  0.58952  0.88245  0.18096  1.0000
  S   S440      1.0  0.58168  0.92491  0.11853  1.0000
  H   H1755     1.0  0.51641  0.84531  0.14993  1.0000
  H   H1756     1.0  0.42957  0.92208  0.10441  1.0000
  H   H1757     1.0  0.54555  0.68667  0.02401  1.0000
  H   H1758     1.0  0.59624  0.91691  0.15778  1.0000
  H   H1759     1.0  0.59861  0.86167  0.00983  1.0000
  S   S441      1.0  0.56225  0.90326  0.16576  1.0000
  S   S442      1.0  0.60395  0.88425  0.13158  1.0000
  H   H1760     1.0  0.51969  0.81968  0.07266  1.0000
  H   H1761     1.0  0.49731  0.85791  0.04356  1.0000
  C   C1087     1.0  0.51611  0.81634  0.06198  1.0000
  C   C1088     1.0  0.49974  0.84605  0.05417  1.0000
  C   C1089     1.0  0.50429  0.88168  0.21648  1.0000
  N   N113      1.0  0.51321  0.83177  0.04748  1.0000
  H   H1762     1.0  0.55569  0.82439  0.12094  1.0000
  Fe  Fe220     1.0  0.46056  0.91460  0.22426  1.0000
  H   H1763     1.0  0.53110  0.87149  0.19109  1.0000
  H   H1764     1.0  0.52039  0.97261  0.10531  1.0000
  H   H1765     1.0  0.55909  0.72588  0.02548  1.0000
  C   C1090     1.0  0.63386  0.93927  0.10347  1.0000
  H   H1766     1.0  0.57893  0.86678  0.00190  1.0000
  C   C1091     1.0  0.52452  0.83903  0.13904  1.0000
  H   H1767     1.0  0.62590  0.74895  0.00996  1.0000
  H   H1768     1.0  0.49951  0.95827  0.10073  1.0000
  H   H1769     1.0  0.51576  0.84026  0.13023  1.0000
  C   C1092     1.0  0.56930  0.90364  0.19653  1.0000
  H   H1770     1.0  0.48720  0.84203  0.06003  1.0000
  H   H1771     1.0  0.52668  0.80558  0.05746  1.0000
  H   H1772     1.0  0.56087  0.84472  0.10805  1.0000
  H   H1773     1.0  0.52899  0.82486  0.14470  1.0000
  H   H1774     1.0  0.52555  0.86707  0.11167  1.0000
  C   C1093     1.0  0.54049  0.84060  0.99184  1.0000
  C   C1094     1.0  0.57923  0.89835  0.20946  1.0000
  C   C1095     1.0  0.65355  0.95433  0.19351  1.0000
  H   H1775     1.0  0.52532  0.70214  0.02835  1.0000
  C   C1096     1.0  0.65245  0.95976  0.09704  1.0000
  H   H1776     1.0  0.63077  0.72720  0.00647  1.0000
  S   S443      1.0  0.60429  0.82991  0.99648  1.0000
  C   C1097     1.0  0.63372  0.98255  0.18876  1.0000
  S   S444      1.0  0.60891  0.88060  0.22219  1.0000
  C   C1098     1.0  0.54995  0.83834  0.11562  1.0000
  H   H1777     1.0  0.49710  0.95935  0.22746  1.0000
  C   C1099     1.0  0.61160  0.85351  0.07526  1.0000
  C   C1100     1.0  0.61760  0.84849  0.05915  1.0000
  H   H1778     1.0  0.51680  0.81545  0.02966  1.0000
  H   H1779     1.0  0.50606  0.83791  0.02254  1.0000
  C   C1101     1.0  0.50746  0.82691  0.03418  1.0000
  N   N114      1.0  0.53932  0.84733  0.12965  1.0000
  C   C1102     1.0  0.53269  0.86590  0.12185  1.0000
  H   H1780     1.0  0.54215  0.83879  0.10619  1.0000
  H   H1781     1.0  0.41928  0.97247  0.20505  1.0000
  H   H1782     1.0  0.48267  0.89985  0.14148  1.0000
  H   H1783     1.0  0.52745  0.70684  0.06258  1.0000
  H   H1784     1.0  0.61627  0.86367  0.07747  1.0000
  S   S445      1.0  0.55567  0.84737  0.99842  1.0000
  C   C1103     1.0  0.55012  0.84615  0.14197  1.0000
  H   H1785     1.0  0.55541  0.83229  0.14806  1.0000
  S   S446      1.0  0.47990  0.86351  0.15233  1.0000
  H   H1786     1.0  0.54346  0.87278  0.11532  1.0000
  Fe  Fe221     1.0  0.48955  0.80215  0.99621  1.0000
  C   C1104     1.0  0.63672  0.73795  0.00627  1.0000
  H   H1787     1.0  0.56145  0.85222  0.13521  1.0000
  C   C1105     1.0  0.47933  0.89634  0.15555  1.0000
  C   C1106     1.0  0.62186  0.96851  0.10942  1.0000
  N   N115      1.0  0.52054  0.88802  0.20950  1.0000
  C   C1107     1.0  0.60029  0.84479  0.08871  1.0000
  H   H1788     1.0  0.47946  0.92168  0.15857  1.0000
  H   H1789     1.0  0.41933  0.98918  0.21546  1.0000
  C   C1108     1.0  0.52705  0.95944  0.11181  1.0000
  H   H1790     1.0  0.56297  0.70956  0.01321  1.0000
  H   H1791     1.0  0.53212  0.68417  0.04547  1.0000
  C   C1109     1.0  0.47693  0.87949  0.16414  1.0000
  C   C1110     1.0  0.47019  0.88769  0.19210  1.0000
  H   H1792     1.0  0.52207  0.70289  0.00018  1.0000
  H   H1793     1.0  0.52968  0.90931  0.19015  1.0000
  C   C1111     1.0  0.63336  0.93119  0.15001  1.0000
  H   H1794     1.0  0.55775  0.91405  0.19751  1.0000
  H   H1795     1.0  0.50940  0.68622  0.98787  1.0000
  Fe  Fe222     1.0  0.59355  0.87676  0.11241  1.0000
  S   S447      1.0  0.59360  0.84984  0.10959  1.0000
  C   C1112     1.0  0.47747  0.90871  0.16524  1.0000
  C   C1113     1.0  0.50961  0.70867  0.99656  1.0000
  S   S448      1.0  0.56636  0.89109  0.12165  1.0000
  C   C1114     1.0  0.63839  0.97237  0.10320  1.0000
  H   H1796     1.0  0.50034  0.87792  0.20630  1.0000
  C   C1115     1.0  0.65749  0.97458  0.16544  1.0000
  N   N116      1.0  0.62111  0.91967  0.15923  1.0000
  Fe  Fe223     1.0  0.57717  0.90053  0.13868  1.0000
  S   S449      1.0  0.45521  0.97525  0.14389  1.0000
  H   H1797     1.0  0.52968  0.97201  0.22330  1.0000
  C   C1116     1.0  0.48480  0.73298  0.99368  1.0000
  H   H1798     1.0  0.51551  0.90193  0.22976  1.0000
  H   H1799     1.0  0.64446  0.94845  0.19027  1.0000
  C   C1117     1.0  0.40876  0.78807  0.98815  1.0000
  H   H1800     1.0  0.62903  0.98659  0.22945  1.0000
  H   H1801     1.0  0.49346  0.89201  0.22131  1.0000
  H   H1802     1.0  0.51197  0.98407  0.21254  1.0000
  H   H1803     1.0  0.53797  0.89657  0.21916  1.0000
  H   H1804     1.0  0.65655  0.98856  0.15836  1.0000
  H   H1805     1.0  0.52790  0.87989  0.23438  1.0000
  H   H1806     1.0  0.65034  0.95270  0.20794  1.0000
  S   S450      1.0  0.58742  0.92545  0.23427  1.0000
  S   S451      1.0  0.61836  0.65817  0.01215  1.0000
  H   H1807     1.0  0.41906  0.71325  0.99002  1.0000
  C   C1118     1.0  0.65359  0.96303  0.25929  1.0000
  Fe  Fe224     1.0  0.47321  0.89911  0.25792  1.0000
  H   H1808     1.0  0.63595  0.93198  0.25493  1.0000
  S   S452      1.0  0.49816  0.88253  0.26532  1.0000
  Fe  Fe225     1.0  0.43550  0.90261  0.25822  1.0000
  S   S453      1.0  0.48137  0.97575  0.30434  1.0000
  S   S454      1.0  0.41019  0.89401  0.26912  1.0000
  H   H1809     1.0  0.60591  0.92111  0.32161  1.0000
  S   S455      1.0  0.58731  0.89224  0.26888  1.0000
  Fe  Fe226     1.0  0.44870  0.93480  0.25319  1.0000
  S   S456      1.0  0.43931  0.96207  0.25758  1.0000
  C   C1119     1.0  0.44499  0.98114  0.27718  1.0000
  S   S457      1.0  0.44834  0.91069  0.27473  1.0000
  Fe  Fe227     1.0  0.35757  0.89738  0.35827  1.0000
  S   S458      1.0  0.34263  0.91741  0.33937  1.0000
  S   S459      1.0  0.38415  0.88054  0.35112  1.0000
  H   H1810     1.0  0.65507  0.88657  0.33895  1.0000
  S   S460      1.0  0.47485  0.92424  0.23808  1.0000
  N   N117      1.0  0.38212  0.85951  0.40524  1.0000
  H   H1811     1.0  0.55350  0.89556  0.26309  1.0000
  C   C1120     1.0  0.33928  0.90334  0.43093  1.0000
  H   H1812     1.0  0.63837  0.89316  0.47929  1.0000
  H   H1813     1.0  0.64536  0.91200  0.46451  1.0000
  H   H1814     1.0  0.39809  0.97494  0.43831  1.0000
  S   S461      1.0  0.35683  0.91628  0.37381  1.0000
  N   N118      1.0  0.38031  0.95778  0.44692  1.0000
  H   H1815     1.0  0.39092  0.84908  0.38210  1.0000
  S   S462      1.0  0.59132  0.93035  0.27143  1.0000
  H   H1816     1.0  0.37329  0.97612  0.46344  1.0000
  H   H1817     1.0  0.35560  0.87361  0.41144  1.0000
  Fe  Fe228     1.0  0.34003  0.93552  0.35632  1.0000
  H   H1818     1.0  0.40784  0.84336  0.40526  1.0000
  H   H1819     1.0  0.60517  0.93901  0.34219  1.0000
  H   H1820     1.0  0.34414  0.89716  0.47265  1.0000
  H   H1821     1.0  0.59231  0.93970  0.31017  1.0000
  C   C1121     1.0  0.36574  0.86373  0.41795  1.0000
  C   C1122     1.0  0.51129  0.97247  0.25607  1.0000
  C   C1123     1.0  0.35557  0.96827  0.35520  1.0000
  C   C1124     1.0  0.37036  0.95596  0.35964  1.0000
  C   C1125     1.0  0.38009  0.95947  0.36941  1.0000
  C   C1126     1.0  0.37503  0.97530  0.37477  1.0000
  H   H1822     1.0  0.35867  0.97980  0.44930  1.0000
  H   H1823     1.0  0.64029  0.94450  0.31762  1.0000
  H   H1824     1.0  0.37429  0.94371  0.35555  1.0000
  H   H1825     1.0  0.39136  0.94980  0.37305  1.0000
  C   C1127     1.0  0.33508  0.90024  0.44921  1.0000
  C   C1128     1.0  0.63299  0.93582  0.31571  1.0000
  C   C1129     1.0  0.40341  0.88902  0.29198  1.0000
  C   C1130     1.0  0.38566  0.89046  0.29932  1.0000
  C   C1131     1.0  0.37971  0.88767  0.31748  1.0000
  C   C1132     1.0  0.39154  0.88295  0.32842  1.0000
  C   C1133     1.0  0.40937  0.88093  0.32114  1.0000
  C   C1134     1.0  0.41528  0.88421  0.30292  1.0000
  H   H1826     1.0  0.37645  0.89401  0.29090  1.0000
  H   H1827     1.0  0.36598  0.88890  0.32299  1.0000
  H   H1828     1.0  0.41859  0.87718  0.32955  1.0000
  H   H1829     1.0  0.42903  0.88277  0.29735  1.0000
  C   C1135     1.0  0.44936  0.96498  0.27257  1.0000
  H   H1830     1.0  0.44520  0.97922  0.32737  1.0000
  S   S463      1.0  0.38016  0.90027  0.46082  1.0000
  C   C1136     1.0  0.46786  0.97105  0.29372  1.0000
  C   C1137     1.0  0.47136  0.95448  0.29015  1.0000
  C   C1138     1.0  0.46215  0.95148  0.27950  1.0000
  H   H1831     1.0  0.35866  0.96195  0.46826  1.0000
  C   C1139     1.0  0.35576  0.90614  0.42206  1.0000
  H   H1832     1.0  0.48162  0.94417  0.29510  1.0000
  H   H1833     1.0  0.46524  0.93887  0.27628  1.0000
  H   H1834     1.0  0.62170  0.95705  0.28722  1.0000
  C   C1140     1.0  0.64782  0.89771  0.29151  1.0000
  S   S464      1.0  0.46033  0.88869  0.24325  1.0000
  H   H1835     1.0  0.62205  0.96955  0.30196  1.0000
  H   H1836     1.0  0.40127  0.96008  0.42447  1.0000
  H   H1837     1.0  0.62691  0.88575  0.33356  1.0000
  H   H1838     1.0  0.51448  0.94795  0.23886  1.0000
  C   C1141     1.0  0.34741  0.89970  0.45854  1.0000
  Fe  Fe229     1.0  0.60668  0.90257  0.27591  1.0000
  C   C1142     1.0  0.53956  0.90014  0.26542  1.0000
  C   C1143     1.0  0.52910  0.88925  0.26525  1.0000
  C   C1144     1.0  0.51104  0.89534  0.26757  1.0000
  C   C1145     1.0  0.50343  0.91202  0.27079  1.0000
  C   C1146     1.0  0.51383  0.92259  0.27171  1.0000
  H   H1839     1.0  0.57032  0.98567  0.26625  1.0000
  H   H1840     1.0  0.48950  0.91657  0.27294  1.0000
  H   H1841     1.0  0.63339  0.92421  0.32684  1.0000
  C   C1147     1.0  0.63119  0.95901  0.24104  1.0000
  H   H1842     1.0  0.38099  0.90717  0.42439  1.0000
  H   H1843     1.0  0.61190  0.95953  0.33373  1.0000
  C   C1148     1.0  0.37898  0.85182  0.39232  1.0000
  C   C1149     1.0  0.64220  0.90543  0.47858  1.0000
  S   S465      1.0  0.61445  0.89212  0.30225  1.0000
  C   C1150     1.0  0.63714  0.88938  0.32265  1.0000
  C   C1151     1.0  0.63896  0.94458  0.25261  1.0000
  C   C1152     1.0  0.36818  0.90524  0.43135  1.0000
  C   C1153     1.0  0.36711  0.96940  0.45742  1.0000
  H   H1844     1.0  0.37462  0.83937  0.39857  1.0000
  C   C1154     1.0  0.39122  0.94431  0.45824  1.0000
  N   N119      1.0  0.50444  0.97492  0.24036  1.0000
  C   C1155     1.0  0.65304  0.88992  0.32574  1.0000
  C   C1156     1.0  0.39534  0.84686  0.41451  1.0000
  H   H1845     1.0  0.64595  0.90058  0.27829  1.0000
  H   H1846     1.0  0.39761  0.95031  0.46476  1.0000
  H   H1847     1.0  0.39806  0.85236  0.42427  1.0000
  C   C1157     1.0  0.44331  0.98613  0.33793  1.0000
  H   H1848     1.0  0.35911  0.90872  0.40806  1.0000
  H   H1849     1.0  0.36353  0.95894  0.43021  1.0000
  Fe  Fe230     1.0  0.57341  0.92037  0.26219  1.0000
  S   S466      1.0  0.54458  0.93104  0.26851  1.0000
  C   C1158     1.0  0.60603  0.93327  0.31109  1.0000
  H   H1850     1.0  0.38125  0.94009  0.43137  1.0000
  H   H1851     1.0  0.36307  0.94124  0.44935  1.0000
  H   H1852     1.0  0.47774  0.98279  0.25284  1.0000
  N   N120      1.0  0.39552  0.94106  0.30370  1.0000
  C   C1159     1.0  0.37889  0.95350  0.30825  1.0000
  C   C1160     1.0  0.39808  0.92646  0.31899  1.0000
  C   C1161     1.0  0.41001  0.95012  0.29859  1.0000
  C   C1162     1.0  0.39512  0.93412  0.28898  1.0000
  H   H1853     1.0  0.37639  0.96465  0.29701  1.0000
  H   H1854     1.0  0.37873  0.95905  0.31930  1.0000
  H   H1855     1.0  0.36769  0.94702  0.31237  1.0000
  H   H1856     1.0  0.39852  0.93116  0.33035  1.0000
  H   H1857     1.0  0.38733  0.91939  0.32321  1.0000
  H   H1858     1.0  0.41044  0.91672  0.31599  1.0000
  H   H1859     1.0  0.41087  0.95541  0.30939  1.0000
  H   H1860     1.0  0.40847  0.96125  0.28709  1.0000
  H   H1861     1.0  0.42273  0.94112  0.29488  1.0000
  H   H1862     1.0  0.40742  0.92456  0.28530  1.0000
  H   H1863     1.0  0.39340  0.94472  0.27711  1.0000
  H   H1864     1.0  0.38434  0.92720  0.29230  1.0000
  C   C1163     1.0  0.39129  0.96830  0.43290  1.0000
  C   C1164     1.0  0.53192  0.91684  0.26868  1.0000
  H   H1865     1.0  0.39074  0.88201  0.40547  1.0000
  S   S467      1.0  0.62356  0.90541  0.24890  1.0000
  H   H1866     1.0  0.40079  0.87298  0.38641  1.0000
  H   H1867     1.0  0.36881  0.86094  0.38536  1.0000
  Fe  Fe231     1.0  0.60677  0.93252  0.24411  1.0000
  C   C1165     1.0  0.65036  0.94653  0.26161  1.0000
  H   H1868     1.0  0.37892  0.88534  0.38881  1.0000
  H   H1869     1.0  0.39098  0.83453  0.42162  1.0000
  S   S468      1.0  0.34256  0.96318  0.34437  1.0000
  H   H1870     1.0  0.36767  0.86924  0.42813  1.0000
  C   C1166     1.0  0.37162  0.94918  0.43913  1.0000
  C   C1167     1.0  0.38845  0.87566  0.39615  1.0000
  H   H1871     1.0  0.64022  0.93110  0.30364  1.0000
  C   C1168     1.0  0.64638  0.97727  0.24722  1.0000
  N   N121      1.0  0.61492  0.94503  0.31444  1.0000
  C   C1169     1.0  0.60559  0.95049  0.33093  1.0000
  C   C1170     1.0  0.36407  0.90194  0.44960  1.0000
  C   C1171     1.0  0.61508  0.96065  0.29994  1.0000
  Fe  Fe232     1.0  0.33240  0.90832  0.39010  1.0000
  H   H1872     1.0  0.40149  0.93541  0.45074  1.0000
  H   H1873     1.0  0.59195  0.95766  0.33030  1.0000
  H   H1874     1.0  0.36035  0.85194  0.42479  1.0000
  C   C1172     1.0  0.35090  0.98439  0.35999  1.0000
  H   H1875     1.0  0.50789  0.93526  0.27474  1.0000
  H   H1876     1.0  0.38334  0.93595  0.46873  1.0000
  H   H1877     1.0  0.53506  0.87625  0.26297  1.0000
  C   C1173     1.0  0.63452  0.89316  0.30553  1.0000
  H   H1878     1.0  0.60167  0.96824  0.29885  1.0000
  S   S469      1.0  0.33426  0.88776  0.37593  1.0000
  S   S470      1.0  0.38705  0.97926  0.38740  1.0000
  H   H1879     1.0  0.55939  0.98875  0.32060  1.0000
  H   H1880     1.0  0.38336  0.97866  0.42426  1.0000
  C   C1174     1.0  0.50203  0.95802  0.23929  1.0000
  Fe  Fe233     1.0  0.60262  0.89794  0.24132  1.0000
  H   H1881     1.0  0.61264  0.92910  0.29861  1.0000
  H   H1882     1.0  0.49253  0.95280  0.25084  1.0000
  C   C1175     1.0  0.36056  0.98786  0.36990  1.0000
  C   C1176     1.0  0.45415  0.98410  0.28787  1.0000
  H   H1883     1.0  0.50231  0.96751  0.26825  1.0000
  H   H1884     1.0  0.51329  0.98497  0.25722  1.0000
  C   C1177     1.0  0.63514  0.97529  0.23814  1.0000
  S   S471      1.0  0.43438  0.92760  0.23760  1.0000
  H   H1885     1.0  0.44505  0.97597  0.35009  1.0000
  H   H1886     1.0  0.52403  0.96295  0.25570  1.0000
  H   H1887     1.0  0.65682  0.97970  0.35666  1.0000
  H   H1888     1.0  0.65580  0.93553  0.27107  1.0000
  H   H1889     1.0  0.41345  0.97771  0.35635  1.0000
  C   C1178     1.0  0.48757  0.98769  0.24150  1.0000
  H   H1890     1.0  0.41310  0.98223  0.33363  1.0000
  C   C1179     1.0  0.41234  0.98838  0.34443  1.0000
  H   H1891     1.0  0.63065  0.91414  0.48500  1.0000
  Fe  Fe234     1.0  0.41626  0.90130  0.61924  1.0000
  S   S472      1.0  0.42896  0.92379  0.60551  1.0000
  S   S473      1.0  0.39211  0.90281  0.61025  1.0000
  Fe  Fe235     1.0  0.43877  0.88816  0.64633  1.0000
  S   S474      1.0  0.45299  0.90981  0.63508  1.0000
  S   S475      1.0  0.44812  0.86771  0.66883  1.0000
  Fe  Fe236     1.0  0.42697  0.92697  0.63225  1.0000
  S   S476      1.0  0.42010  0.95447  0.63535  1.0000
  Fe  Fe237     1.0  0.45403  0.90485  0.60928  1.0000
  S   S477      1.0  0.47835  0.90574  0.58828  1.0000
  S   S478      1.0  0.41233  0.90597  0.64606  1.0000
  S   S479      1.0  0.44166  0.88162  0.62051  1.0000
  Fe  Fe238     1.0  0.55949  0.93173  0.59986  1.0000
  S   S480      1.0  0.56715  0.94130  0.61917  1.0000
  S   S481      1.0  0.53029  0.94132  0.60396  1.0000
  Fe  Fe239     1.0  0.59751  0.91601  0.58552  1.0000
  S   S482      1.0  0.60756  0.92402  0.60435  1.0000
  S   S483      1.0  0.61830  0.90179  0.56660  1.0000
  Fe  Fe240     1.0  0.58514  0.91513  0.62435  1.0000
  S   S484      1.0  0.58300  0.90061  0.65258  1.0000
  Fe  Fe241     1.0  0.58847  0.94928  0.59753  1.0000
  S   S485      1.0  0.41580  0.96035  0.55385  1.0000
  S   S486      1.0  0.57640  0.90479  0.60621  1.0000
  S   S487      1.0  0.57969  0.94205  0.57747  1.0000
  H   H1892     1.0  0.35343  0.97487  0.62226  1.0000
  H   H1893     1.0  0.42926  0.96918  0.59879  1.0000
  S   S488      1.0  0.62192  0.91148  0.70464  1.0000
  H   H1894     1.0  0.44578  0.93652  0.68707  1.0000
  Fe  Fe242     1.0  0.37320  0.89452  0.52654  1.0000
  H   H1895     1.0  0.62423  0.96636  0.67879  1.0000
  S   S489      1.0  0.38939  0.87604  0.54563  1.0000
  H   H1896     1.0  0.47244  0.91433  0.69347  1.0000
  H   H1897     1.0  0.38209  0.96079  0.58257  1.0000
  H   H1898     1.0  0.47624  0.96905  0.58903  1.0000
  H   H1899     1.0  0.54766  0.89523  0.71789  1.0000
  Fe  Fe243     1.0  0.36630  0.93210  0.50675  1.0000
  S   S490      1.0  0.35734  0.88651  0.51263  1.0000
  H   H1900     1.0  0.44091  0.97896  0.63063  1.0000
  C   C1180     1.0  0.38869  0.94334  0.52989  1.0000
  H   H1901     1.0  0.38149  0.93326  0.53309  1.0000
  H   H1902     1.0  0.39810  0.93431  0.55389  1.0000
  C   C1181     1.0  0.43398  0.97761  0.58601  1.0000
  C   C1182     1.0  0.35851  0.94685  0.60906  1.0000
  H   H1903     1.0  0.61946  0.94765  0.69511  1.0000
  H   H1904     1.0  0.36818  0.94614  0.63831  1.0000
  H   H1905     1.0  0.56533  0.93695  0.67671  1.0000
  H   H1906     1.0  0.63909  0.93227  0.71605  1.0000
  H   H1907     1.0  0.54754  0.91267  0.66650  1.0000
  C   C1183     1.0  0.42493  0.89313  0.70813  1.0000
  H   H1908     1.0  0.61761  0.96766  0.70130  1.0000
  H   H1909     1.0  0.45792  0.96426  0.60600  1.0000
  C   C1184     1.0  0.63311  0.91372  0.55168  1.0000
  C   C1185     1.0  0.62844  0.93195  0.54626  1.0000
  C   C1186     1.0  0.64023  0.94111  0.53377  1.0000
  C   C1187     1.0  0.44220  0.96947  0.64277  1.0000
  H   H1910     1.0  0.34553  0.97575  0.52526  1.0000
  C   C1188     1.0  0.45464  0.95855  0.66865  1.0000
  H   H1911     1.0  0.61557  0.93895  0.55139  1.0000
  H   H1912     1.0  0.63637  0.95517  0.52936  1.0000
  H   H1913     1.0  0.62618  0.95112  0.57877  1.0000
  H   H1914     1.0  0.64829  0.88076  0.50718  1.0000
  C   C1189     1.0  0.59344  0.90483  0.66669  1.0000
  C   C1190     1.0  0.60712  0.91352  0.66035  1.0000
  C   C1191     1.0  0.61575  0.91569  0.67207  1.0000
  C   C1192     1.0  0.61030  0.90978  0.69015  1.0000
  C   C1193     1.0  0.59613  0.90181  0.69647  1.0000
  C   C1194     1.0  0.58797  0.89903  0.68476  1.0000
  H   H1915     1.0  0.61144  0.91800  0.64643  1.0000
  H   H1916     1.0  0.62674  0.92183  0.66712  1.0000
  H   H1917     1.0  0.59200  0.89701  0.71036  1.0000
  H   H1918     1.0  0.57761  0.89203  0.68973  1.0000
  C   C1195     1.0  0.39270  0.89557  0.59174  1.0000
  C   C1196     1.0  0.40275  0.87929  0.58883  1.0000
  C   C1197     1.0  0.40171  0.87338  0.57461  1.0000
  C   C1198     1.0  0.39075  0.88378  0.56321  1.0000
  C   C1199     1.0  0.38101  0.90015  0.56602  1.0000
  C   C1200     1.0  0.38182  0.90594  0.58032  1.0000
  H   H1919     1.0  0.41081  0.87100  0.59788  1.0000
  H   H1920     1.0  0.40918  0.86061  0.57260  1.0000
  H   H1921     1.0  0.37260  0.90827  0.55739  1.0000
  H   H1922     1.0  0.37391  0.91848  0.58254  1.0000
  C   C1201     1.0  0.49312  0.91496  0.59308  1.0000
  C   C1202     1.0  0.48712  0.92695  0.60386  1.0000
  C   C1203     1.0  0.49873  0.93479  0.60710  1.0000
  C   C1204     1.0  0.51653  0.93046  0.59992  1.0000
  C   C1205     1.0  0.52268  0.91830  0.58931  1.0000
  C   C1206     1.0  0.51093  0.91072  0.58573  1.0000
  H   H1923     1.0  0.47346  0.93060  0.60938  1.0000
  H   H1924     1.0  0.49388  0.94430  0.61520  1.0000
  H   H1925     1.0  0.53640  0.91496  0.58364  1.0000
  H   H1926     1.0  0.51569  0.90148  0.57735  1.0000
  H   H1927     1.0  0.47103  0.92109  0.65549  1.0000
  H   H1928     1.0  0.42756  0.93364  0.66863  1.0000
  H   H1929     1.0  0.64406  0.92135  0.58265  1.0000
  C   C1207     1.0  0.43470  0.94394  0.66419  1.0000
  N   N122      1.0  0.44417  0.90135  0.55694  1.0000
  C   C1208     1.0  0.44322  0.88939  0.57438  1.0000
  C   C1209     1.0  0.46095  0.89550  0.54547  1.0000
  C   C1210     1.0  0.44278  0.91924  0.55864  1.0000
  C   C1211     1.0  0.42973  0.90133  0.54935  1.0000
  H   H1930     1.0  0.43112  0.89398  0.58363  1.0000
  H   H1931     1.0  0.45438  0.88854  0.58013  1.0000
  H   H1932     1.0  0.44331  0.87590  0.57382  1.0000
  H   H1933     1.0  0.46209  0.90424  0.53219  1.0000
  H   H1934     1.0  0.47208  0.89549  0.55086  1.0000
  H   H1935     1.0  0.46245  0.88197  0.54403  1.0000
  H   H1936     1.0  0.44335  0.92873  0.54577  1.0000
  H   H1937     1.0  0.45342  0.91976  0.56441  1.0000
  H   H1938     1.0  0.43023  0.92402  0.56723  1.0000
  H   H1939     1.0  0.43029  0.88805  0.54779  1.0000
  H   H1940     1.0  0.42982  0.91046  0.53631  1.0000
  H   H1941     1.0  0.41693  0.90551  0.55783  1.0000
  H   H1942     1.0  0.42187  0.89589  0.68198  1.0000
  H   H1943     1.0  0.49400  0.91645  0.64680  1.0000
  C   C1212     1.0  0.40711  0.96958  0.52195  1.0000
  C   C1213     1.0  0.47218  0.90318  0.68830  1.0000
  C   C1214     1.0  0.43305  0.95614  0.64842  1.0000
  H   H1944     1.0  0.50517  0.88498  0.68736  1.0000
  C   C1215     1.0  0.42930  0.88859  0.69187  1.0000
  C   C1216     1.0  0.44286  0.87424  0.68871  1.0000
  C   C1217     1.0  0.46186  0.97301  0.59312  1.0000
  C   C1218     1.0  0.53083  0.94545  0.65757  1.0000
  C   C1219     1.0  0.54179  0.91922  0.67765  1.0000
  C   C1220     1.0  0.53078  0.94669  0.68675  1.0000
  N   N123      1.0  0.37205  0.95487  0.61034  1.0000
  H   H1945     1.0  0.46291  0.85373  0.69921  1.0000
  H   H1946     1.0  0.52896  0.91595  0.68390  1.0000
  C   C1221     1.0  0.62589  0.97546  0.62976  1.0000
  H   H1947     1.0  0.47034  0.96866  0.71324  1.0000
  S   S491      1.0  0.46826  0.96009  0.68118  1.0000
  H   H1948     1.0  0.52905  0.96115  0.68273  1.0000
  S   S492      1.0  0.35286  0.91831  0.53242  1.0000
  C   C1222     1.0  0.52126  0.91003  0.72307  1.0000
  C   C1223     1.0  0.44841  0.86973  0.71765  1.0000
  N   N124      1.0  0.45297  0.97202  0.58003  1.0000
  H   H1949     1.0  0.41414  0.90395  0.71070  1.0000
  C   C1224     1.0  0.54168  0.97970  0.70904  1.0000
  C   C1225     1.0  0.54574  0.91737  0.72830  1.0000
  S   S493      1.0  0.34951  0.92809  0.49145  1.0000
  H   H1950     1.0  0.65328  0.94786  0.66840  1.0000
  C   C1226     1.0  0.64469  0.94408  0.71222  1.0000
  S   S494      1.0  0.58986  0.94539  0.72712  1.0000
  H   H1951     1.0  0.63517  0.96943  0.57647  1.0000
  C   C1227     1.0  0.53015  0.98749  0.59431  1.0000
  C   C1228     1.0  0.53908  0.90653  0.72247  1.0000
  H   H1952     1.0  0.64418  0.97823  0.69783  1.0000
  H   H1953     1.0  0.45862  0.98652  0.59528  1.0000
  C   C1229     1.0  0.64896  0.94287  0.60002  1.0000
  H   H1954     1.0  0.65113  0.97599  0.67556  1.0000
  C   C1230     1.0  0.65238  0.89310  0.50556  1.0000
  H   H1955     1.0  0.35957  0.98105  0.59891  1.0000
  H   H1956     1.0  0.45906  0.90558  0.68544  1.0000
  C   C1231     1.0  0.44515  0.94544  0.67453  1.0000
  C   C1232     1.0  0.45733  0.95383  0.57786  1.0000
  H   H1957     1.0  0.38896  0.95122  0.62775  1.0000
  H   H1958     1.0  0.60071  0.95162  0.62409  1.0000
  Fe  Fe244     1.0  0.33816  0.91163  0.51662  1.0000
  Fe  Fe245     1.0  0.60534  0.91779  0.72988  1.0000
  H   H1959     1.0  0.64097  0.95816  0.55904  1.0000
  H   H1960     1.0  0.35343  0.95349  0.59694  1.0000
  H   H1961     1.0  0.55353  0.96977  0.71216  1.0000
  C   C1233     1.0  0.65144  0.96885  0.68932  1.0000
  N   N125      1.0  0.54033  0.93834  0.67198  1.0000
  H   H1962     1.0  0.53950  0.97549  0.59088  1.0000
  H   H1963     1.0  0.53785  0.94196  0.69762  1.0000
  H   H1964     1.0  0.55752  0.95619  0.66119  1.0000
  H   H1965     1.0  0.51761  0.94381  0.69198  1.0000
  H   H1966     1.0  0.42684  0.97692  0.57651  1.0000
  C   C1234     1.0  0.40724  0.95713  0.53775  1.0000
  H   H1967     1.0  0.55035  0.91316  0.68722  1.0000
  C   C1235     1.0  0.63821  0.95628  0.57346  1.0000
  H   H1968     1.0  0.53067  0.95958  0.65208  1.0000
  H   H1969     1.0  0.41401  0.97994  0.51888  1.0000
  C   C1236     1.0  0.61751  0.96180  0.63289  1.0000
  H   H1970     1.0  0.56569  0.93543  0.65528  1.0000
  C   C1237     1.0  0.64979  0.90479  0.54483  1.0000
  N   N126      1.0  0.44431  0.97939  0.72562  1.0000
  C   C1238     1.0  0.38649  0.95363  0.59497  1.0000
  H   H1971     1.0  0.36373  0.93275  0.60879  1.0000
  C   C1239     1.0  0.45866  0.98357  0.56308  1.0000
  C   C1240     1.0  0.55794  0.94195  0.66603  1.0000
  C   C1241     1.0  0.60725  0.96213  0.62154  1.0000
  H   H1972     1.0  0.64673  0.95584  0.60317  1.0000
  H   H1973     1.0  0.33735  0.95658  0.51144  1.0000
  C   C1242     1.0  0.43449  0.88371  0.72102  1.0000
  S   S495      1.0  0.59424  0.97570  0.59180  1.0000
  H   H1974     1.0  0.48504  0.92882  0.66352  1.0000
  C   C1243     1.0  0.48483  0.88662  0.66591  1.0000
  C   C1244     1.0  0.39837  0.94374  0.54154  1.0000
  H   H1975     1.0  0.48606  0.87406  0.67589  1.0000
  H   H1976     1.0  0.51394  0.89595  0.66564  1.0000
  H   H1977     1.0  0.49508  0.88466  0.65406  1.0000
  H   H1978     1.0  0.53832  0.98494  0.62437  1.0000
  H   H1979     1.0  0.50417  0.90795  0.68263  1.0000
  C   C1245     1.0  0.38756  0.95658  0.51469  1.0000
  H   H1980     1.0  0.47208  0.88915  0.66230  1.0000
  H   H1981     1.0  0.34188  0.98589  0.49478  1.0000
  C   C1246     1.0  0.33136  0.98107  0.52962  1.0000
  H   H1982     1.0  0.44720  0.98789  0.69774  1.0000
  H   H1983     1.0  0.44436  0.95806  0.71501  1.0000
  H   H1984     1.0  0.37431  0.97982  0.61227  1.0000
  S   S496      1.0  0.63903  0.97480  0.64367  1.0000
  H   H1985     1.0  0.39715  0.95917  0.59566  1.0000
  H   H1986     1.0  0.45366  0.94470  0.59046  1.0000
  H   H1987     1.0  0.45039  0.95250  0.56848  1.0000
  H   H1988     1.0  0.63702  0.93775  0.60647  1.0000
  H   H1989     1.0  0.39222  0.93978  0.59393  1.0000
  S   S497      1.0  0.51242  0.89564  0.71773  1.0000
  H   H1990     1.0  0.63730  0.95266  0.72146  1.0000
  Fe  Fe246     1.0  0.36979  0.90368  0.48839  1.0000
  H   H1991     1.0  0.49636  0.92726  0.72966  1.0000
  H   H1992     1.0  0.47153  0.94924  0.57303  1.0000
  C   C1247     1.0  0.45333  0.97037  0.65263  1.0000
  H   H1993     1.0  0.47361  0.89121  0.69898  1.0000
  C   C1248     1.0  0.39706  0.96949  0.51058  1.0000
  H   H1994     1.0  0.53691  0.93858  0.64668  1.0000
  H   H1995     1.0  0.39631  0.97972  0.49882  1.0000
  N   N127      1.0  0.48602  0.90118  0.67259  1.0000
  C   C1249     1.0  0.37867  0.94552  0.62642  1.0000
  C   C1250     1.0  0.48397  0.91759  0.65899  1.0000
  S   S498      1.0  0.37357  0.95774  0.50126  1.0000
  C   C1251     1.0  0.50313  0.89734  0.67719  1.0000
  C   C1252     1.0  0.65368  0.94139  0.68226  1.0000
  C   C1253     1.0  0.36451  0.97346  0.61095  1.0000
  H   H1996     1.0  0.64146  0.90175  0.51281  1.0000
  H   H1997     1.0  0.45225  0.98295  0.55293  1.0000
  Fe  Fe247     1.0  0.47740  0.98504  0.66882  1.0000
  C   C1254     1.0  0.45242  0.86485  0.70161  1.0000
  H   H1998     1.0  0.51710  0.94405  0.66203  1.0000
  H   H1999     1.0  0.61886  0.95104  0.64413  1.0000
  H   H2000     1.0  0.54341  0.98362  0.69456  1.0000
  C   C1255     1.0  0.60559  0.97599  0.60695  1.0000
  H   H2001     1.0  0.38445  0.93146  0.62643  1.0000
  H   H2002     1.0  0.65085  0.92752  0.49205  1.0000
  C   C1256     1.0  0.62547  0.95902  0.69226  1.0000
  C   C1257     1.0  0.51016  0.92451  0.72915  1.0000
  N   N128      1.0  0.64383  0.95334  0.69400  1.0000
  N   N129      1.0  0.65295  0.94434  0.58096  1.0000
  S   S499      1.0  0.38757  0.90904  0.50181  1.0000
  H   H2003     1.0  0.34737  0.94761  0.62040  1.0000
  H   H2004     1.0  0.53060  0.97305  0.71427  1.0000
  H   H2005     1.0  0.55951  0.91471  0.72772  1.0000
  H   H2006     1.0  0.55810  0.97853  0.60937  1.0000
  C   C1258     1.0  0.46324  0.97414  0.72490  1.0000
  C   C1259     1.0  0.43785  0.96391  0.72655  1.0000
  H   H2007     1.0  0.46095  0.98020  0.64769  1.0000
  Fe  Fe248     1.0  0.40457  0.98879  0.55339  1.0000
  H   H2008     1.0  0.52023  0.98311  0.60591  1.0000
  H   H2009     1.0  0.65353  0.89069  0.54912  1.0000
  C   C1260     1.0  0.65591  0.92685  0.57736  1.0000
  S   S500      1.0  0.49849  0.98558  0.64495  1.0000
  H   H2010     1.0  0.46856  0.98541  0.72440  1.0000
  H   H2011     1.0  0.45577  0.86232  0.72757  1.0000
  H   H2012     1.0  0.47296  0.97987  0.55830  1.0000
  C   C1261     1.0  0.65691  0.93217  0.52695  1.0000
  H   H2013     1.0  0.64821  0.92960  0.68536  1.0000
  H   H2014     1.0  0.42362  0.96732  0.72707  1.0000
  H   H2015     1.0  0.32707  0.97310  0.54281  1.0000
  N   N130      1.0  0.65713  0.90173  0.48695  1.0000
  H   H2016     1.0  0.57423  0.98896  0.65306  1.0000
  C   C1262     1.0  0.53451  0.93150  0.73495  1.0000
  C   C1263     1.0  0.51681  0.93531  0.73499  1.0000
  C   C1264     1.0  0.53633  0.98913  0.73591  1.0000
  H   H2017     1.0  0.40405  0.68060  0.85736  1.0000
  Fe  Fe249     1.0  0.59437  0.90960  0.76968  1.0000
  H   H2018     1.0  0.40431  0.86249  0.79669  1.0000
  S   S501      1.0  0.59812  0.89292  0.79623  1.0000
  H   H2019     1.0  0.50025  0.81319  0.85646  1.0000
  H   H2020     1.0  0.63114  0.90812  0.78501  1.0000
  S   S502      1.0  0.57765  0.93665  0.76980  1.0000
  H   H2021     1.0  0.40352  0.66657  0.91211  1.0000
  S   S503      1.0  0.48956  0.89756  0.76450  1.0000
  H   H2022     1.0  0.43188  0.81808  0.79430  1.0000
  C   C1265     1.0  0.40590  0.66199  0.89988  1.0000
  S   S504      1.0  0.44902  0.89389  0.77750  1.0000
  H   H2023     1.0  0.37538  0.67761  0.89046  1.0000
  H   H2024     1.0  0.62507  0.90318  0.80825  1.0000
  Fe  Fe250     1.0  0.47548  0.87578  0.77568  1.0000
  S   S505      1.0  0.48657  0.85344  0.79607  1.0000
  H   H2025     1.0  0.64666  0.90622  0.79770  1.0000
  H   H2026     1.0  0.41201  0.69397  0.89405  1.0000
  Fe  Fe251     1.0  0.44402  0.79651  0.87958  1.0000
  S   S506      1.0  0.47241  0.78447  0.87817  1.0000
  S   S507      1.0  0.43349  0.81631  0.85710  1.0000
  Fe  Fe252     1.0  0.43460  0.77866  0.91812  1.0000
  S   S508      1.0  0.46214  0.76534  0.91955  1.0000
  N   N131      1.0  0.65168  0.67944  0.83880  1.0000
  Fe  Fe253     1.0  0.46779  0.79121  0.90400  1.0000
  S   S509      1.0  0.48498  0.80454  0.91025  1.0000
  Fe  Fe254     1.0  0.46362  0.75987  0.89380  1.0000
  S   S510      1.0  0.47844  0.73359  0.88832  1.0000
  S   S511      1.0  0.44009  0.80505  0.90446  1.0000
  S   S512      1.0  0.43540  0.77130  0.89333  1.0000
  Fe  Fe255     1.0  0.59525  0.80198  0.88574  1.0000
  S   S513      1.0  0.60033  0.77279  0.89490  1.0000
  S   S514      1.0  0.59219  0.82074  0.90249  1.0000
  Fe  Fe256     1.0  0.58739  0.80218  0.85145  1.0000
  S   S515      1.0  0.59138  0.77285  0.85751  1.0000
  S   S516      1.0  0.57795  0.81882  0.82697  1.0000
  Fe  Fe257     1.0  0.57715  0.77495  0.88459  1.0000
  S   S517      1.0  0.55971  0.75677  0.89988  1.0000
  Fe  Fe258     1.0  0.61448  0.77230  0.86732  1.0000
  S   S518      1.0  0.63807  0.75047  0.86360  1.0000
  S   S519      1.0  0.57047  0.80426  0.87771  1.0000
  S   S520      1.0  0.61204  0.80161  0.85891  1.0000
  C   C1266     1.0  0.44414  0.72888  0.95128  1.0000
  H   H2027     1.0  0.42836  0.84584  0.94892  1.0000
  C   C1267     1.0  0.41390  0.72792  0.95753  1.0000
  S   S521      1.0  0.62430  0.67462  0.89929  1.0000
  Fe  Fe259     1.0  0.59974  0.94602  0.74983  1.0000
  H   H2028     1.0  0.57552  0.72602  0.95094  1.0000
  H   H2029     1.0  0.43706  0.70015  0.94730  1.0000
  H   H2030     1.0  0.41736  0.85627  0.75981  1.0000
  N   N132      1.0  0.58603  0.71211  0.93030  1.0000
  H   H2031     1.0  0.57830  0.97270  0.77198  1.0000
  C   C1268     1.0  0.40629  0.66990  0.86900  1.0000
  H   H2032     1.0  0.43327  0.83079  0.80827  1.0000
  H   H2033     1.0  0.53620  0.78718  0.94430  1.0000
  H   H2034     1.0  0.45281  0.77588  0.97859  1.0000
  S   S522      1.0  0.43866  0.67194  0.91479  1.0000
  C   C1269     1.0  0.51455  0.70332  0.90838  1.0000
  C   C1270     1.0  0.60150  0.98284  0.76185  1.0000
  H   H2035     1.0  0.39800  0.66061  0.87063  1.0000
  H   H2036     1.0  0.56226  0.71250  0.94964  1.0000
  S   S523      1.0  0.54833  0.67472  0.87863  1.0000
  C   C1271     1.0  0.51447  0.69665  0.93918  1.0000
  H   H2037     1.0  0.45128  0.81897  0.92954  1.0000
  C   C1272     1.0  0.41878  0.77865  0.96075  1.0000
  N   N133      1.0  0.62672  0.93002  0.79662  1.0000
  Fe  Fe260     1.0  0.57611  0.66057  0.87913  1.0000
  C   C1273     1.0  0.59593  0.69694  0.94115  1.0000
  C   C1274     1.0  0.44840  0.81480  0.94403  1.0000
  H   H2038     1.0  0.62436  0.94746  0.81295  1.0000
  C   C1275     1.0  0.40519  0.78462  0.97376  1.0000
  H   H2039     1.0  0.44660  0.84927  0.93129  1.0000
  H   H2040     1.0  0.58968  0.83591  0.93077  1.0000
  H   H2041     1.0  0.44659  0.77059  0.95284  1.0000
  H   H2042     1.0  0.47575  0.82972  0.93297  1.0000
  C   C1276     1.0  0.44263  0.84498  0.94572  1.0000
  H   H2043     1.0  0.62094  0.92602  0.82456  1.0000
  H   H2044     1.0  0.39187  0.78702  0.97252  1.0000
  C   C1277     1.0  0.63709  0.93999  0.78131  1.0000
  H   H2045     1.0  0.57367  0.80822  0.95447  1.0000
  C   C1278     1.0  0.64132  0.69699  0.84106  1.0000
  H   H2046     1.0  0.49546  0.65925  0.87729  1.0000
  C   C1279     1.0  0.43598  0.77545  0.96259  1.0000
  H   H2047     1.0  0.52444  0.96647  0.84801  1.0000
  H   H2048     1.0  0.54839  0.78707  0.97700  1.0000
  H   H2049     1.0  0.45167  0.83404  0.77044  1.0000
  S   S524      1.0  0.47747  0.69490  0.97551  1.0000
  C   C1280     1.0  0.63380  0.72947  0.87297  1.0000
  C   C1281     1.0  0.61869  0.72530  0.87193  1.0000
  C   C1282     1.0  0.61588  0.70823  0.87929  1.0000
  C   C1283     1.0  0.62790  0.69555  0.88824  1.0000
  H   H2050     1.0  0.62742  0.69675  0.84695  1.0000
  H   H2051     1.0  0.45220  0.84753  0.78417  1.0000
  C   C1284     1.0  0.51870  0.66674  0.87707  1.0000
  C   C1285     1.0  0.62874  0.93328  0.81280  1.0000
  C   C1286     1.0  0.60355  0.81368  0.91953  1.0000
  C   C1287     1.0  0.61622  0.79805  0.92113  1.0000
  C   C1288     1.0  0.62472  0.79257  0.93521  1.0000
  C   C1289     1.0  0.62022  0.80247  0.94793  1.0000
  C   C1290     1.0  0.60742  0.81797  0.94641  1.0000
  H   H2052     1.0  0.41226  0.70001  0.87101  1.0000
  H   H2053     1.0  0.61965  0.79034  0.91139  1.0000
  H   H2054     1.0  0.63471  0.78063  0.93627  1.0000
  C   C1291     1.0  0.46665  0.71709  0.89478  1.0000
  C   C1292     1.0  0.44968  0.71960  0.90473  1.0000
  C   C1293     1.0  0.44100  0.70576  0.91067  1.0000
  C   C1294     1.0  0.44928  0.68941  0.90667  1.0000
  C   C1295     1.0  0.46601  0.68708  0.89635  1.0000
  C   C1296     1.0  0.47466  0.70090  0.89038  1.0000
  H   H2055     1.0  0.44328  0.73219  0.90783  1.0000
  H   H2056     1.0  0.42790  0.70772  0.91836  1.0000
  H   H2057     1.0  0.47228  0.67457  0.89310  1.0000
  H   H2058     1.0  0.48758  0.69909  0.88228  1.0000
  C   C1297     1.0  0.50542  0.79051  0.90959  1.0000
  C   C1298     1.0  0.51949  0.79658  0.91025  1.0000
  C   C1299     1.0  0.53623  0.78591  0.90787  1.0000
  C   C1300     1.0  0.53878  0.76917  0.90510  1.0000
  C   C1301     1.0  0.52464  0.76285  0.90512  1.0000
  C   C1302     1.0  0.50796  0.77362  0.90718  1.0000
  H   H2059     1.0  0.51750  0.80968  0.91205  1.0000
  H   H2060     1.0  0.54716  0.79067  0.90807  1.0000
  H   H2061     1.0  0.52664  0.74995  0.90279  1.0000
  H   H2062     1.0  0.49719  0.76896  0.90641  1.0000
  C   C1303     1.0  0.47182  0.84367  0.81350  1.0000
  C   C1304     1.0  0.45432  0.85209  0.81738  1.0000
  C   C1305     1.0  0.44270  0.84374  0.83103  1.0000
  C   C1306     1.0  0.44855  0.82698  0.84090  1.0000
  C   C1307     1.0  0.46612  0.81870  0.83715  1.0000
  C   C1308     1.0  0.47774  0.82704  0.82353  1.0000
  H   H2063     1.0  0.44980  0.86511  0.81002  1.0000
  H   H2064     1.0  0.42915  0.85028  0.83401  1.0000
  H   H2065     1.0  0.47066  0.80562  0.84432  1.0000
  H   H2066     1.0  0.49123  0.82040  0.82047  1.0000
  C   C1309     1.0  0.59298  0.87207  0.80423  1.0000
  C   C1310     1.0  0.58766  0.86432  0.79392  1.0000
  C   C1311     1.0  0.58325  0.84788  0.80093  1.0000
  C   C1312     1.0  0.58431  0.83904  0.81821  1.0000
  C   C1313     1.0  0.58990  0.84668  0.82840  1.0000
  C   C1314     1.0  0.59416  0.86315  0.82144  1.0000
  H   H2067     1.0  0.58710  0.87090  0.78052  1.0000
  H   H2068     1.0  0.57927  0.84185  0.79291  1.0000
  H   H2069     1.0  0.59078  0.84000  0.84172  1.0000
  H   H2070     1.0  0.59835  0.86899  0.82949  1.0000
  H   H2071     1.0  0.50894  0.79136  0.85296  1.0000
  H   H2072     1.0  0.45330  0.80829  0.97646  1.0000
  C   C1315     1.0  0.53672  0.66423  0.87107  1.0000
  H   H2073     1.0  0.45500  0.97649  0.77290  1.0000
  H   H2074     1.0  0.60927  0.71743  0.91191  1.0000
  H   H2075     1.0  0.64417  0.75540  0.96259  1.0000
  H   H2076     1.0  0.42333  0.83283  0.76582  1.0000
  H   H2077     1.0  0.65223  0.66019  0.82516  1.0000
  H   H2078     1.0  0.43451  0.81392  0.94831  1.0000
  C   C1316     1.0  0.47142  0.95061  0.77354  1.0000
  Fe  Fe261     1.0  0.46339  0.91542  0.76401  1.0000
  C   C1317     1.0  0.50035  0.94723  0.77825  1.0000
  H   H2079     1.0  0.41240  0.83017  0.80586  1.0000
  H   H2080     1.0  0.40366  0.72067  0.96528  1.0000
  C   C1318     1.0  0.59937  0.82374  0.93204  1.0000
  H   H2081     1.0  0.54320  0.82214  0.85334  1.0000
  C   C1319     1.0  0.53546  0.97768  0.81355  1.0000
  C   C1320     1.0  0.49335  0.68841  0.92931  1.0000
  H   H2082     1.0  0.48393  0.70120  0.92982  1.0000
  C   C1321     1.0  0.63675  0.74982  0.97562  1.0000
  N   N134      1.0  0.40271  0.67674  0.88487  1.0000
  S   S525      1.0  0.54212  0.94416  0.74393  1.0000
  C   C1322     1.0  0.48027  0.97545  0.77661  1.0000
  H   H2083     1.0  0.43248  0.82250  0.97544  1.0000
  H   H2084     1.0  0.49081  0.68314  0.91930  1.0000
  H   H2085     1.0  0.52158  0.66332  0.93607  1.0000
  H   H2086     1.0  0.53009  0.86646  0.97787  1.0000
  H   H2087     1.0  0.60101  0.70111  0.95030  1.0000
  C   C1323     1.0  0.64289  0.69980  0.88930  1.0000
  H   H2088     1.0  0.63598  0.93766  0.76890  1.0000
  H   H2089     1.0  0.45649  0.80136  0.94742  1.0000
  C   C1324     1.0  0.57112  0.72131  0.94169  1.0000
  H   H2090     1.0  0.64173  0.70676  0.82838  1.0000
  H   H2091     1.0  0.50596  0.71648  0.90911  1.0000
  S   S526      1.0  0.49996  0.82362  0.97559  1.0000
  N   N135      1.0  0.53664  0.88155  0.78224  1.0000
  C   C1325     1.0  0.52286  0.87153  0.78791  1.0000
  C   C1326     1.0  0.54299  0.88147  0.79757  1.0000
  C   C1327     1.0  0.52961  0.89981  0.77375  1.0000
  C   C1328     1.0  0.55111  0.87339  0.76968  1.0000
  H   H2092     1.0  0.51835  0.87058  0.77659  1.0000
  H   H2093     1.0  0.51126  0.87773  0.79672  1.0000
  H   H2094     1.0  0.53237  0.88766  0.80722  1.0000
  H   H2095     1.0  0.54834  0.86790  0.80440  1.0000
  H   H2096     1.0  0.55352  0.88881  0.79375  1.0000
  H   H2097     1.0  0.51841  0.90631  0.78267  1.0000
  H   H2098     1.0  0.52503  0.90043  0.76191  1.0000
  H   H2099     1.0  0.53959  0.90785  0.76956  1.0000
  H   H2100     1.0  0.55661  0.85951  0.77556  1.0000
  H   H2101     1.0  0.56184  0.88045  0.76526  1.0000
  H   H2102     1.0  0.54677  0.87354  0.75781  1.0000
  N   N136      1.0  0.51148  0.69044  0.92513  1.0000
  H   H2103     1.0  0.43745  0.97655  0.75345  1.0000
  C   C1329     1.0  0.59750  0.72418  0.92004  1.0000
  H   H2104     1.0  0.51254  0.68709  0.95195  1.0000
  S   S527      1.0  0.41389  0.77520  0.94245  1.0000
  C   C1330     1.0  0.38438  0.68632  0.88839  1.0000
  H   H2105     1.0  0.38149  0.69756  0.87733  1.0000
  H   H2106     1.0  0.52168  0.66835  0.91312  1.0000
  Fe  Fe262     1.0  0.45135  0.89105  0.75033  1.0000
  H   H2107     1.0  0.44594  0.72855  0.93739  1.0000
  C   C1331     1.0  0.57007  0.78765  0.93504  1.0000
  H   H2108     1.0  0.51189  0.69935  0.89756  1.0000
  C   C1332     1.0  0.57960  0.70593  0.91839  1.0000
  C   C1333     1.0  0.64599  0.71655  0.88141  1.0000
  H   H2109     1.0  0.65111  0.93627  0.78182  1.0000
  Fe  Fe263     1.0  0.60832  0.66213  0.89000  1.0000
  H   H2110     1.0  0.59078  0.73538  0.91102  1.0000
  N   N137      1.0  0.52823  0.80549  0.85091  1.0000
  C   C1334     1.0  0.54192  0.78940  0.85411  1.0000
  C   C1335     1.0  0.51094  0.80136  0.85864  1.0000
  H   H2111     1.0  0.52836  0.80293  0.82539  1.0000
  H   H2112     1.0  0.54127  0.78380  0.86833  1.0000
  H   H2113     1.0  0.54071  0.77907  0.84836  1.0000
  H   H2114     1.0  0.55513  0.79208  0.84829  1.0000
  H   H2115     1.0  0.50927  0.79611  0.87298  1.0000
  C   C1336     1.0  0.63273  0.91109  0.79691  1.0000
  H   H2116     1.0  0.63254  0.95438  0.78041  1.0000
  C   C1337     1.0  0.47107  0.82629  0.94738  1.0000
  H   H2117     1.0  0.60425  0.70506  0.87837  1.0000
  H   H2118     1.0  0.60724  0.68961  0.93296  1.0000
  H   H2119     1.0  0.56337  0.73285  0.93388  1.0000
  H   H2120     1.0  0.58353  0.78481  0.93718  1.0000
  Fe  Fe264     1.0  0.58774  0.65910  0.98286  1.0000
  H   H2121     1.0  0.52791  0.69865  0.93633  1.0000
  H   H2122     1.0  0.53735  0.67443  0.92039  1.0000
  S   S528      1.0  0.58416  0.90539  0.74861  1.0000
  H   H2123     1.0  0.51303  0.93912  0.77973  1.0000
  S   S529      1.0  0.63048  0.79531  0.96579  1.0000
  H   H2124     1.0  0.58767  0.68755  0.94908  1.0000
  C   C1338     1.0  0.41723  0.84478  0.77114  1.0000
  H   H2125     1.0  0.40339  0.84449  0.77720  1.0000
  H   H2126     1.0  0.56203  0.82067  0.93756  1.0000
  S   S530      1.0  0.61715  0.91929  0.75103  1.0000
  H   H2127     1.0  0.52010  0.83090  0.85702  1.0000
  H   H2128     1.0  0.42000  0.66247  0.86606  1.0000
  H   H2129     1.0  0.49076  0.92651  0.77524  1.0000
  H   H2130     1.0  0.57075  0.69696  0.92577  1.0000
  H   H2131     1.0  0.40927  0.74152  0.95960  1.0000
  H   H2132     1.0  0.38128  0.69159  0.90032  1.0000
  S   S531      1.0  0.45537  0.94218  0.77008  1.0000
  H   H2133     1.0  0.52938  0.81363  0.87333  1.0000
  C   C1339     1.0  0.58491  0.98234  0.77218  1.0000
  Fe  Fe265     1.0  0.56949  0.93334  0.74714  1.0000
  H   H2134     1.0  0.60204  0.72960  0.92863  1.0000
  N   N138      1.0  0.55714  0.79489  0.94924  1.0000
  C   C1340     1.0  0.55782  0.78189  0.96600  1.0000
  C   C1341     1.0  0.51694  0.84755  0.97660  1.0000
  C   C1342     1.0  0.56110  0.81105  0.95038  1.0000
  C   C1343     1.0  0.53958  0.79899  0.94554  1.0000
  H   H2135     1.0  0.50812  0.94630  0.74004  1.0000
  S   S532      1.0  0.42851  0.88901  0.74156  1.0000
  H   H2136     1.0  0.64254  0.92900  0.81417  1.0000
  H   H2137     1.0  0.60651  0.93388  0.78316  1.0000
  H   H2138     1.0  0.60930  0.73515  0.86524  1.0000
  H   H2139     1.0  0.44558  0.85741  0.76367  1.0000
  H   H2140     1.0  0.60310  0.94992  0.79548  1.0000
  C   C1344     1.0  0.60824  0.93576  0.79545  1.0000
  H   H2141     1.0  0.44049  0.74288  0.95201  1.0000
  C   C1345     1.0  0.48780  0.94011  0.77559  1.0000
  H   H2142     1.0  0.50526  0.70928  0.94098  1.0000
  C   C1346     1.0  0.46769  0.96829  0.77415  1.0000
  H   H2143     1.0  0.42602  0.69346  0.96948  1.0000
  H   H2144     1.0  0.42818  0.68186  0.87970  1.0000
  H   H2145     1.0  0.55094  0.81765  0.96003  1.0000
  S   S533      1.0  0.51224  0.97381  0.78223  1.0000
  N   N139      1.0  0.45220  0.82700  0.95211  1.0000
  C   C1347     1.0  0.52979  0.81256  0.83190  1.0000
  C   C1348     1.0  0.53031  0.81864  0.85900  1.0000
  H   H2146     1.0  0.54273  0.81581  0.82569  1.0000
  H   H2147     1.0  0.53851  0.80908  0.93320  1.0000
  H   H2148     1.0  0.42480  0.86347  0.79982  1.0000
  H   H2149     1.0  0.60398  0.82572  0.95613  1.0000
  H   H2150     1.0  0.52948  0.80420  0.95615  1.0000
  H   H2151     1.0  0.63182  0.73904  0.97416  1.0000
  N   N140      1.0  0.42654  0.84592  0.78382  1.0000
  H   H2152     1.0  0.49035  0.67932  0.94220  1.0000
  H   H2153     1.0  0.51963  0.82470  0.82901  1.0000
  C   C1349     1.0  0.42597  0.83057  0.79869  1.0000
  C   C1350     1.0  0.41817  0.86217  0.79020  1.0000
  H   H2154     1.0  0.41851  0.87400  0.77929  1.0000
  C   C1351     1.0  0.49660  0.96491  0.77877  1.0000
  H   H2155     1.0  0.60001  0.92808  0.80638  1.0000
  H   H2156     1.0  0.52747  0.85788  0.79503  1.0000
  H   H2157     1.0  0.54957  0.97192  0.81289  1.0000
  H   H2158     1.0  0.63700  0.66620  0.86233  1.0000
  H   H2159     1.0  0.41485  0.72879  0.94345  1.0000
  S   S534      1.0  0.61396  0.66508  0.97167  1.0000
  C   C1352     1.0  0.44481  0.84621  0.77517  1.0000
  H   H2160     1.0  0.51199  0.67580  0.88537  1.0000
  H   H2161     1.0  0.57241  0.71709  0.90966  1.0000
  H   H2162     1.0  0.44170  0.71338  0.98543  1.0000
  S   S535      1.0  0.61234  0.96757  0.74879  1.0000
  H   H2163     1.0  0.56763  0.77535  0.93383  1.0000
  C   C1353     1.0  0.44670  0.82193  0.97129  1.0000
  H   H2164     1.0  0.47868  0.81293  0.95222  1.0000
  H   H2165     1.0  0.57096  0.77839  0.96911  1.0000
  H   H2166     1.0  0.65217  0.69012  0.89630  1.0000
  H   H2167     1.0  0.42588  0.73370  0.98264  1.0000
  C   C1354     1.0  0.41423  0.68871  0.88225  1.0000
  H   H2168     1.0  0.47445  0.83546  0.95309  1.0000
  H   H2169     1.0  0.52826  0.70476  0.90443  1.0000
  S   S536      1.0  0.60037  0.67007  0.86420  1.0000
  H   H2170     1.0  0.59892  0.74568  0.97719  1.0000
  Fe  Fe266     1.0  0.48840  0.89449  0.73854  1.0000
  S   S537      1.0  0.47663  0.87112  0.74952  1.0000
  H   H2171     1.0  0.59049  0.69852  0.90995  1.0000
  H   H2172     1.0  0.50833  0.85705  0.96870  1.0000
  H   H2173     1.0  0.46562  0.72965  0.98209  1.0000
  C   C1355     1.0  0.64477  0.67344  0.82712  1.0000
  C   C1356     1.0  0.43542  0.98657  0.74126  1.0000
  H   H2174     1.0  0.55462  0.76962  0.96573  1.0000
  H   H2175     1.0  0.63098  0.67248  0.83260  1.0000
  H   H2176     1.0  0.44983  0.83049  0.97791  1.0000
  H   H2177     1.0  0.56974  0.79709  0.92220  1.0000
  S   S538      1.0  0.46332  0.91413  0.73697  1.0000
  H   H2178     1.0  0.45697  0.72315  0.95504  1.0000
  N   N141      1.0  0.43078  0.71942  0.96270  1.0000
  H   H2179     1.0  0.53387  0.98552  0.80027  1.0000
  H   H2180     1.0  0.64526  0.68252  0.81404  1.0000
  C   C1357     1.0  0.43954  0.77851  0.97722  1.0000
  H   H2181     1.0  0.52874  0.96677  0.81640  1.0000
  C   C1358     1.0  0.43577  0.70102  0.96095  1.0000
  C   C1359     1.0  0.52354  0.67336  0.92367  1.0000
  H   H2182     1.0  0.47717  0.98909  0.77713  1.0000
  C   C1360     1.0  0.42925  0.71995  0.98101  1.0000
  H   H2183     1.0  0.54790  0.97928  0.73986  1.0000
  H   H2184     1.0  0.65588  0.67099  0.86512  1.0000
  H   H2185     1.0  0.54496  0.97234  0.84406  1.0000
  C   C1361     1.0  0.52922  0.85287  0.98180  1.0000
  H   H2186     1.0  0.44508  0.85449  0.95170  1.0000
  N   N142      1.0  0.52820  0.98852  0.82671  1.0000
  C   C1362     1.0  0.65065  0.66697  0.85597  1.0000
  H   H2187     1.0  0.65768  0.71968  0.88224  1.0000
  H   H2188     1.0  0.64620  0.70196  0.84976  1.0000
  C   C1363     1.0  0.53089  0.97771  0.84403  1.0000
  H   H2189     1.0  0.44845  0.69418  0.96467  1.0000
  C   C1364     1.0  0.48654  0.70668  0.98435  1.0000
  H   H2190     1.0  0.52505  0.98277  0.74174  1.0000
  H   H2191     1.0  0.46636  0.96386  0.73659  1.0000
  C   C1365     1.0  0.51556  0.83006  0.98190  1.0000
  H   H2192     1.0  0.65636  0.71758  0.98425  1.0000
  S   S539      1.0  0.56732  0.66112  0.96863  1.0000
  H   H2193     1.0  0.44031  0.95349  0.73839  1.0000
  H   H2194     1.0  0.50230  0.98477  0.83074  1.0000
  H   H2195     1.0  0.62531  0.76036  0.97909  1.0000
  S   S540      1.0  0.61016  0.70865  0.98295  1.0000
  C   C1366     1.0  0.50932  0.65723  0.87270  1.0000
  H   H2196     1.0  0.52543  0.98555  0.85423  1.0000
  C   C1367     1.0  0.47788  0.72372  0.98612  1.0000
  H   H2197     1.0  0.72310  0.25828  0.00803  1.0000
  H   H2198     1.0  0.67506  0.29490  0.00338  1.0000
  C   C1368     1.0  0.65888  0.20503  0.99634  1.0000
  H   H2199     1.0  0.66717  0.24557  0.98810  1.0000
  H   H2200     1.0  0.67560  0.27591  0.02114  1.0000
  H   H2201     1.0  0.65953  0.01958  0.19479  1.0000
  H   H2202     1.0  0.66203  0.02396  0.04579  1.0000
  H   H2203     1.0  0.66279  0.99446  0.18333  1.0000
  C   C1369     1.0  0.71048  0.26510  0.01499  1.0000
  C   C1370     1.0  0.68320  0.28563  0.01245  1.0000
  C   C1371     1.0  0.66436  0.22049  0.98698  1.0000
  H   H2204     1.0  0.68527  0.29331  0.02072  1.0000
  N   N143      1.0  0.69978  0.27704  0.00261  1.0000
  C   C1372     1.0  0.70906  0.29056  0.99100  1.0000
  H   H2205     1.0  0.66228  0.09380  0.22488  1.0000
  H   H2206     1.0  0.70367  0.25487  0.02398  1.0000
  H   H2207     1.0  0.87885  0.31305  0.07812  1.0000
  H   H2208     1.0  0.71337  0.27235  0.02317  1.0000
  H   H2209     1.0  0.71139  0.29886  0.99851  1.0000
  H   H2210     1.0  0.66732  0.03948  0.06532  1.0000
  C   C1373     1.0  0.69618  0.26694  0.99206  1.0000
  C   C1374     1.0  0.66309  0.23365  0.99550  1.0000
  H   H2211     1.0  0.68885  0.25685  0.00046  1.0000
  H   H2212     1.0  0.90688  0.32089  0.07559  1.0000
  H   H2213     1.0  0.89720  0.32117  0.04896  1.0000
  H   H2214     1.0  0.68045  0.06445  0.23501  1.0000
  C   C1375     1.0  0.95970  0.20792  0.39483  1.0000
  S   S541      1.0  0.88154  0.01094  0.36413  1.0000
  S   S542      1.0  0.96042  0.10703  0.43087  1.0000
  S   S543      1.0  0.94368  0.12751  0.38835  1.0000
  H   H2215     1.0  0.77406  0.01680  0.33123  1.0000
  C   C1376     1.0  0.91891  0.09174  0.42198  1.0000
  C   C1377     1.0  0.76044  0.07620  0.46653  1.0000
  H   H2216     1.0  0.95380  0.08602  0.41183  1.0000
  Fe  Fe267     1.0  0.95835  0.14860  0.37398  1.0000
  S   S544      1.0  0.94551  0.17712  0.37245  1.0000
  Fe  Fe268     1.0  0.96046  0.11271  0.36818  1.0000
  S   S545      1.0  0.95130  0.09413  0.35858  1.0000
  H   H2217     1.0  0.91563  0.10119  0.46052  1.0000
  C   C1378     1.0  0.86778  0.99764  0.36485  1.0000
  Fe  Fe269     1.0  0.70744  0.02487  0.37215  1.0000
  S   S546      1.0  0.73182  0.01989  0.35184  1.0000
  S   S547      1.0  0.67999  0.03124  0.36774  1.0000
  Fe  Fe270     1.0  0.72666  0.01336  0.40200  1.0000
  S   S548      1.0  0.75233  0.00729  0.38426  1.0000
  S   S549      1.0  0.72890  0.00390  0.43010  1.0000
  Fe  Fe271     1.0  0.74306  0.03227  0.36614  1.0000
  S   S550      1.0  0.76512  0.04533  0.35163  1.0000
  C   C1379     1.0  0.97230  0.21776  0.44371  1.0000
  H   H2218     1.0  0.93106  0.24250  0.44772  1.0000
  S   S551      1.0  0.71798  0.03976  0.38504  1.0000
  H   H2219     1.0  0.88655  0.99355  0.40337  1.0000
  H   H2220     1.0  0.91515  0.09818  0.40914  1.0000
  C   C1380     1.0  0.68497  0.03701  0.31553  1.0000
  H   H2221     1.0  0.93278  0.05039  0.41516  1.0000
  H   H2222     1.0  0.78222  0.08061  0.42420  1.0000
  C   C1381     1.0  0.95551  0.21921  0.33245  1.0000
  H   H2223     1.0  0.91959  0.06924  0.40354  1.0000
  H   H2224     1.0  0.90679  0.09008  0.43191  1.0000
  C   C1382     1.0  0.96302  0.29686  0.45454  1.0000
  Fe  Fe272     1.0  0.86300  0.06684  0.38577  1.0000
  S   S552      1.0  0.84429  0.06187  0.41146  1.0000
  S   S553      1.0  0.87156  0.09247  0.37620  1.0000
  Fe  Fe273     1.0  0.86672  0.03092  0.37993  1.0000
  S   S554      1.0  0.84870  0.02276  0.40512  1.0000
  Fe  Fe274     1.0  0.99025  0.28024  0.37807  1.0000
  Fe  Fe275     1.0  0.83201  0.04951  0.39811  1.0000
  S   S555      1.0  0.80307  0.05214  0.40637  1.0000
  Fe  Fe276     1.0  0.86250  0.03566  0.41617  1.0000
  S   S556      1.0  0.87257  0.02213  0.44044  1.0000
  S   S557      1.0  0.84896  0.05690  0.37165  1.0000
  S   S558      1.0  0.88208  0.04147  0.39169  1.0000
  C   C1383     1.0  0.93873  0.24910  0.32836  1.0000
  H   H2225     1.0  0.94860  0.21589  0.32426  1.0000
  C   C1384     1.0  0.77343  0.08493  0.43600  1.0000
  N   N144      1.0  0.94428  0.23312  0.34140  1.0000
  C   C1385     1.0  0.94979  0.21840  0.46991  1.0000
  C   C1386     1.0  0.80843  0.00295  0.32823  1.0000
  H   H2226     1.0  0.77448  0.05165  0.43595  1.0000
  H   H2227     1.0  0.84444  0.01747  0.36967  1.0000
  Fe  Fe277     1.0  0.95689  0.27563  0.40335  1.0000
  H   H2228     1.0  0.92012  0.23713  0.36004  1.0000
  C   C1387     1.0  0.87919  0.03715  0.44747  1.0000
  C   C1388     1.0  0.88754  0.03139  0.46154  1.0000
  C   C1389     1.0  0.89172  0.04352  0.46798  1.0000
  C   C1390     1.0  0.88708  0.06146  0.46072  1.0000
  C   C1391     1.0  0.87935  0.06719  0.44622  1.0000
  C   C1392     1.0  0.87564  0.05499  0.43946  1.0000
  H   H2229     1.0  0.89071  0.01758  0.46757  1.0000
  H   H2230     1.0  0.94778  0.24160  0.42850  1.0000
  H   H2231     1.0  0.87586  0.08104  0.44045  1.0000
  H   H2232     1.0  0.86974  0.05953  0.42826  1.0000
  S   S559      1.0  0.97939  0.13820  0.38922  1.0000
  C   C1393     1.0  0.73092  0.01818  0.44154  1.0000
  C   C1394     1.0  0.72314  0.03603  0.43780  1.0000
  C   C1395     1.0  0.72197  0.04637  0.44940  1.0000
  C   C1396     1.0  0.72888  0.03891  0.46448  1.0000
  C   C1397     1.0  0.73769  0.02137  0.46752  1.0000
  C   C1398     1.0  0.73850  0.01099  0.45619  1.0000
  H   H2233     1.0  0.71714  0.04162  0.42658  1.0000
  S   S560      1.0  0.66374  0.03990  0.29356  1.0000
  C   C1399     1.0  0.92877  0.29870  0.45331  1.0000
  S   S561      1.0  0.98881  0.26257  0.36214  1.0000
  H   H2234     1.0  0.93762  0.22612  0.47664  1.0000
  H   H2235     1.0  0.92285  0.12125  0.45534  1.0000
  C   C1400     1.0  0.93209  0.30612  0.46521  1.0000
  C   C1401     1.0  0.97769  0.20502  0.38853  1.0000
  H   H2236     1.0  0.78950  0.05060  0.46650  1.0000
  H   H2237     1.0  0.67619  0.99940  0.33960  1.0000
  H   H2238     1.0  0.91549  0.29932  0.45302  1.0000
  S   S562      1.0  0.95498  0.17483  0.45561  1.0000
  H   H2239     1.0  0.79515  0.07144  0.45847  1.0000
  S   S563      1.0  0.94668  0.28266  0.34308  1.0000
  C   C1402     1.0  0.77574  0.04746  0.36663  1.0000
  C   C1403     1.0  0.79341  0.04779  0.36179  1.0000
  C   C1404     1.0  0.80199  0.04909  0.37396  1.0000
  C   C1405     1.0  0.79278  0.05050  0.39083  1.0000
  C   C1406     1.0  0.77508  0.05031  0.39558  1.0000
  C   C1407     1.0  0.76664  0.04850  0.38360  1.0000
  H   H2240     1.0  0.80048  0.04694  0.34868  1.0000
  H   H2241     1.0  0.81565  0.04919  0.37022  1.0000
  H   H2242     1.0  0.76784  0.05141  0.40857  1.0000
  H   H2243     1.0  0.75299  0.04827  0.38740  1.0000
  C   C1408     1.0  0.92914  0.09352  0.36489  1.0000
  C   C1409     1.0  0.91629  0.10821  0.36852  1.0000
  C   C1410     1.0  0.89864  0.10766  0.37231  1.0000
  C   C1411     1.0  0.89376  0.09229  0.37304  1.0000
  C   C1412     1.0  0.90666  0.07738  0.37019  1.0000
  C   C1413     1.0  0.92428  0.07809  0.36581  1.0000
  H   H2244     1.0  0.91992  0.12021  0.36768  1.0000
  H   H2245     1.0  0.88873  0.11928  0.37443  1.0000
  H   H2246     1.0  0.90309  0.06548  0.37077  1.0000
  H   H2247     1.0  0.93419  0.06667  0.36309  1.0000
  H   H2248     1.0  0.80480  0.01687  0.32939  1.0000
  H   H2249     1.0  0.70107  0.01801  0.46625  1.0000
  C   C1414     1.0  0.94984  0.19905  0.39019  1.0000
  C   C1415     1.0  0.95798  0.18718  0.37936  1.0000
  C   C1416     1.0  0.97598  0.18416  0.37327  1.0000
  S   S564      1.0  0.98445  0.26149  0.40380  1.0000
  H   H2250     1.0  0.96430  0.11176  0.46304  1.0000
  H   H2251     1.0  0.93593  0.20131  0.39505  1.0000
  H   H2252     1.0  0.75260  0.06263  0.44385  1.0000
  C   C1417     1.0  0.94989  0.15760  0.43382  1.0000
  C   C1418     1.0  0.95121  0.14243  0.42831  1.0000
  H   H2253     1.0  0.75946  0.06530  0.47831  1.0000
  H   H2254     1.0  0.97032  0.28375  0.43313  1.0000
  H   H2255     1.0  0.93624  0.10088  0.46438  1.0000
  H   H2256     1.0  0.94629  0.17036  0.42545  1.0000
  H   H2257     1.0  0.94814  0.14362  0.41591  1.0000
  H   H2258     1.0  0.76753  0.99637  0.33697  1.0000
  H   H2259     1.0  0.94444  0.08428  0.39517  1.0000
  C   C1419     1.0  0.67590  0.03320  0.34703  1.0000
  H   H2260     1.0  0.68220  0.01290  0.46379  1.0000
  C   C1420     1.0  0.94734  0.07764  0.40827  1.0000
  H   H2261     1.0  0.96749  0.22321  0.32393  1.0000
  S   S565      1.0  0.93733  0.28108  0.42747  1.0000
  H   H2262     1.0  0.91178  0.06022  0.42613  1.0000
  H   H2263     1.0  0.94174  0.07501  0.44275  1.0000
  S   S566      1.0  0.98194  0.09961  0.38299  1.0000
  H   H2264     1.0  0.95338  0.21695  0.40331  1.0000
  H   H2265     1.0  0.70157  0.03574  0.33259  1.0000
  N   N145      1.0  0.77233  0.06999  0.45123  1.0000
  H   H2266     1.0  0.92134  0.31252  0.47396  1.0000
  H   H2267     1.0  0.94890  0.25300  0.46062  1.0000
  H   H2268     1.0  0.68106  0.02269  0.48141  1.0000
  H   H2269     1.0  0.97055  0.24082  0.46253  1.0000
  H   H2270     1.0  0.97625  0.29615  0.45500  1.0000
  H   H2271     1.0  0.93954  0.22238  0.44020  1.0000
  C   C1421     1.0  0.96064  0.24432  0.45439  1.0000
  S   S567      1.0  0.99027  0.21601  0.39407  1.0000
  S   S568      1.0  0.89026  0.07659  0.47035  1.0000
  Fe  Fe278     1.0  0.97073  0.16495  0.47627  1.0000
  S   S569      1.0  0.71438  0.99899  0.39072  1.0000
  C   C1422     1.0  0.68880  0.03517  0.33184  1.0000
  C   C1423     1.0  0.68929  0.01301  0.47359  1.0000
  H   H2272     1.0  0.76424  0.04561  0.45844  1.0000
  H   H2273     1.0  0.79004  0.01655  0.41545  1.0000
  S   S570      1.0  0.97308  0.13505  0.35214  1.0000
  N   N146      1.0  0.89682  0.05866  0.33018  1.0000
  C   C1424     1.0  0.88383  0.05008  0.32863  1.0000
  C   C1425     1.0  0.88782  0.07443  0.33721  1.0000
  C   C1426     1.0  0.90781  0.06379  0.31280  1.0000
  C   C1427     1.0  0.90785  0.04631  0.34208  1.0000
  H   H2274     1.0  0.87535  0.05889  0.31962  1.0000
  H   H2275     1.0  0.87524  0.04620  0.34150  1.0000
  H   H2276     1.0  0.89015  0.03787  0.32377  1.0000
  H   H2277     1.0  0.89717  0.08160  0.33806  1.0000
  H   H2278     1.0  0.87886  0.08379  0.32897  1.0000
  H   H2279     1.0  0.87994  0.07102  0.35060  1.0000
  H   H2280     1.0  0.91473  0.05221  0.30705  1.0000
  H   H2281     1.0  0.91783  0.07019  0.31358  1.0000
  H   H2282     1.0  0.89992  0.07322  0.30353  1.0000
  H   H2283     1.0  0.91765  0.05240  0.34381  1.0000
  H   H2284     1.0  0.91489  0.03427  0.33715  1.0000
  H   H2285     1.0  0.89991  0.04194  0.35522  1.0000
  H   H2286     1.0  0.93154  0.24657  0.31991  1.0000
  C   C1428     1.0  0.84982  0.00418  0.36803  1.0000
  H   H2287     1.0  0.77857  0.09503  0.43850  1.0000
  C   C1429     1.0  0.95966  0.28990  0.44212  1.0000
  H   H2288     1.0  0.74445  0.99719  0.45921  1.0000
  C   C1430     1.0  0.76565  0.05690  0.44716  1.0000
  C   C1431     1.0  0.83827  0.03359  0.48289  1.0000
  H   H2289     1.0  0.67117  0.04907  0.25316  1.0000
  H   H2290     1.0  0.94519  0.05369  0.43861  1.0000
  H   H2291     1.0  0.92214  0.30018  0.32175  1.0000
  Fe  Fe279     1.0  0.96595  0.11612  0.40187  1.0000
  H   H2292     1.0  0.96960  0.20577  0.44205  1.0000
  Fe  Fe280     1.0  0.98024  0.24523  0.38803  1.0000
  C   C1432     1.0  0.94916  0.30510  0.46601  1.0000
  H   H2293     1.0  0.76498  0.08619  0.46993  1.0000
  C   C1433     1.0  0.96005  0.12451  0.45495  1.0000
  C   C1434     1.0  0.78982  0.06196  0.45513  1.0000
  C   C1435     1.0  0.95409  0.23713  0.35196  1.0000
  H   H2294     1.0  0.95969  0.22517  0.36094  1.0000
  H   H2295     1.0  0.96060  0.13850  0.47337  1.0000
  H   H2296     1.0  0.96508  0.24311  0.34363  1.0000
  H   H2297     1.0  0.92403  0.06413  0.44886  1.0000
  H   H2298     1.0  0.95936  0.21448  0.47849  1.0000
  H   H2299     1.0  0.89844  0.03893  0.47869  1.0000
  H   H2300     1.0  0.95005  0.25438  0.31979  1.0000
  H   H2301     1.0  0.79914  0.05726  0.44378  1.0000
  N   N147      1.0  0.93138  0.07474  0.42132  1.0000
  H   H2302     1.0  0.94565  0.24653  0.35999  1.0000
  H   H2303     1.0  0.77265  0.01305  0.40825  1.0000
  H   H2304     1.0  0.92460  0.10094  0.42534  1.0000
  H   H2305     1.0  0.95695  0.06512  0.40701  1.0000
  H   H2306     1.0  0.84382  0.03494  0.46866  1.0000
  Fe  Fe281     1.0  0.96087  0.27676  0.36487  1.0000
  H   H2307     1.0  0.96791  0.30908  0.33051  1.0000
  S   S571      1.0  0.96287  0.29591  0.37882  1.0000
  H   H2308     1.0  0.67519  0.06790  0.25688  1.0000
  C   C1436     1.0  0.92356  0.06313  0.41631  1.0000
  H   H2309     1.0  0.96579  0.25227  0.44149  1.0000
  C   C1437     1.0  0.95719  0.31335  0.32387  1.0000
  C   C1438     1.0  0.66841  0.03637  0.31434  1.0000
  H   H2310     1.0  0.76046  0.09132  0.43270  1.0000
  H   H2311     1.0  0.95965  0.20690  0.34204  1.0000
  C   C1439     1.0  0.94246  0.29070  0.44164  1.0000
  C   C1440     1.0  0.95832  0.13967  0.46063  1.0000
  H   H2312     1.0  0.92107  0.22392  0.34534  1.0000
  H   H2313     1.0  0.69488  0.03901  0.30379  1.0000
  C   C1441     1.0  0.98579  0.19314  0.37777  1.0000
  S   S572      1.0  0.95208  0.25783  0.38955  1.0000
  H   H2314     1.0  0.77060  0.01214  0.43082  1.0000
  H   H2315     1.0  0.97754  0.22505  0.43043  1.0000
  H   H2316     1.0  0.93247  0.21496  0.36280  1.0000
  C   C1442     1.0  0.95683  0.12589  0.43863  1.0000
  C   C1443     1.0  0.92878  0.22706  0.35288  1.0000
  C   C1444     1.0  0.93578  0.06653  0.43865  1.0000
  C   C1445     1.0  0.94310  0.23396  0.44178  1.0000
  H   H2317     1.0  0.93006  0.25972  0.33481  1.0000
  H   H2318     1.0  0.83211  0.00945  0.47006  1.0000
  C   C1446     1.0  0.95389  0.15620  0.44980  1.0000
  H   H2319     1.0  0.71525  0.06001  0.44697  1.0000
  C   C1447     1.0  0.77997  0.00871  0.41894  1.0000
  H   H2320     1.0  0.74701  0.08196  0.46421  1.0000
  C   C1448     1.0  0.94508  0.30289  0.32779  1.0000
  C   C1449     1.0  0.67078  0.06326  0.24758  1.0000
  H   H2321     1.0  0.98260  0.17279  0.42008  1.0000
  H   H2322     1.0  0.78509  0.00833  0.35789  1.0000
  C   C1450     1.0  0.83872  0.99368  0.36865  1.0000
  C   C1451     1.0  0.92258  0.10852  0.46494  1.0000
  H   H2323     1.0  0.74321  0.01554  0.47902  1.0000
  H   H2324     1.0  0.92400  0.13397  0.47908  1.0000
  H   H2325     1.0  0.86187  0.00545  0.47532  1.0000
  C   C1452     1.0  0.93150  0.30819  0.31882  1.0000
  H   H2326     1.0  0.98274  0.21354  0.45130  1.0000
  H   H2327     1.0  0.78107  0.00271  0.31604  1.0000
  C   C1453     1.0  0.65929  0.03268  0.34582  1.0000
  H   H2328     1.0  0.66457  0.99848  0.37138  1.0000
  H   H2329     1.0  0.82486  0.99903  0.37063  1.0000
  S   S573      1.0  0.98633  0.18094  0.48082  1.0000
  N   N148      1.0  0.95646  0.22860  0.45246  1.0000
  H   H2330     1.0  0.98231  0.17519  0.36472  1.0000
  N   N149      1.0  0.69391  0.99540  0.48479  1.0000
  N   N150      1.0  0.91417  0.11109  0.48274  1.0000
  H   H2331     1.0  0.73572  0.99172  0.33889  1.0000
  H   H2332     1.0  0.94683  0.20622  0.46901  1.0000
  H   H2333     1.0  0.81119  0.99249  0.40244  1.0000
  C   C1454     1.0  0.77853  0.00287  0.33008  1.0000
  S   S574      1.0  0.72594  0.05131  0.47983  1.0000
  S   S575      1.0  0.95241  0.31492  0.48114  1.0000
  H   H2334     1.0  0.82503  0.04223  0.48441  1.0000
  N   N151      1.0  0.79411  0.99397  0.33759  1.0000
  H   H2335     1.0  0.86355  0.99411  0.43035  1.0000
  Fe  Fe282     1.0  0.73949  0.99526  0.37143  1.0000
  H   H2336     1.0  0.68604  0.99353  0.37529  1.0000
  H   H2337     1.0  0.69748  0.99572  0.34370  1.0000
  H   H2338     1.0  0.88850  0.11357  0.47915  1.0000
  H   H2339     1.0  0.89526  0.13392  0.47387  1.0000
  H   H2340     1.0  0.98788  0.14137  0.42135  1.0000
  C   C1455     1.0  0.89596  0.12084  0.48303  1.0000
  C   C1456     1.0  0.82681  0.00893  0.48422  1.0000
  H   H2341     1.0  0.82035  0.99647  0.33368  1.0000
  H   H2342     1.0  0.99116  0.16812  0.43934  1.0000
  H   H2343     1.0  0.81186  0.00286  0.31411  1.0000
  C   C1457     1.0  0.79002  0.99461  0.35617  1.0000
  H   H2344     1.0  0.96051  0.31890  0.24977  1.0000
  N   N152      1.0  0.78785  0.98975  0.42183  1.0000
  H   H2345     1.0  0.80777  0.99151  0.43345  1.0000
  H   H2346     1.0  0.79376  0.99018  0.39446  1.0000
  H   H2347     1.0  0.81327  0.01698  0.48579  1.0000
  Fe  Fe283     1.0  0.98728  0.30134  0.52557  1.0000
  H   H2348     1.0  0.84229  0.05525  0.58783  1.0000
  H   H2349     1.0  0.95446  0.31929  0.53209  1.0000
  H   H2350     1.0  0.69689  0.04750  0.62349  1.0000
  S   S576      1.0  0.95816  0.15676  0.50427  1.0000
  C   C1458     1.0  0.69358  0.03899  0.63670  1.0000
  Fe  Fe284     1.0  0.97590  0.17074  0.50907  1.0000
  S   S577      1.0  0.96756  0.19052  0.52575  1.0000
  Fe  Fe285     1.0  0.98095  0.13377  0.50446  1.0000
  S   S578      1.0  0.97934  0.10527  0.51281  1.0000
  C   C1459     1.0  0.68272  0.02395  0.60330  1.0000
  C   C1460     1.0  0.91446  0.09384  0.49491  1.0000
  C   C1461     1.0  0.98044  0.20615  0.51882  1.0000
  H   H2351     1.0  0.87272  0.00541  0.53770  1.0000
  C   C1462     1.0  0.98556  0.23337  0.52091  1.0000
  H   H2352     1.0  0.85781  0.04276  0.60125  1.0000
  H   H2353     1.0  0.67456  0.07176  0.63330  1.0000
  C   C1463     1.0  0.68216  0.03748  0.66754  1.0000
  H   H2354     1.0  0.88510  0.05268  0.59738  1.0000
  H   H2355     1.0  0.70539  0.02862  0.63904  1.0000
  H   H2356     1.0  0.86776  0.07012  0.55681  1.0000
  C   C1464     1.0  0.88270  0.06099  0.58451  1.0000
  S   S579      1.0  0.97587  0.28359  0.51744  1.0000
  S   S580      1.0  0.77038  0.01347  0.53437  1.0000
  S   S581      1.0  0.65991  0.05350  0.61256  1.0000
  Fe  Fe286     1.0  0.90114  0.06077  0.53083  1.0000
  S   S582      1.0  0.91376  0.04851  0.50770  1.0000
  S   S583      1.0  0.90975  0.07733  0.54357  1.0000
  Fe  Fe287     1.0  0.86617  0.05306  0.53411  1.0000
  S   S584      1.0  0.78945  0.05598  0.50353  1.0000
  S   S585      1.0  0.83950  0.05418  0.55106  1.0000
  Fe  Fe288     1.0  0.89881  0.02747  0.52190  1.0000
  C   C1465     1.0  0.70069  0.05745  0.65093  1.0000
  H   H2357     1.0  0.83800  0.01915  0.51666  1.0000
  S   S586      1.0  0.88898  0.03798  0.54622  1.0000
  S   S587      1.0  0.87747  0.07644  0.52019  1.0000
  C   C1466     1.0  0.70258  0.04284  0.57443  1.0000
  H   H2358     1.0  0.71254  0.04744  0.65390  1.0000
  S   S588      1.0  0.72714  0.01281  0.56783  1.0000
  C   C1467     1.0  0.82510  0.05510  0.53819  1.0000
  C   C1468     1.0  0.81037  0.04798  0.54562  1.0000
  C   C1469     1.0  0.79921  0.04824  0.53511  1.0000
  C   C1470     1.0  0.67157  0.06298  0.64641  1.0000
  H   H2359     1.0  0.78800  0.04249  0.54081  1.0000
  H   H2360     1.0  0.80774  0.04200  0.55941  1.0000
  H   H2361     1.0  0.86047  0.08895  0.59519  1.0000
  H   H2362     1.0  0.98131  0.24486  0.52634  1.0000
  H   H2363     1.0  0.71024  0.05018  0.56335  1.0000
  C   C1471     1.0  0.67776  0.04222  0.59913  1.0000
  Fe  Fe289     1.0  0.76986  0.03908  0.51473  1.0000
  H   H2364     1.0  0.68366  0.03245  0.63605  1.0000
  H   H2365     1.0  0.96235  0.22373  0.53417  1.0000
  C   C1472     1.0  0.80259  0.05602  0.51728  1.0000
  H   H2366     1.0  0.66930  0.99877  0.50285  1.0000
  C   C1473     1.0  0.92363  0.12096  0.48815  1.0000
  C   C1474     1.0  0.70776  0.02456  0.57897  1.0000
  H   H2367     1.0  0.68394  0.06579  0.58126  1.0000
  Fe  Fe290     1.0  0.88916  0.06260  0.49835  1.0000
  S   S589      1.0  0.73724  0.01044  0.52002  1.0000
  S   S590      1.0  0.74099  0.04909  0.52223  1.0000
  C   C1475     1.0  0.95933  0.09863  0.51976  1.0000
  C   C1476     1.0  0.94429  0.10879  0.52807  1.0000
  C   C1477     1.0  0.92911  0.10220  0.53518  1.0000
  C   C1478     1.0  0.92868  0.08566  0.53355  1.0000
  C   C1479     1.0  0.94347  0.07585  0.52455  1.0000
  C   C1480     1.0  0.95878  0.08222  0.51790  1.0000
  H   H2368     1.0  0.94461  0.12137  0.52975  1.0000
  H   H2369     1.0  0.91776  0.10984  0.54220  1.0000
  H   H2370     1.0  0.94336  0.06302  0.52335  1.0000
  H   H2371     1.0  0.97040  0.07423  0.51159  1.0000
  Fe  Fe291     1.0  0.76635  0.00323  0.51344  1.0000
  H   H2372     1.0  0.69339  0.02676  0.67094  1.0000
  C   C1481     1.0  0.97487  0.22135  0.52541  1.0000
  H   H2373     1.0  0.91750  0.12317  0.50152  1.0000
  H   H2374     1.0  0.88918  0.12292  0.49632  1.0000
  H   H2375     1.0  0.69616  0.06530  0.66112  1.0000
  S   S591      1.0  0.90892  0.99924  0.52022  1.0000
  H   H2376     1.0  0.94423  0.31464  0.51764  1.0000
  H   H2377     1.0  0.66093  0.05719  0.64615  1.0000
  H   H2378     1.0  0.83025  0.00027  0.51772  1.0000
  Fe  Fe292     1.0  0.97662  0.30348  0.49195  1.0000
  N   N153      1.0  0.83777  0.01521  0.49175  1.0000
  H   H2379     1.0  0.66637  0.07118  0.65628  1.0000
  H   H2380     1.0  0.83976  0.06839  0.51457  1.0000
  Fe  Fe293     1.0  0.74108  0.02232  0.54010  1.0000
  C   C1482     1.0  0.85559  0.00424  0.48934  1.0000
  S   S592      1.0  0.97949  0.30706  0.55259  1.0000
  C   C1483     1.0  0.69777  0.01520  0.59342  1.0000
  H   H2381     1.0  0.67721  0.04471  0.67823  1.0000
  N   N154      1.0  0.68700  0.04921  0.65040  1.0000
  H   H2382     1.0  0.84750  0.08235  0.56639  1.0000
  C   C1484     1.0  0.87540  0.99454  0.53157  1.0000
  H   H2383     1.0  0.86742  0.08929  0.56343  1.0000
  C   C1485     1.0  0.86151  0.07771  0.56704  1.0000
  H   H2384     1.0  0.90787  0.09524  0.50841  1.0000
  H   H2385     1.0  0.93428  0.31251  0.54038  1.0000
  H   H2386     1.0  0.84091  0.08173  0.59798  1.0000
  H   H2387     1.0  0.84926  0.99060  0.54050  1.0000
  H   H2388     1.0  0.70459  0.06639  0.63817  1.0000
  H   H2389     1.0  0.88980  0.05322  0.57448  1.0000
  H   H2390     1.0  0.82604  0.99511  0.49081  1.0000
  C   C1486     1.0  0.85510  0.07716  0.59777  1.0000
  H   H2391     1.0  0.85667  0.06932  0.61105  1.0000
  Fe  Fe294     1.0  0.73981  0.03631  0.50171  1.0000
  H   H2392     1.0  0.88887  0.07234  0.58143  1.0000
  C   C1487     1.0  0.81712  0.06344  0.50998  1.0000
  H   H2393     1.0  0.81675  0.02173  0.51288  1.0000
  S   S593      1.0  0.87498  0.04094  0.51101  1.0000
  C   C1488     1.0  0.68770  0.05164  0.58461  1.0000
  H   H2394     1.0  0.86273  0.04320  0.57835  1.0000
  H   H2395     1.0  0.81971  0.06959  0.49623  1.0000
  H   H2396     1.0  0.70168  0.00107  0.59698  1.0000
  S   S594      1.0  0.76848  0.02782  0.49338  1.0000
  H   H2397     1.0  0.67508  0.01649  0.61420  1.0000
  C   C1489     1.0  0.85637  0.05132  0.58821  1.0000
  C   C1490     1.0  0.82849  0.06274  0.52035  1.0000
  N   N155      1.0  0.86392  0.06678  0.58440  1.0000
  H   H2398     1.0  0.71632  0.00009  0.49000  1.0000
  C   C1491     1.0  0.70391  0.99611  0.49707  1.0000
  C   C1492     1.0  0.83038  0.01405  0.51058  1.0000
  H   H2399     1.0  0.67170  0.03121  0.66764  1.0000
  H   H2400     1.0  0.86401  0.00793  0.49572  1.0000
  H   H2401     1.0  0.69652  0.00574  0.50523  1.0000
  C   C1493     1.0  0.94171  0.32058  0.52904  1.0000
  H   H2402     1.0  0.93731  0.11371  0.48846  1.0000
  H   H2403     1.0  0.90772  0.08597  0.49103  1.0000
  H   H2404     1.0  0.92799  0.08616  0.49523  1.0000
  H   H2405     1.0  0.84645  0.03870  0.48830  1.0000
  H   H2406     1.0  0.85559  0.99016  0.49489  1.0000
  H   H2407     1.0  0.97383  0.32127  0.58269  1.0000
  S   S595      1.0  0.98569  0.32214  0.50104  1.0000
  C   C1494     1.0  0.67787  0.98947  0.49477  1.0000
  H   H2408     1.0  0.66936  0.22239  0.97304  1.0000
  S   S596      1.0  0.65979  0.18939  0.98487  1.0000
  H   H2409     1.0  0.65992  0.21159  0.88244  1.0000
  H   H2410     1.0  0.67423  0.22356  0.86558  1.0000
  H   H2411     1.0  0.70136  0.29959  0.98133  1.0000
  H   H2412     1.0  0.66174  0.23247  0.88411  1.0000
  H   H2413     1.0  0.66195  0.25080  0.84577  1.0000
  H   H2414     1.0  0.68814  0.27562  0.98256  1.0000
  H   H2415     1.0  0.72184  0.28463  0.98357  1.0000
  C   C1495     1.0  0.66139  0.22495  0.87477  1.0000
  H   H2416     1.0  0.65930  0.22218  0.84326  1.0000
  H   H2417     1.0  0.65917  0.26699  0.92721  1.0000
  H   H2418     1.0  0.70837  0.26007  0.98454  1.0000
  H   H2419     1.0  0.97799  0.37616  0.16707  1.0000
  H   H2420     1.0  0.93261  0.41171  0.04846  1.0000
  H   H2421     1.0  0.70689  0.54086  0.05915  1.0000
  C   C1496     1.0  0.87539  0.35702  0.06542  1.0000
  S   S597      1.0  0.74647  0.36635  0.02016  1.0000
  Fe  Fe295     1.0  0.74141  0.39561  0.01028  1.0000
  S   S598      1.0  0.73809  0.41512  0.02634  1.0000
  C   C1497     1.0  0.83450  0.51127  0.00410  1.0000
  S   S599      1.0  0.74366  0.55500  0.00385  1.0000
  H   H2422     1.0  0.80141  0.51887  0.00059  1.0000
  H   H2423     1.0  0.97048  0.49598  0.08950  1.0000
  C   C1498     1.0  0.89963  0.33476  0.07459  1.0000
  Fe  Fe296     1.0  0.75608  0.52687  0.01344  1.0000
  S   S600      1.0  0.77235  0.51656  0.03399  1.0000
  C   C1499     1.0  0.81106  0.40714  0.01550  1.0000
  S   S601      1.0  0.73164  0.51696  0.01972  1.0000
  Fe  Fe297     1.0  0.85281  0.53293  0.04682  1.0000
  S   S602      1.0  0.86122  0.51074  0.03354  1.0000
  S   S603      1.0  0.82841  0.55261  0.04113  1.0000
  Fe  Fe298     1.0  0.88478  0.52131  0.06326  1.0000
  S   S604      1.0  0.89620  0.49823  0.05081  1.0000
  S   S605      1.0  0.89347  0.52544  0.08564  1.0000
  Fe  Fe299     1.0  0.88755  0.51649  0.02687  1.0000
  H   H2424     1.0  0.89618  0.42998  0.04264  1.0000
  Fe  Fe300     1.0  0.86915  0.49414  0.05824  1.0000
  S   S606      1.0  0.86591  0.46652  0.06842  1.0000
  S   S607      1.0  0.87876  0.54031  0.03839  1.0000
  S   S608      1.0  0.85796  0.51578  0.07254  1.0000
  Fe  Fe301     1.0  0.86123  0.37881  0.01838  1.0000
  S   S609      1.0  0.88860  0.36542  0.00833  1.0000
  S   S610      1.0  0.84072  0.36425  0.03474  1.0000
  Fe  Fe302     1.0  0.86938  0.41457  0.00670  1.0000
  C   C1500     1.0  0.89055  0.33511  0.04871  1.0000
  C   C1501     1.0  0.74475  0.55323  0.05316  1.0000
  H   H2425     1.0  0.76858  0.42319  0.03222  1.0000
  C   C1502     1.0  0.90714  0.42936  0.03110  1.0000
  Fe  Fe303     1.0  0.89600  0.38303  0.02049  1.0000
  S   S611      1.0  0.91773  0.37215  0.03531  1.0000
  H   H2426     1.0  0.80218  0.49869  0.99536  1.0000
  S   S612      1.0  0.86868  0.39493  0.03210  1.0000
  Fe  Fe304     1.0  0.97333  0.52905  0.11758  1.0000
  C   C1503     1.0  0.67284  0.33112  0.00352  1.0000
  S   S613      1.0  0.96721  0.53193  0.09117  1.0000
  Fe  Fe305     1.0  0.97224  0.54267  0.14894  1.0000
  S   S614      1.0  0.72162  0.39674  0.99546  1.0000
  S   S615      1.0  0.96451  0.56418  0.16343  1.0000
  C   C1504     1.0  0.97836  0.48743  0.08040  1.0000
  H   H2427     1.0  0.97300  0.33445  0.22032  1.0000
  H   H2428     1.0  0.67861  0.33505  0.02620  1.0000
  H   H2429     1.0  0.93445  0.34797  0.21730  1.0000
  N   N156      1.0  0.79209  0.41081  0.01686  1.0000
  S   S616      1.0  0.95416  0.52994  0.14311  1.0000
  H   H2430     1.0  0.96853  0.50049  0.21297  1.0000
  C   C1505     1.0  0.98606  0.38014  0.18849  1.0000
  H   H2431     1.0  0.94086  0.42068  0.01626  1.0000
  Fe  Fe306     1.0  0.95392  0.42477  0.11617  1.0000
  S   S617      1.0  0.93045  0.41454  0.13090  1.0000
  S   S618      1.0  0.95182  0.45364  0.10922  1.0000
  Fe  Fe307     1.0  0.97569  0.38906  0.11297  1.0000
  S   S619      1.0  0.95373  0.37543  0.12724  1.0000
  C   C1506     1.0  0.69619  0.34465  0.00280  1.0000
  Fe  Fe308     1.0  0.93759  0.39814  0.11111  1.0000
  S   S620      1.0  0.91381  0.40117  0.10069  1.0000
  Fe  Fe309     1.0  0.94844  0.39315  0.14557  1.0000
  S   S621      1.0  0.96005  0.41010  0.09517  1.0000
  S   S622      1.0  0.97143  0.40501  0.13261  1.0000
  H   H2432     1.0  0.93850  0.43045  0.05056  1.0000
  N   N157      1.0  0.88451  0.33849  0.06647  1.0000
  C   C1507     1.0  0.73867  0.47058  0.99349  1.0000
  S   S623      1.0  0.76489  0.52082  0.98686  1.0000
  N   N158      1.0  0.88024  0.57768  0.06559  1.0000
  H   H2433     1.0  0.91486  0.45333  0.12681  1.0000
  C   C1508     1.0  0.78773  0.42143  0.00003  1.0000
  H   H2434     1.0  0.82850  0.52553  0.00254  1.0000
  H   H2435     1.0  0.89172  0.57191  0.04024  1.0000
  C   C1509     1.0  0.95734  0.47300  0.15393  1.0000
  C   C1510     1.0  0.95749  0.45531  0.15638  1.0000
  C   C1511     1.0  0.95484  0.44933  0.14299  1.0000
  C   C1512     1.0  0.95212  0.46105  0.12722  1.0000
  C   C1513     1.0  0.95078  0.47886  0.12532  1.0000
  C   C1514     1.0  0.95353  0.48478  0.13858  1.0000
  C   C1515     1.0  0.73873  0.44020  0.99573  1.0000
  H   H2436     1.0  0.95520  0.43565  0.14482  1.0000
  C   C1516     1.0  0.95754  0.46276  0.21476  1.0000
  C   C1517     1.0  0.93576  0.43457  0.01742  1.0000
  C   C1518     1.0  0.95774  0.55560  0.18577  1.0000
  C   C1519     1.0  0.96112  0.56243  0.19810  1.0000
  C   C1520     1.0  0.95693  0.55476  0.21595  1.0000
  H   H2437     1.0  0.81829  0.39972  0.00520  1.0000
  C   C1521     1.0  0.94459  0.53441  0.20924  1.0000
  C   C1522     1.0  0.94959  0.54148  0.19135  1.0000
  H   H2438     1.0  0.96730  0.57344  0.19382  1.0000
  H   H2439     1.0  0.70582  0.55606  0.08181  1.0000
  C   C1523     1.0  0.71685  0.57157  0.04843  1.0000
  H   H2440     1.0  0.94681  0.53626  0.18186  1.0000
  H   H2441     1.0  0.72081  0.57212  0.03415  1.0000
  H   H2442     1.0  0.89685  0.57978  0.08096  1.0000
  H   H2443     1.0  0.94683  0.46867  0.20745  1.0000
  H   H2444     1.0  0.96226  0.35617  0.21124  1.0000
  S   S624      1.0  0.86039  0.44346  0.00321  1.0000
  H   H2445     1.0  0.95293  0.49851  0.13672  1.0000
  S   S625      1.0  0.98998  0.54435  0.12240  1.0000
  C   C1524     1.0  0.78295  0.42044  0.03078  1.0000
  C   C1525     1.0  0.97384  0.38116  0.17885  1.0000
  C   C1526     1.0  0.94860  0.54077  0.22154  1.0000
  C   C1527     1.0  0.91638  0.37983  0.05382  1.0000
  C   C1528     1.0  0.90126  0.39095  0.06070  1.0000
  C   C1529     1.0  0.90054  0.39703  0.07536  1.0000
  C   C1530     1.0  0.91501  0.39223  0.08310  1.0000
  C   C1531     1.0  0.93014  0.38107  0.07631  1.0000
  C   C1532     1.0  0.93076  0.37478  0.06175  1.0000
  H   H2446     1.0  0.89014  0.39507  0.05467  1.0000
  H   H2447     1.0  0.88883  0.40575  0.08054  1.0000
  H   H2448     1.0  0.94136  0.37734  0.08223  1.0000
  H   H2449     1.0  0.94251  0.36615  0.05649  1.0000
  C   C1533     1.0  0.89498  0.56955  0.05322  1.0000
  H   H2450     1.0  0.86094  0.57216  0.05576  1.0000
  C   C1534     1.0  0.66638  0.58678  0.02054  1.0000
  C   C1535     1.0  0.96585  0.49045  0.20785  1.0000
  H   H2451     1.0  0.94803  0.48807  0.11342  1.0000
  H   H2452     1.0  0.80559  0.49851  0.01619  1.0000
  C   C1536     1.0  0.87270  0.53446  0.98895  1.0000
  C   C1537     1.0  0.91447  0.52616  0.08682  1.0000
  C   C1538     1.0  0.91728  0.52628  0.10299  1.0000
  C   C1539     1.0  0.93343  0.52780  0.10452  1.0000
  C   C1540     1.0  0.94688  0.52947  0.08981  1.0000
  C   C1541     1.0  0.94414  0.52920  0.07362  1.0000
  C   C1542     1.0  0.92802  0.52743  0.07213  1.0000
  H   H2453     1.0  0.90689  0.52528  0.11444  1.0000
  H   H2454     1.0  0.93537  0.52791  0.11705  1.0000
  H   H2455     1.0  0.95450  0.53047  0.06217  1.0000
  H   H2456     1.0  0.92602  0.52735  0.05960  1.0000
  C   C1543     1.0  0.86524  0.45914  0.05053  1.0000
  C   C1544     1.0  0.87192  0.46774  0.03365  1.0000
  C   C1545     1.0  0.87029  0.46297  0.01915  1.0000
  C   C1546     1.0  0.86247  0.44912  0.02149  1.0000
  C   C1547     1.0  0.85649  0.43990  0.03835  1.0000
  C   C1548     1.0  0.85782  0.44496  0.05291  1.0000
  H   H2457     1.0  0.87870  0.47789  0.03170  1.0000
  H   H2458     1.0  0.87540  0.46982  0.00614  1.0000
  H   H2459     1.0  0.85029  0.42927  0.04021  1.0000
  H   H2460     1.0  0.85275  0.43818  0.06597  1.0000
  C   C1549     1.0  0.78807  0.52690  0.03511  1.0000
  C   C1550     1.0  0.80025  0.51747  0.04548  1.0000
  C   C1551     1.0  0.81287  0.52520  0.04699  1.0000
  C   C1552     1.0  0.81312  0.54261  0.03851  1.0000
  C   C1553     1.0  0.80096  0.55209  0.02806  1.0000
  C   C1554     1.0  0.78860  0.54416  0.02613  1.0000
  H   H2461     1.0  0.79993  0.50410  0.05243  1.0000
  H   H2462     1.0  0.82214  0.51781  0.05513  1.0000
  H   H2463     1.0  0.80119  0.56553  0.02139  1.0000
  H   H2464     1.0  0.77937  0.55149  0.01796  1.0000
  C   C1555     1.0  0.73774  0.43655  0.01372  1.0000
  Fe  Fe310     1.0  0.76730  0.36549  0.99585  1.0000
  H   H2465     1.0  0.88416  0.36584  0.05745  1.0000
  H   H2466     1.0  0.86092  0.32978  0.07117  1.0000
  C   C1556     1.0  0.73772  0.46696  0.01147  1.0000
  C   C1557     1.0  0.73725  0.44994  0.02158  1.0000
  H   H2467     1.0  0.72653  0.54234  0.08533  1.0000
  Fe  Fe311     1.0  0.73938  0.51331  0.99227  1.0000
  H   H2468     1.0  0.86818  0.55564  0.07366  1.0000
  C   C1558     1.0  0.82849  0.35958  0.02268  1.0000
  C   C1559     1.0  0.83344  0.36228  0.00450  1.0000
  C   C1560     1.0  0.78658  0.39411  0.02111  1.0000
  H   H2469     1.0  0.84526  0.36669  0.99774  1.0000
  H   H2470     1.0  0.78990  0.38559  0.03357  1.0000
  H   H2471     1.0  0.88880  0.56018  0.08836  1.0000
  H   H2472     1.0  0.87072  0.36016  0.07854  1.0000
  H   H2473     1.0  0.73722  0.47727  0.01760  1.0000
  Fe  Fe312     1.0  0.71955  0.54498  0.00848  1.0000
  H   H2474     1.0  0.95535  0.49706  0.20039  1.0000
  H   H2475     1.0  0.87951  0.33829  0.04199  1.0000
  H   H2476     1.0  0.83240  0.50531  0.01836  1.0000
  Fe  Fe313     1.0  0.72832  0.36723  0.00323  1.0000
  H   H2477     1.0  0.93141  0.44223  0.00511  1.0000
  H   H2478     1.0  0.93550  0.37163  0.22967  1.0000
  Fe  Fe314     1.0  0.97203  0.50493  0.15345  1.0000
  H   H2479     1.0  0.90414  0.45627  0.04539  1.0000
  H   H2480     1.0  0.91003  0.46292  0.02201  1.0000
  H   H2481     1.0  0.70247  0.57305  0.05184  1.0000
  C   C1561     1.0  0.96308  0.39316  0.20979  1.0000
  H   H2482     1.0  0.77232  0.39623  0.02259  1.0000
  N   N159      1.0  0.82709  0.50287  0.99486  1.0000
  S   S626      1.0  0.90209  0.51340  1.00000  1.0000
  H   H2483     1.0  0.74938  0.55322  0.03904  1.0000
  H   H2484     1.0  0.90896  0.34315  0.06677  1.0000
  C   C1562     1.0  0.66085  0.60655  0.99311  1.0000
  H   H2485     1.0  0.90185  0.43700  0.01931  1.0000
  H   H2486     1.0  0.93782  0.52384  0.21354  1.0000
  H   H2487     1.0  0.96014  0.44617  0.16835  1.0000
  C   C1563     1.0  0.80825  0.50483  0.00203  1.0000
  N   N160      1.0  0.96092  0.47578  0.22212  1.0000
  H   H2488     1.0  0.94680  0.43950  0.01825  1.0000
  H   H2489     1.0  0.93722  0.39927  0.20494  1.0000
  C   C1564     1.0  0.86513  0.57003  0.06823  1.0000
  H   H2490     1.0  0.87361  0.47940  0.11374  1.0000
  H   H2491     1.0  0.84980  0.48213  0.99188  1.0000
  H   H2492     1.0  0.90673  0.57473  0.05119  1.0000
  H   H2493     1.0  0.73645  0.44717  0.03550  1.0000
  C   C1565     1.0  0.83556  0.48409  0.99727  1.0000
  H   H2494     1.0  0.88668  0.60294  0.05619  1.0000
  C   C1566     1.0  0.82320  0.35899  0.99503  1.0000
  H   H2495     1.0  0.90866  0.45766  0.08208  1.0000
  C   C1567     1.0  0.98063  0.38588  0.20415  1.0000
  H   H2496     1.0  0.91164  0.41545  0.02992  1.0000
  H   H2497     1.0  0.86392  0.36036  0.05929  1.0000
  H   H2498     1.0  0.72797  0.52728  0.06210  1.0000
  C   C1568     1.0  0.91497  0.45470  0.03386  1.0000
  H   H2499     1.0  0.86448  0.60333  0.06741  1.0000
  H   H2500     1.0  0.97765  0.48583  0.19829  1.0000
  H   H2501     1.0  0.89560  0.33737  0.08794  1.0000
  S   S627      1.0  0.89745  0.40435  0.99622  1.0000
  H   H2502     1.0  0.99128  0.53162  0.20550  1.0000
  S   S628      1.0  0.85917  0.39986  0.99397  1.0000
  C   C1569     1.0  0.72013  0.55478  0.07737  1.0000
  C   C1570     1.0  0.93797  0.33847  0.22933  1.0000
  H   H2503     1.0  0.83372  0.47737  0.01135  1.0000
  H   H2504     1.0  0.83030  0.47720  0.99059  1.0000
  N   N161      1.0  0.92139  0.43612  0.03280  1.0000
  H   H2505     1.0  0.92540  0.46027  0.03507  1.0000
  H   H2506     1.0  0.79103  0.34621  0.02858  1.0000
  C   C1571     1.0  0.68226  0.33671  0.01216  1.0000
  H   H2507     1.0  0.72481  0.54028  0.04106  1.0000
  S   S629      1.0  0.96350  0.48032  0.16907  1.0000
  H   H2508     1.0  0.81579  0.41941  0.01227  1.0000
  H   H2509     1.0  0.81481  0.39900  0.02796  1.0000
  H   H2510     1.0  0.86755  0.32943  0.09055  1.0000
  H   H2511     1.0  0.98777  0.45842  0.10440  1.0000
  C   C1572     1.0  0.68656  0.58249  0.99357  1.0000
  H   H2512     1.0  0.87551  0.45846  0.10931  1.0000
  H   H2513     1.0  0.97352  0.35258  0.22840  1.0000
  C   C1573     1.0  0.92770  0.42580  0.04881  1.0000
  H   H2514     1.0  0.96919  0.45751  0.20541  1.0000
  C   C1574     1.0  0.80285  0.35068  0.02185  1.0000
  H   H2515     1.0  0.87163  0.59964  0.04566  1.0000
  H   H2516     1.0  0.89869  0.55513  0.05809  1.0000
  H   H2517     1.0  0.85377  0.57581  0.07753  1.0000
  H   H2518     1.0  0.79287  0.38675  0.01064  1.0000
  C   C1575     1.0  0.88145  0.47005  0.10542  1.0000
  H   H2519     1.0  0.89596  0.44484  0.13021  1.0000
  H   H2520     1.0  0.88007  0.47658  0.09177  1.0000
  H   H2521     1.0  0.90001  0.34319  0.04049  1.0000
  C   C1576     1.0  0.87555  0.59675  0.05840  1.0000
  C   C1577     1.0  0.68171  0.57729  0.01171  1.0000
  C   C1578     1.0  0.81331  0.35356  0.03136  1.0000
  H   H2522     1.0  0.80947  0.35137  0.04543  1.0000
  H   H2523     1.0  0.91715  0.42663  0.06068  1.0000
  C   C1579     1.0  0.87244  0.32716  0.07708  1.0000
  C   C1580     1.0  0.88531  0.57444  0.08248  1.0000
  H   H2524     1.0  0.69828  0.57526  0.98664  1.0000
  H   H2525     1.0  0.95999  0.55982  0.22534  1.0000
  C   C1581     1.0  0.80780  0.35340  0.00367  1.0000
  H   H2526     1.0  0.87456  0.58045  0.09214  1.0000
  H   H2527     1.0  0.71979  0.58312  0.05072  1.0000
  H   H2528     1.0  0.74881  0.56414  0.05548  1.0000
  H   H2529     1.0  0.78595  0.41275  0.04365  1.0000
  C   C1582     1.0  0.95616  0.38768  0.18502  1.0000
  H   H2530     1.0  0.90029  0.49057  0.10874  1.0000
  N   N162      1.0  0.89987  0.46495  0.10687  1.0000
  C   C1583     1.0  0.90112  0.45697  0.12527  1.0000
  H   H2531     1.0  0.90665  0.48707  0.08696  1.0000
  H   H2532     1.0  0.72343  0.56577  0.08040  1.0000
  H   H2533     1.0  0.92120  0.47742  0.10171  1.0000
  C   C1584     1.0  0.95086  0.39393  0.20033  1.0000
  C   C1585     1.0  0.90733  0.48066  0.10080  1.0000
  C   C1586     1.0  0.72115  0.54014  0.05518  1.0000
  H   H2534     1.0  0.90442  0.44000  0.10042  1.0000
  H   H2535     1.0  0.75189  0.54068  0.06033  1.0000
  S   S630      1.0  0.69465  0.55910  0.02361  1.0000
  S   S631      1.0  0.70772  0.35104  0.01455  1.0000
  S   S632      1.0  0.94039  0.38659  0.17480  1.0000
  N   N163      1.0  0.72573  0.55495  0.05855  1.0000
  H   H2536     1.0  0.95884  0.39821  0.22144  1.0000
  H   H2537     1.0  0.89374  0.46616  0.13390  1.0000
  H   H2538     1.0  0.86983  0.53943  0.00062  1.0000
  H   H2539     1.0  0.92359  0.44813  0.09664  1.0000
  C   C1587     1.0  0.90958  0.45215  0.09600  1.0000
  C   C1588     1.0  0.94504  0.48249  0.23429  1.0000
  H   H2540     1.0  0.93406  0.48914  0.22750  1.0000
  H   H2541     1.0  0.98679  0.47735  0.11174  1.0000
  H   H2542     1.0  0.95381  0.45148  0.22521  1.0000
  H   H2543     1.0  0.97119  0.47720  0.08194  1.0000
  H   H2544     1.0  0.78661  0.43323  0.02795  1.0000
  H   H2545     1.0  0.97885  0.49569  0.06694  1.0000
  H   H2546     1.0  0.66251  0.58282  0.03457  1.0000
  S   S633      1.0  0.98831  0.51762  0.16170  1.0000
  C   C1589     1.0  0.96517  0.34707  0.22362  1.0000
  H   H2547     1.0  0.94472  0.32572  0.22572  1.0000
  S   S634      1.0  0.79489  0.34990  0.99156  1.0000
  H   H2548     1.0  0.77353  0.42414  0.00061  1.0000
  H   H2549     1.0  0.98754  0.46267  0.22275  1.0000
  H   H2550     1.0  0.84877  0.50988  0.99910  1.0000
  H   H2551     1.0  0.66195  0.32536  0.01094  1.0000
  C   C1590     1.0  0.97521  0.46738  0.23163  1.0000
  H   H2552     1.0  0.98799  0.41683  0.17351  1.0000
  H   H2553     1.0  0.79445  0.41455  0.98923  1.0000
  H   H2554     1.0  0.73915  0.42995  0.98956  1.0000
  S   S635      1.0  0.76390  0.39455  0.98756  1.0000
  S   S636      1.0  0.99011  0.50320  0.12775  1.0000
  H   H2555     1.0  0.79144  0.43428  0.99647  1.0000
  H   H2556     1.0  0.99146  0.43061  0.14154  1.0000
  Fe  Fe315     1.0  0.98527  0.50657  0.28331  1.0000
  H   H2557     1.0  0.92072  0.58712  0.24311  1.0000
  Fe  Fe316     1.0  0.96936  0.54416  0.28687  1.0000
  S   S637      1.0  0.96416  0.62865  0.36366  1.0000
  H   H2558     1.0  0.94802  0.47049  0.27174  1.0000
  H   H2559     1.0  0.96142  0.60604  0.33185  1.0000
  N   N164      1.0  0.91832  0.57853  0.27100  1.0000
  C   C1591     1.0  0.95345  0.33192  0.25257  1.0000
  H   H2560     1.0  0.96924  0.61322  0.44448  1.0000
  S   S638      1.0  0.95778  0.52193  0.28780  1.0000
  H   H2561     1.0  0.91894  0.32805  0.29970  1.0000
  H   H2562     1.0  0.94433  0.59241  0.32065  1.0000
  S   S639      1.0  0.95633  0.39431  0.25652  1.0000
  H   H2563     1.0  0.91822  0.56400  0.29753  1.0000
  C   C1592     1.0  0.92143  0.56186  0.28402  1.0000
  S   S640      1.0  0.96691  0.38240  0.29491  1.0000
  C   C1593     1.0  0.95559  0.32910  0.31094  1.0000
  Fe  Fe317     1.0  0.95897  0.37006  0.27792  1.0000
  S   S641      1.0  0.93869  0.35411  0.28630  1.0000
  Fe  Fe318     1.0  0.96701  0.40575  0.27220  1.0000
  H   H2564     1.0  0.97216  0.45584  0.24204  1.0000
  H   H2565     1.0  0.96504  0.55062  0.39870  1.0000
  C   C1594     1.0  0.96591  0.34484  0.34512  1.0000
  H   H2566     1.0  0.89595  0.59030  0.28810  1.0000
  H   H2567     1.0  0.98045  0.34581  0.37076  1.0000
  H   H2568     1.0  0.91376  0.55274  0.28367  1.0000
  H   H2569     1.0  0.98255  0.36941  0.34421  1.0000
  Fe  Fe319     1.0  0.98412  0.38370  0.24509  1.0000
  C   C1595     1.0  0.95823  0.58750  0.31921  1.0000
  C   C1596     1.0  0.98771  0.33617  0.36259  1.0000
  C   C1597     1.0  0.97696  0.55585  0.39547  1.0000
  H   H2570     1.0  0.92635  0.59252  0.28507  1.0000
  H   H2571     1.0  0.92761  0.36038  0.25154  1.0000
  H   H2572     1.0  0.98712  0.54821  0.38662  1.0000
  C   C1598     1.0  0.95940  0.46400  0.27722  1.0000
  S   S642      1.0  0.98585  0.35840  0.26514  1.0000
  C   C1599     1.0  0.96787  0.59521  0.32556  1.0000
  C   C1600     1.0  0.96653  0.57350  0.31094  1.0000
  H   H2573     1.0  0.94716  0.49217  0.24034  1.0000
  S   S643      1.0  0.95420  0.56380  0.30334  1.0000
  H   H2574     1.0  0.96354  0.48796  0.27971  1.0000
  C   C1601     1.0  0.94168  0.33449  0.30230  1.0000
  H   H2575     1.0  0.98158  0.55324  0.40779  1.0000
  C   C1602     1.0  0.97972  0.43747  0.28733  1.0000
  H   H2576     1.0  0.96184  0.33636  0.25836  1.0000
  N   N165      1.0  0.98459  0.34242  0.34463  1.0000
  N   N166      1.0  0.97351  0.57474  0.38726  1.0000
  H   H2577     1.0  0.96447  0.58290  0.41168  1.0000
  H   H2578     1.0  0.96491  0.59176  0.36432  1.0000
  H   H2579     1.0  0.94159  0.33012  0.26287  1.0000
  C   C1603     1.0  0.97568  0.62402  0.43871  1.0000
  C   C1604     1.0  0.92918  0.58987  0.27180  1.0000
  C   C1605     1.0  0.96812  0.47392  0.28188  1.0000
  H   H2580     1.0  0.98739  0.36453  0.32313  1.0000
  S   S644      1.0  0.95471  0.43412  0.27234  1.0000
  C   C1606     1.0  0.98581  0.58873  0.32390  1.0000
  C   C1607     1.0  0.96534  0.44581  0.27962  1.0000
  H   H2581     1.0  0.93533  0.55506  0.28156  1.0000
  H   H2582     1.0  0.96302  0.35002  0.33181  1.0000
  C   C1608     1.0  0.98242  0.46564  0.28967  1.0000
  S   S645      1.0  0.97898  0.61607  0.40733  1.0000
  H   H2583     1.0  0.97287  0.63046  0.46337  1.0000
  Fe  Fe320     1.0  0.97644  0.65243  0.48339  1.0000
  C   C1609     1.0  0.98984  0.35930  0.33659  1.0000
  H   H2584     1.0  0.94767  0.36710  0.24632  1.0000
  H   H2585     1.0  0.94327  0.58356  0.26896  1.0000
  H   H2586     1.0  0.96508  0.33703  0.30758  1.0000
  C   C1610     1.0  0.92971  0.32397  0.30629  1.0000
  H   H2587     1.0  0.89696  0.60006  0.26527  1.0000
  H   H2588     1.0  0.94770  0.58003  0.40300  1.0000
  H   H2589     1.0  0.95519  0.57317  0.37349  1.0000
  C   C1611     1.0  0.89978  0.58741  0.27486  1.0000
  S   S646      1.0  0.94320  0.53101  0.24379  1.0000
  H   H2590     1.0  0.95770  0.35425  0.35323  1.0000
  Fe  Fe321     1.0  0.96260  0.53084  0.25869  1.0000
  S   S647      1.0  0.97196  0.55425  0.25793  1.0000
  H   H2591     1.0  0.98425  0.42342  0.28940  1.0000
  H   H2592     1.0  0.96161  0.33224  0.35064  1.0000
  C   C1612     1.0  0.96742  0.57765  0.37098  1.0000
  H   H2593     1.0  0.92714  0.60266  0.26227  1.0000
  C   C1613     1.0  0.98807  0.44739  0.29262  1.0000
  C   C1614     1.0  0.96009  0.58446  0.39943  1.0000
  H   H2594     1.0  0.97731  0.57059  0.36145  1.0000
  H   H2595     1.0  0.94083  0.47165  0.24506  1.0000
  H   H2596     1.0  0.95718  0.59879  0.39362  1.0000
  C   C1615     1.0  0.97769  0.63380  0.44940  1.0000
  H   H2597     1.0  0.93678  0.56815  0.25009  1.0000
  H   H2598     1.0  0.97759  0.47658  0.23808  1.0000
  H   H2599     1.0  0.91517  0.56610  0.25236  1.0000
  H   H2600     1.0  0.89125  0.57915  0.27442  1.0000
  C   C1616     1.0  0.98177  0.62830  0.42059  1.0000
  Fe  Fe322     1.0  0.98272  0.62967  0.37892  1.0000
  C   C1617     1.0  0.93952  0.36173  0.24120  1.0000
  C   C1618     1.0  0.92289  0.57489  0.25337  1.0000
  C   C1619     1.0  0.98449  0.56728  0.30905  1.0000
  C   C1620     1.0  0.98595  0.64780  0.44199  1.0000
  S   S648      1.0  0.98917  0.51367  0.25420  1.0000
  H   H2601     1.0  0.92563  0.33670  0.23883  1.0000
  C   C1621     1.0  0.99012  0.64225  0.41324  1.0000
  H   H2602     1.0  0.98729  0.59529  0.37729  1.0000
  Fe  Fe323     1.0  0.98826  0.62111  0.34379  1.0000
  S   S649      1.0  0.98855  0.64880  0.32897  1.0000
  C   C1622     1.0  0.98967  0.58106  0.38312  1.0000
  H   H2603     1.0  0.98356  0.32363  0.36916  1.0000
  H   H2604     1.0  0.99102  0.55655  0.30269  1.0000
  N   N167      1.0  0.94903  0.34478  0.23669  1.0000
  H   H2605     1.0  0.90670  0.57877  0.57353  1.0000
  H   H2606     1.0  0.94658  0.60768  0.58745  1.0000
  H   H2607     1.0  0.95847  0.50315  0.56193  1.0000
  C   C1623     1.0  0.97098  0.43604  0.68587  1.0000
  S   S650      1.0  0.95463  0.44834  0.60459  1.0000
  H   H2608     1.0  0.96999  0.56423  0.69223  1.0000
  C   C1624     1.0  0.91892  0.58271  0.56765  1.0000
  C   C1625     1.0  0.95788  0.37001  0.68398  1.0000
  C   C1626     1.0  0.94949  0.62094  0.58244  1.0000
  C   C1627     1.0  0.92879  0.34619  0.54108  1.0000
  H   H2609     1.0  0.90743  0.33244  0.53143  1.0000
  N   N168      1.0  0.97122  0.42661  0.67274  1.0000
  C   C1628     1.0  0.91981  0.57610  0.73558  1.0000
  H   H2610     1.0  0.92764  0.52803  0.60330  1.0000
  H   H2611     1.0  0.94409  0.37041  0.68803  1.0000
  C   C1629     1.0  0.97985  0.34214  0.53988  1.0000
  H   H2612     1.0  0.93608  0.36325  0.50721  1.0000
  S   S651      1.0  0.95449  0.37056  0.65128  1.0000
  C   C1630     1.0  0.97588  0.36238  0.55831  1.0000
  C   C1631     1.0  0.95806  0.41584  0.67979  1.0000
  C   C1632     1.0  0.97033  0.48273  0.62045  1.0000
  Fe  Fe324     1.0  0.98229  0.38243  0.72829  1.0000
  C   C1633     1.0  0.93693  0.59839  0.54290  1.0000
  S   S652      1.0  0.95151  0.52564  0.62872  1.0000
  C   C1634     1.0  0.97810  0.32844  0.55459  1.0000
  H   H2613     1.0  0.97405  0.42679  0.69817  1.0000
  C   C1635     1.0  0.92141  0.59281  0.55057  1.0000
  H   H2614     1.0  0.96185  0.48138  0.73333  1.0000
  Fe  Fe325     1.0  0.97862  0.55793  0.62620  1.0000
  H   H2615     1.0  0.96803  0.52645  0.56868  1.0000
  H   H2616     1.0  0.94767  0.47191  0.62685  1.0000
  C   C1636     1.0  0.93211  0.57760  0.57707  1.0000
  S   S653      1.0  0.92825  0.56452  0.59831  1.0000
  S   S654      1.0  0.98303  0.62713  0.50277  1.0000
  S   S655      1.0  0.95176  0.40106  0.60477  1.0000
  H   H2617     1.0  0.94234  0.53430  0.55530  1.0000
  C   C1637     1.0  0.97529  0.33176  0.57121  1.0000
  C   C1638     1.0  0.94790  0.58273  0.56932  1.0000
  H   H2618     1.0  0.94021  0.62950  0.59093  1.0000
  S   S656      1.0  0.97785  0.55021  0.60215  1.0000
  C   C1639     1.0  0.98498  0.45938  0.59832  1.0000
  C   C1640     1.0  0.94300  0.34931  0.51067  1.0000
  H   H2619     1.0  0.95824  0.57847  0.57645  1.0000
  C   C1641     1.0  0.96077  0.47153  0.61921  1.0000
  C   C1642     1.0  0.95022  0.59340  0.55230  1.0000
  H   H2620     1.0  0.95427  0.44834  0.65922  1.0000
  C   C1643     1.0  0.96724  0.43936  0.65663  1.0000
  H   H2621     1.0  0.95808  0.49149  0.58415  1.0000
  H   H2622     1.0  0.94640  0.34391  0.49876  1.0000
  H   H2623     1.0  0.95484  0.53721  0.58567  1.0000
  Fe  Fe326     1.0  0.96730  0.42041  0.60297  1.0000
  N   N169      1.0  0.93230  0.33909  0.52539  1.0000
  H   H2624     1.0  0.97807  0.59595  0.57415  1.0000
  Fe  Fe327     1.0  0.98021  0.52289  0.61903  1.0000
  C   C1644     1.0  0.96719  0.37036  0.69598  1.0000
  C   C1645     1.0  0.95904  0.52449  0.58164  1.0000
  Fe  Fe328     1.0  0.94936  0.55347  0.61369  1.0000
  H   H2625     1.0  0.95537  0.34917  0.51391  1.0000
  Fe  Fe329     1.0  0.95428  0.63183  0.51365  1.0000
  C   C1646     1.0  0.98413  0.36895  0.66148  1.0000
  H   H2626     1.0  0.94109  0.34525  0.54502  1.0000
  H   H2627     1.0  0.98221  0.33979  0.52703  1.0000
  H   H2628     1.0  0.91080  0.57180  0.73049  1.0000
  Fe  Fe330     1.0  0.96713  0.38385  0.62477  1.0000
  H   H2629     1.0  0.96664  0.51499  0.59112  1.0000
  C   C1647     1.0  0.95741  0.52854  0.72095  1.0000
  C   C1648     1.0  0.95017  0.50157  0.57530  1.0000
  C   C1649     1.0  0.96631  0.36958  0.66665  1.0000
  H   H2630     1.0  0.98910  0.40747  0.65916  1.0000
  H   H2631     1.0  0.91117  0.59653  0.54333  1.0000
  H   H2632     1.0  0.95997  0.55306  0.67237  1.0000
  H   H2633     1.0  0.96062  0.37094  0.70929  1.0000
  C   C1650     1.0  0.95925  0.54618  0.68588  1.0000
  C   C1651     1.0  0.98500  0.36990  0.69069  1.0000
  C   C1652     1.0  0.96497  0.55247  0.69713  1.0000
  C   C1653     1.0  0.96402  0.54368  0.71465  1.0000
  N   N170      1.0  0.96772  0.62040  0.58222  1.0000
  C   C1654     1.0  0.93407  0.53155  0.56860  1.0000
  C   C1655     1.0  0.95214  0.53135  0.69225  1.0000
  S   S657      1.0  0.94421  0.52399  0.67838  1.0000
  C   C1656     1.0  0.95124  0.52252  0.70978  1.0000
  H   H2634     1.0  0.92275  0.52723  0.56759  1.0000
  C   C1657     1.0  0.93258  0.51565  0.59857  1.0000
  H   H2635     1.0  0.94592  0.51093  0.71466  1.0000
  N   N171      1.0  0.94397  0.51831  0.58102  1.0000
  Fe  Fe331     1.0  0.97440  0.38982  0.58532  1.0000
  S   S658      1.0  0.94989  0.56328  0.63653  1.0000
  S   S659      1.0  0.93948  0.61060  0.52121  1.0000
  H   H2636     1.0  0.96240  0.59733  0.54620  1.0000
  Fe  Fe332     1.0  0.95517  0.53501  0.65041  1.0000
  H   H2637     1.0  0.98492  0.61158  0.60027  1.0000
  C   C1658     1.0  0.97432  0.34867  0.57307  1.0000
  H   H2638     1.0  0.97996  0.36957  0.53025  1.0000
  S   S660      1.0  0.98848  0.41098  0.58170  1.0000
  H   H2639     1.0  0.96216  0.64683  0.58547  1.0000
  C   C1659     1.0  0.97119  0.61251  0.59995  1.0000
  H   H2640     1.0  0.96057  0.40625  0.69207  1.0000
  S   S661      1.0  0.97059  0.55243  0.72845  1.0000
  S   S662      1.0  0.95401  0.64725  0.53254  1.0000
  C   C1660     1.0  0.96795  0.46004  0.60795  1.0000
  S   S663      1.0  0.97427  0.38390  0.55987  1.0000
  H   H2641     1.0  0.96710  0.43267  0.64652  1.0000
  H   H2642     1.0  0.97205  0.35115  0.58593  1.0000
  S   S664      1.0  0.98411  0.53035  0.64185  1.0000
  S   S665      1.0  0.98837  0.37077  0.60555  1.0000
  H   H2643     1.0  0.95686  0.52154  0.73440  1.0000
  H   H2644     1.0  0.93917  0.49614  0.57526  1.0000
  H   H2645     1.0  0.94473  0.42403  0.68280  1.0000
  H   H2646     1.0  0.96817  0.64473  0.56319  1.0000
  H   H2647     1.0  0.95811  0.40823  0.67037  1.0000
  S   S666      1.0  0.98100  0.40402  0.62425  1.0000
  C   C1661     1.0  0.97864  0.35904  0.54173  1.0000
  H   H2648     1.0  0.93317  0.57193  0.72791  1.0000
  H   H2649     1.0  0.90821  0.35396  0.51793  1.0000
  H   H2650     1.0  0.97708  0.61510  0.55654  1.0000
  H   H2651     1.0  0.92894  0.54421  0.57281  1.0000
  H   H2652     1.0  0.96484  0.49114  0.62953  1.0000
  Fe  Fe333     1.0  0.98231  0.64425  0.52019  1.0000
  C   C1662     1.0  0.98683  0.48310  0.60988  1.0000
  H   H2653     1.0  0.96267  0.62027  0.60954  1.0000
  H   H2654     1.0  0.92109  0.51094  0.59861  1.0000
  H   H2655     1.0  0.93961  0.50581  0.60831  1.0000
  H   H2656     1.0  0.95800  0.44467  0.68948  1.0000
  H   H2657     1.0  0.92065  0.33887  0.55243  1.0000
  H   H2658     1.0  0.94659  0.62600  0.56912  1.0000
  H   H2659     1.0  0.99059  0.45053  0.58957  1.0000
  H   H2660     1.0  0.98065  0.44442  0.68102  1.0000
  H   H2661     1.0  0.91815  0.33497  0.50883  1.0000
  H   H2662     1.0  0.96891  0.59899  0.60472  1.0000
  H   H2663     1.0  0.92191  0.36024  0.53877  1.0000
  C   C1663     1.0  0.91576  0.34019  0.52072  1.0000
  S   S667      1.0  0.96518  0.44636  0.72910  1.0000
  H   H2664     1.0  0.98444  0.63839  0.57591  1.0000
  H   H2665     1.0  0.97702  0.44761  0.65079  1.0000
  H   H2666     1.0  0.99076  0.36831  0.64821  1.0000
  S   S668      1.0  0.95581  0.40032  0.73231  1.0000
  C   C1664     1.0  0.98859  0.41513  0.66869  1.0000
  H   H2667     1.0  0.91655  0.59066  0.73273  1.0000
  C   C1665     1.0  0.97955  0.60972  0.57001  1.0000
  C   C1666     1.0  0.97071  0.63838  0.57652  1.0000
  S   S669      1.0  0.94768  0.65565  0.49251  1.0000
  H   H2668     1.0  0.78719  0.49072  0.93847  1.0000
  H   H2669     1.0  0.68245  0.32670  0.93172  1.0000
  H   H2670     1.0  0.79207  0.33971  0.94132  1.0000
  S   S670      1.0  0.89068  0.41981  0.83806  1.0000
  H   H2671     1.0  0.67608  0.63317  0.92203  1.0000
  S   S671      1.0  0.92915  0.54199  0.80872  1.0000
  Fe  Fe334     1.0  0.72215  0.41949  0.85404  1.0000
  S   S672      1.0  0.70649  0.42729  0.87887  1.0000
  S   S673      1.0  0.74557  0.43139  0.84231  1.0000
  Fe  Fe335     1.0  0.69484  0.40139  0.85223  1.0000
  S   S674      1.0  0.67710  0.40844  0.87659  1.0000
  S   S675      1.0  0.68793  0.38509  0.83793  1.0000
  Fe  Fe336     1.0  0.68399  0.43462  0.86593  1.0000
  C   C1667     1.0  0.66970  0.47876  0.90680  1.0000
  Fe  Fe337     1.0  0.70149  0.40025  0.88672  1.0000
  S   S676      1.0  0.70071  0.38266  0.91321  1.0000
  S   S677      1.0  0.69967  0.42854  0.84045  1.0000
  S   S678      1.0  0.71914  0.39159  0.86308  1.0000
  Fe  Fe338     1.0  0.69958  0.55307  0.86524  1.0000
  S   S679      1.0  0.71984  0.56280  0.87119  1.0000
  S   S680      1.0  0.68788  0.56495  0.84150  1.0000
  Fe  Fe339     1.0  0.70032  0.52201  0.89634  1.0000
  S   S681      1.0  0.72015  0.52930  0.90553  1.0000
  S   S682      1.0  0.68955  0.49823  0.91128  1.0000
  Fe  Fe340     1.0  0.70482  0.55692  0.89878  1.0000
  S   S683      1.0  0.69754  0.57562  0.91650  1.0000
  Fe  Fe341     1.0  0.73335  0.53441  0.87729  1.0000
  S   S684      1.0  0.76145  0.52165  0.86930  1.0000
  S   S685      1.0  0.68351  0.54916  0.89238  1.0000
  S   S686      1.0  0.71458  0.52516  0.86856  1.0000
  S   S687      1.0  0.76048  0.56360  0.95156  1.0000
  Fe  Fe342     1.0  0.87106  0.51083  0.89735  1.0000
  S   S688      1.0  0.84631  0.50664  0.89427  1.0000
  S   S689      1.0  0.89560  0.49757  0.88119  1.0000
  Fe  Fe343     1.0  0.85274  0.52830  0.92787  1.0000
  S   S690      1.0  0.82676  0.52478  0.92747  1.0000
  S   S691      1.0  0.85034  0.54344  0.94786  1.0000
  Fe  Fe344     1.0  0.84075  0.49819  0.92341  1.0000
  S   S692      1.0  0.83021  0.47423  0.93698  1.0000
  Fe  Fe345     1.0  0.83462  0.53377  0.89854  1.0000
  S   S693      1.0  0.81420  0.55457  0.88626  1.0000
  S   S694      1.0  0.86620  0.50052  0.92653  1.0000
  S   S695      1.0  0.85990  0.53905  0.89898  1.0000
  Fe  Fe346     1.0  0.86603  0.41232  0.85513  1.0000
  S   S696      1.0  0.84153  0.42426  0.84484  1.0000
  C   C1668     1.0  0.67212  0.58472  0.84134  1.0000
  Fe  Fe347     1.0  0.84687  0.39608  0.89078  1.0000
  S   S697      1.0  0.82091  0.40652  0.88343  1.0000
  S   S698      1.0  0.84492  0.38096  0.91853  1.0000
  Fe  Fe348     1.0  0.83453  0.39842  0.85839  1.0000
  S   S699      1.0  0.82084  0.38485  0.84774  1.0000
  Fe  Fe349     1.0  0.83015  0.43114  0.87087  1.0000
  S   S700      1.0  0.81256  0.45687  0.87447  1.0000
  S   S701      1.0  0.85519  0.42162  0.88015  1.0000
  C   C1669     1.0  0.82290  0.46894  0.92128  1.0000
  C   C1670     1.0  0.81559  0.48239  0.90866  1.0000
  C   C1671     1.0  0.81145  0.47845  0.89490  1.0000
  C   C1672     1.0  0.81502  0.46114  0.89342  1.0000
  C   C1673     1.0  0.82173  0.44758  0.90639  1.0000
  C   C1674     1.0  0.82551  0.45148  0.92045  1.0000
  H   H2672     1.0  0.81336  0.49589  0.90931  1.0000
  H   H2673     1.0  0.80616  0.48883  0.88499  1.0000
  H   H2674     1.0  0.82415  0.43409  0.90555  1.0000
  H   H2675     1.0  0.83100  0.44098  0.93027  1.0000
  C   C1675     1.0  0.86501  0.53494  0.96203  1.0000
  C   C1676     1.0  0.87998  0.52196  0.95855  1.0000
  C   C1677     1.0  0.89148  0.51550  0.97011  1.0000
  H   H2676     1.0  0.70785  0.46023  0.92421  1.0000
  H   H2677     1.0  0.97639  0.40619  0.83751  1.0000
  C   C1678     1.0  0.88784  0.52171  0.98536  1.0000
  H   H2678     1.0  0.88291  0.51717  0.94678  1.0000
  H   H2679     1.0  0.90320  0.50567  0.96726  1.0000
  H   H2680     1.0  0.73910  0.48041  0.85504  1.0000
  H   H2681     1.0  0.67946  0.35601  0.93645  1.0000
  C   C1679     1.0  0.71523  0.57481  0.92506  1.0000
  C   C1680     1.0  0.73228  0.57074  0.91558  1.0000
  C   C1681     1.0  0.74635  0.56894  0.92314  1.0000
  C   C1682     1.0  0.74333  0.57045  0.94042  1.0000
  C   C1683     1.0  0.72632  0.57544  0.94949  1.0000
  C   C1684     1.0  0.71227  0.57775  0.94179  1.0000
  H   H2682     1.0  0.73459  0.56883  0.90249  1.0000
  H   H2683     1.0  0.75948  0.56566  0.91590  1.0000
  C   C1685     1.0  0.70589  0.44728  0.93260  1.0000
  H   H2684     1.0  0.69913  0.58092  0.94916  1.0000
  C   C1686     1.0  0.77611  0.53195  0.87243  1.0000
  C   C1687     1.0  0.79379  0.52387  0.86987  1.0000
  C   C1688     1.0  0.80554  0.53064  0.87428  1.0000
  C   C1689     1.0  0.79975  0.54610  0.88035  1.0000
  C   C1690     1.0  0.78222  0.55479  0.88191  1.0000
  C   C1691     1.0  0.77031  0.54751  0.87834  1.0000
  H   H2685     1.0  0.79835  0.51234  0.86448  1.0000
  H   H2686     1.0  0.81914  0.52415  0.87255  1.0000
  H   H2687     1.0  0.77776  0.56694  0.88628  1.0000
  H   H2688     1.0  0.75670  0.55395  0.88010  1.0000
  H   H2689     1.0  0.68011  0.60091  0.97031  1.0000
  C   C1692     1.0  0.96055  0.43230  0.80218  1.0000
  C   C1693     1.0  0.68139  0.35393  0.90376  1.0000
  H   H2690     1.0  0.83114  0.39335  0.80835  1.0000
  H   H2691     1.0  0.74015  0.45990  0.97171  1.0000
  C   C1694     1.0  0.67237  0.47035  0.87979  1.0000
  C   C1695     1.0  0.68647  0.47839  0.87214  1.0000
  C   C1696     1.0  0.69188  0.48704  0.88168  1.0000
  C   C1697     1.0  0.68342  0.48730  0.89901  1.0000
  H   H2692     1.0  0.82421  0.52550  0.97374  1.0000
  C   C1698     1.0  0.67618  0.59704  0.98433  1.0000
  H   H2693     1.0  0.69312  0.47804  0.85880  1.0000
  H   H2694     1.0  0.70272  0.49323  0.87570  1.0000
  H   H2695     1.0  0.93111  0.56845  0.77466  1.0000
  H   H2696     1.0  0.66079  0.52434  0.88868  1.0000
  C   C1699     1.0  0.71479  0.38815  0.92231  1.0000
  C   C1700     1.0  0.71310  0.38406  0.94039  1.0000
  C   C1701     1.0  0.72319  0.39010  0.94773  1.0000
  C   C1702     1.0  0.73477  0.40038  0.93696  1.0000
  C   C1703     1.0  0.73686  0.40400  0.91886  1.0000
  C   C1704     1.0  0.72700  0.39766  0.91152  1.0000
  H   H2697     1.0  0.74606  0.41165  0.91051  1.0000
  H   H2698     1.0  0.72888  0.40014  0.89751  1.0000
  C   C1705     1.0  0.76624  0.41800  0.84413  1.0000
  C   C1706     1.0  0.78015  0.42598  0.84115  1.0000
  C   C1707     1.0  0.79678  0.41579  0.84268  1.0000
  C   C1708     1.0  0.79979  0.39753  0.84647  1.0000
  C   C1709     1.0  0.78600  0.38948  0.84909  1.0000
  C   C1710     1.0  0.76915  0.39972  0.84822  1.0000
  H   H2699     1.0  0.77808  0.44008  0.83763  1.0000
  H   H2700     1.0  0.80734  0.42210  0.84055  1.0000
  C   C1711     1.0  0.92009  0.52944  0.82888  1.0000
  C   C1712     1.0  0.90406  0.53686  0.83849  1.0000
  C   C1713     1.0  0.89650  0.52725  0.85461  1.0000
  C   C1714     1.0  0.90493  0.51012  0.86119  1.0000
  C   C1715     1.0  0.92085  0.50260  0.85147  1.0000
  C   C1716     1.0  0.92845  0.51224  0.83539  1.0000
  H   H2701     1.0  0.89753  0.55015  0.83353  1.0000
  H   H2702     1.0  0.88421  0.53315  0.86194  1.0000
  H   H2703     1.0  0.92743  0.48934  0.85648  1.0000
  H   H2704     1.0  0.94079  0.50641  0.82806  1.0000
  H   H2705     1.0  0.75850  0.39348  0.85040  1.0000
  C   C1717     1.0  0.92161  0.40646  0.79385  1.0000
  C   C1718     1.0  0.91279  0.41556  0.80708  1.0000
  H   H2706     1.0  0.77844  0.50181  0.90918  1.0000
  H   H2707     1.0  0.66979  0.60471  0.90925  1.0000
  H   H2708     1.0  0.92921  0.41285  0.78202  1.0000
  H   H2709     1.0  0.91396  0.42881  0.80551  1.0000
  C   C1719     1.0  0.96955  0.47207  0.74224  1.0000
  C   C1720     1.0  0.90950  0.38152  0.81077  1.0000
  C   C1721     1.0  0.98644  0.40908  0.80300  1.0000
  H   H2710     1.0  0.70914  0.42060  0.96093  1.0000
  N   N172      1.0  0.91880  0.56850  0.75447  1.0000
  H   H2711     1.0  0.86839  0.42201  0.95799  1.0000
  C   C1722     1.0  0.80442  0.59966  0.92616  1.0000
  N   N173      1.0  0.80658  0.58123  0.92561  1.0000
  C   C1723     1.0  0.79316  0.57991  0.91736  1.0000
  C   C1724     1.0  0.82402  0.57505  0.91536  1.0000
  C   C1725     1.0  0.80475  0.57031  0.94358  1.0000
  C   C1726     1.0  0.98367  0.44233  0.75368  1.0000
  C   C1727     1.0  0.69138  0.34106  0.97598  1.0000
  C   C1728     1.0  0.67090  0.52770  0.85422  1.0000
  H   H2712     1.0  0.95690  0.42323  0.83711  1.0000
  H   H2713     1.0  0.83453  0.57548  0.92137  1.0000
  H   H2714     1.0  0.86705  0.37582  0.96989  1.0000
  C   C1729     1.0  0.78153  0.37492  0.93176  1.0000
  H   H2715     1.0  0.84421  0.50960  0.97019  1.0000
  H   H2716     1.0  0.77984  0.58558  0.92403  1.0000
  C   C1730     1.0  0.98948  0.44804  0.76525  1.0000
  H   H2717     1.0  0.79178  0.57470  0.95175  1.0000
  H   H2718     1.0  0.98702  0.42868  0.75352  1.0000
  Fe  Fe350     1.0  0.99116  0.38681  0.76040  1.0000
  N   N174      1.0  0.76666  0.51292  0.93173  1.0000
  C   C1731     1.0  0.76543  0.50765  0.91630  1.0000
  C   C1732     1.0  0.74915  0.52142  0.94012  1.0000
  C   C1733     1.0  0.77817  0.52538  0.92623  1.0000
  C   C1734     1.0  0.77385  0.49728  0.94424  1.0000
  H   H2719     1.0  0.75951  0.51909  0.90692  1.0000
  H   H2720     1.0  0.75719  0.49791  0.92003  1.0000
  H   H2721     1.0  0.74956  0.52572  0.95174  1.0000
  H   H2722     1.0  0.74327  0.53322  0.93103  1.0000
  H   H2723     1.0  0.74010  0.51239  0.94460  1.0000
  H   H2724     1.0  0.79159  0.51938  0.92015  1.0000
  H   H2725     1.0  0.77887  0.53016  0.93746  1.0000
  H   H2726     1.0  0.77338  0.53699  0.91639  1.0000
  H   H2727     1.0  0.77448  0.50075  0.95625  1.0000
  H   H2728     1.0  0.76560  0.48748  0.94848  1.0000
  H   H2729     1.0  0.73783  0.47150  0.89377  1.0000
  C   C1735     1.0  0.67004  0.33157  0.92699  1.0000
  H   H2730     1.0  0.79143  0.60469  0.93394  1.0000
  H   H2731     1.0  0.80606  0.55636  0.94364  1.0000
  C   C1736     1.0  0.80403  0.37453  0.94587  1.0000
  H   H2732     1.0  0.77626  0.45195  0.88682  1.0000
  H   H2733     1.0  0.80560  0.60825  0.91280  1.0000
  H   H2734     1.0  0.80824  0.33990  0.95241  1.0000
  S   S702      1.0  0.93020  0.37803  0.77887  1.0000
  C   C1737     1.0  0.86283  0.38583  0.78755  1.0000
  C   C1738     1.0  0.67270  0.62136  0.93176  1.0000
  H   H2735     1.0  0.67304  0.45817  0.94883  1.0000
  H   H2736     1.0  0.77532  0.44385  0.86898  1.0000
  H   H2737     1.0  0.68041  0.52991  0.86036  1.0000
  H   H2738     1.0  0.86559  0.46147  0.92139  1.0000
  C   C1739     1.0  0.97523  0.47781  0.75400  1.0000
  H   H2739     1.0  0.77124  0.37689  0.94356  1.0000
  C   C1740     1.0  0.90043  0.39074  0.82391  1.0000
  H   H2740     1.0  0.68496  0.47459  0.94555  1.0000
  H   H2741     1.0  0.85371  0.37178  0.82210  1.0000
  H   H2742     1.0  0.66312  0.47892  0.92018  1.0000
  H   H2743     1.0  0.66364  0.59040  0.94091  1.0000
  H   H2744     1.0  0.67443  0.51363  0.85375  1.0000
  Fe  Fe351     1.0  0.74994  0.54802  0.97782  1.0000
  C   C1741     1.0  0.88429  0.38535  0.94621  1.0000
  S   S703      1.0  0.99014  0.47200  0.78227  1.0000
  C   C1742     1.0  0.86142  0.54117  0.97724  1.0000
  N   N175      1.0  0.86958  0.47527  0.85678  1.0000
  C   C1743     1.0  0.87573  0.46668  0.87322  1.0000
  C   C1744     1.0  0.87508  0.49208  0.84926  1.0000
  C   C1745     1.0  0.85042  0.47850  0.86035  1.0000
  C   C1746     1.0  0.87708  0.46371  0.84430  1.0000
  H   H2745     1.0  0.89014  0.46433  0.87102  1.0000
  H   H2746     1.0  0.87197  0.45386  0.87914  1.0000
  H   H2747     1.0  0.87021  0.47498  0.88299  1.0000
  H   H2748     1.0  0.87060  0.49901  0.83688  1.0000
  H   H2749     1.0  0.86982  0.50104  0.85843  1.0000
  H   H2750     1.0  0.88950  0.49007  0.84640  1.0000
  H   H2751     1.0  0.84591  0.46605  0.86609  1.0000
  H   H2752     1.0  0.84525  0.48482  0.84824  1.0000
  H   H2753     1.0  0.84419  0.48714  0.86973  1.0000
  H   H2754     1.0  0.87298  0.46982  0.83161  1.0000
  H   H2755     1.0  0.87283  0.45108  0.84949  1.0000
  H   H2756     1.0  0.89154  0.46051  0.84161  1.0000
  H   H2757     1.0  0.87559  0.37478  0.81655  1.0000
  H   H2758     1.0  0.68201  0.34699  0.89360  1.0000
  S   S704      1.0  0.86002  0.38564  0.86665  1.0000
  H   H2759     1.0  0.70368  0.37665  0.94873  1.0000
  C   C1747     1.0  0.90203  0.40780  0.82203  1.0000
  H   H2760     1.0  0.78828  0.37535  0.85202  1.0000
  C   C1748     1.0  0.66679  0.59379  0.82570  1.0000
  C   C1749     1.0  0.67025  0.37489  0.84824  1.0000
  C   C1750     1.0  0.76730  0.45124  0.87906  1.0000
  H   H2761     1.0  0.88415  0.46310  0.94887  1.0000
  C   C1751     1.0  0.86827  0.40824  0.79798  1.0000
  H   H2762     1.0  0.66474  0.37448  0.92658  1.0000
  C   C1752     1.0  0.67132  0.43196  0.81068  1.0000
  H   H2763     1.0  0.85864  0.38813  0.82941  1.0000
  H   H2764     1.0  0.68388  0.61007  0.92979  1.0000
  H   H2765     1.0  0.69177  0.43096  0.97586  1.0000
  C   C1753     1.0  0.71287  0.45289  0.95712  1.0000
  H   H2766     1.0  0.96804  0.44257  0.79948  1.0000
  H   H2767     1.0  0.82593  0.56132  0.91447  1.0000
  H   H2768     1.0  0.82427  0.35458  0.92372  1.0000
  H   H2769     1.0  0.85365  0.43878  0.94610  1.0000
  H   H2770     1.0  0.77965  0.47175  0.84910  1.0000
  H   H2771     1.0  0.72551  0.44314  0.95564  1.0000
  H   H2772     1.0  0.79496  0.58682  0.90335  1.0000
  C   C1754     1.0  0.79602  0.34762  0.94802  1.0000
  H   H2773     1.0  0.75796  0.44333  0.88787  1.0000
  C   C1755     1.0  0.86927  0.37958  0.95582  1.0000
  S   S705      1.0  0.74977  0.36403  0.97972  1.0000
  N   N176      1.0  0.85802  0.39477  0.80215  1.0000
  H   H2774     1.0  0.75388  0.46078  0.85001  1.0000
  H   H2775     1.0  0.82594  0.58297  0.90171  1.0000
  H   H2776     1.0  0.94708  0.43743  0.80892  1.0000
  Fe  Fe352     1.0  0.95575  0.53086  0.79388  1.0000
  H   H2777     1.0  0.73695  0.45943  0.86914  1.0000
  C   C1756     1.0  0.98477  0.46570  0.76587  1.0000
  H   H2778     1.0  0.79431  0.37692  0.95793  1.0000
  H   H2779     1.0  0.77687  0.36817  0.92443  1.0000
  H   H2780     1.0  0.67144  0.62349  0.94498  1.0000
  H   H2781     1.0  0.68745  0.42633  0.95733  1.0000
  S   S706      1.0  0.97952  0.36705  0.75604  1.0000
  N   N177      1.0  0.69970  0.44807  0.95120  1.0000
  S   S707      1.0  0.97022  0.55057  0.77521  1.0000
  C   C1757     1.0  0.66689  0.36010  0.93206  1.0000
  H   H2782     1.0  0.81350  0.37476  0.91167  1.0000
  H   H2783     1.0  0.70871  0.45345  0.97116  1.0000
  H   H2784     1.0  0.89241  0.38456  0.83556  1.0000
  H   H2785     1.0  0.98621  0.40780  0.78987  1.0000
  C   C1758     1.0  0.69683  0.43077  0.96179  1.0000
  H   H2786     1.0  0.90000  0.56862  0.77859  1.0000
  H   H2787     1.0  0.86975  0.42290  0.93553  1.0000
  C   C1759     1.0  0.88729  0.38984  0.92794  1.0000
  H   H2788     1.0  0.81444  0.60110  0.93220  1.0000
  H   H2789     1.0  0.83589  0.41294  0.79298  1.0000
  H   H2790     1.0  0.81490  0.57069  0.95009  1.0000
  S   S708      1.0  0.95660  0.51732  0.77323  1.0000
  C   C1760     1.0  0.92001  0.38940  0.79566  1.0000
  H   H2791     1.0  0.86583  0.41453  0.80914  1.0000
  Fe  Fe353     1.0  0.96941  0.41724  0.73876  1.0000
  H   H2792     1.0  0.92284  0.54300  0.77163  1.0000
  H   H2793     1.0  0.72395  0.57706  0.96269  1.0000
  H   H2794     1.0  0.88258  0.44506  0.91245  1.0000
  C   C1761     1.0  0.66426  0.59109  0.85652  1.0000
  C   C1762     1.0  0.93114  0.57437  0.76055  1.0000
  S   S709      1.0  0.73923  0.49163  0.98029  1.0000
  H   H2795     1.0  0.90839  0.36825  0.81229  1.0000
  N   N178      1.0  0.66719  0.35054  0.91903  1.0000
  H   H2796     1.0  0.76482  0.49202  0.85266  1.0000
  C   C1763     1.0  0.92333  0.54921  0.75751  1.0000
  H   H2797     1.0  0.84579  0.37349  0.95462  1.0000
  H   H2798     1.0  0.80756  0.35478  0.91315  1.0000
  C   C1764     1.0  0.87892  0.45343  0.92210  1.0000
  H   H2799     1.0  0.69508  0.34269  0.96195  1.0000
  H   H2800     1.0  0.67278  0.58891  0.81395  1.0000
  C   C1765     1.0  0.81144  0.36206  0.92057  1.0000
  N   N179      1.0  0.79825  0.36479  0.93655  1.0000
  Fe  Fe354     1.0  0.97289  0.53571  0.75517  1.0000
  C   C1766     1.0  0.86015  0.38285  0.92893  1.0000
  H   H2801     1.0  0.80617  0.38742  0.93749  1.0000
  H   H2802     1.0  0.89870  0.42405  0.95353  1.0000
  H   H2803     1.0  0.87747  0.39217  0.90518  1.0000
  C   C1767     1.0  0.85729  0.37819  0.94717  1.0000
  H   H2804     1.0  0.89711  0.58870  0.76231  1.0000
  H   H2805     1.0  0.97203  0.49155  0.75393  1.0000
  H   H2806     1.0  0.65949  0.32859  0.93853  1.0000
  C   C1768     1.0  0.87511  0.38879  0.91929  1.0000
  C   C1769     1.0  0.74651  0.46735  0.86089  1.0000
  H   H2807     1.0  0.74131  0.49186  0.87915  1.0000
  H   H2808     1.0  0.72153  0.38725  0.96175  1.0000
  H   H2809     1.0  0.88787  0.46258  0.91783  1.0000
  C   C1770     1.0  0.97345  0.45421  0.74239  1.0000
  N   N180      1.0  0.75824  0.46891  0.87103  1.0000
  C   C1771     1.0  0.74797  0.47834  0.88485  1.0000
  C   C1772     1.0  0.77118  0.47878  0.85932  1.0000
  C   C1773     1.0  0.66856  0.36107  0.84224  1.0000
  H   H2810     1.0  0.67278  0.53558  0.84054  1.0000
  H   H2811     1.0  0.78587  0.34921  0.96002  1.0000
  S   S710      1.0  0.74616  0.40916  0.94624  1.0000
  H   H2812     1.0  0.67858  0.35613  0.83198  1.0000
  Fe  Fe355     1.0  0.95403  0.38651  0.76069  1.0000
  H   H2813     1.0  0.82443  0.50533  0.96872  1.0000
  H   H2814     1.0  0.89899  0.39418  0.92048  1.0000
  H   H2815     1.0  0.66832  0.58416  0.86865  1.0000
  H   H2816     1.0  0.75643  0.47965  0.89279  1.0000
  H   H2817     1.0  0.78260  0.38816  0.92349  1.0000
  S   S711      1.0  0.96552  0.40492  0.76735  1.0000
  C   C1774     1.0  0.83929  0.40318  0.80485  1.0000
  H   H2818     1.0  0.95701  0.39990  0.80413  1.0000
  H   H2819     1.0  0.81653  0.36715  0.94984  1.0000
  H   H2820     1.0  0.86515  0.41874  0.78645  1.0000
  H   H2821     1.0  0.66439  0.41739  0.84458  1.0000
  H   H2822     1.0  0.79359  0.56602  0.91790  1.0000
  H   H2823     1.0  0.95977  0.43076  0.78931  1.0000
  H   H2824     1.0  0.93667  0.54454  0.75022  1.0000
  H   H2825     1.0  0.67814  0.46228  0.96719  1.0000
  H   H2826     1.0  0.71529  0.46594  0.94951  1.0000
  N   N181      1.0  0.87970  0.44268  0.93991  1.0000
  Fe  Fe356     1.0  0.98180  0.50098  0.78017  1.0000
  C   C1775     1.0  0.86731  0.43111  0.94510  1.0000
  Fe  Fe357     1.0  0.88738  0.38801  0.98509  1.0000
  H   H2827     1.0  0.85536  0.37554  0.79030  1.0000
  S   S712      1.0  0.89902  0.38775  0.95693  1.0000
  C   C1776     1.0  0.86170  0.38179  0.81822  1.0000
  S   S713      1.0  0.66504  0.46019  0.86773  1.0000
  H   H2828     1.0  0.92795  0.58884  0.75882  1.0000
  H   H2829     1.0  0.88247  0.40250  0.79486  1.0000
  H   H2830     1.0  0.86169  0.46246  0.95252  1.0000
  H   H2831     1.0  0.86025  0.39521  0.77518  1.0000
  H   H2832     1.0  0.90728  0.44016  0.93573  1.0000
  H   H2833     1.0  0.87692  0.37934  0.78520  1.0000
  C   C1777     1.0  0.87507  0.45419  0.95232  1.0000
  C   C1778     1.0  0.89750  0.43192  0.94015  1.0000
  H   H2834     1.0  0.83527  0.41007  0.81578  1.0000
  H   H2835     1.0  0.77984  0.48077  0.86667  1.0000
  H   H2836     1.0  0.94472  0.40702  0.82358  1.0000
  H   H2837     1.0  0.71846  0.43758  0.93050  1.0000
  H   H2838     1.0  0.96401  0.38974  0.82426  1.0000
  C   C1779     1.0  0.95817  0.40252  0.81636  1.0000
  C   C1780     1.0  0.83007  0.51119  0.97605  1.0000
  H   H2839     1.0  0.67643  0.44287  0.81159  1.0000
  Fe  Fe358     1.0  0.74469  0.39333  0.97352  1.0000
  H   H2840     1.0  0.90114  0.42245  0.93157  1.0000
  H   H2841     1.0  0.97775  0.42845  0.82705  1.0000
  H   H2842     1.0  0.67112  0.43348  0.79675  1.0000
  N   N182      1.0  0.96878  0.41559  0.81270  1.0000
  H   H2843     1.0  0.89134  0.56985  0.76015  1.0000
  C   C1781     1.0  0.90100  0.57419  0.76429  1.0000
  H   H2844     1.0  0.94467  0.57058  0.75316  1.0000
  S   S714      1.0  0.72482  0.54026  0.98160  1.0000
  S   S715      1.0  0.97997  0.51303  0.80242  1.0000
  C   C1782     1.0  0.67741  0.33315  0.98540  1.0000
  H   H2845     1.0  0.84986  0.55120  0.98002  1.0000
  H   H2846     1.0  0.69425  0.34969  0.90758  1.0000
  H   H2847     1.0  0.87548  0.44641  0.96588  1.0000
  H   H2848     1.0  0.67968  0.36816  0.89753  1.0000
  H   H2849     1.0  0.69643  0.44334  0.92776  1.0000
  H   H2850     1.0  0.71144  0.35290  0.97727  1.0000
  C   C1783     1.0  0.70070  0.34685  0.98462  1.0000
  H   H2851     1.0  0.67050  0.32386  0.91755  1.0000
  C   C1784     1.0  0.97000  0.41849  0.82935  1.0000
  H   H2852     1.0  0.82716  0.36089  0.98100  1.0000
  C   C1785     1.0  0.68322  0.46134  0.95331  1.0000
  H   H2853     1.0  0.68091  0.41955  0.81447  1.0000
  S   S716      1.0  0.66642  0.32531  0.97424  1.0000
  C   C1786     1.0  0.73926  0.45716  0.98564  1.0000
  H   H2854     1.0  0.91434  0.54422  0.75306  1.0000
  C   C1787     1.0  0.66405  0.47050  0.89715  1.0000
  H   H2855     1.0  0.66074  0.62765  0.90218  1.0000
  H   H2856     1.0  0.65919  0.44068  0.84205  1.0000
  C   C1788     1.0  0.65856  0.61561  0.91226  1.0000
  H   H2857     1.0  0.67014  0.72353  0.99432  1.0000
  H   H2858     1.0  0.67698  0.97332  0.18795  1.0000
  H   H2859     1.0  0.66361  0.75359  0.99896  1.0000
  H   H2860     1.0  0.66522  0.96264  0.09212  1.0000
  H   H2861     1.0  0.67121  0.96754  0.16172  1.0000
  C   C1789     1.0  0.66319  0.98058  0.19038  1.0000
  H   H2862     1.0  0.65893  0.98036  0.20459  1.0000
  H   H2863     1.0  0.66138  0.93353  0.09295  1.0000
  H   H2864     1.0  0.66697  0.94652  0.19000  1.0000
  C   C1790     1.0  0.95292  0.79708  0.45167  1.0000
  S   S717      1.0  0.95426  0.76472  0.36148  1.0000
  C   C1791     1.0  0.66853  0.96950  0.35968  1.0000
  C   C1792     1.0  0.84546  0.97642  0.36663  1.0000
  H   H2865     1.0  0.69267  0.94861  0.29309  1.0000
  C   C1793     1.0  0.95603  0.78996  0.43715  1.0000
  S   S718      1.0  0.92566  0.77434  0.39639  1.0000
  C   C1794     1.0  0.77745  0.95594  0.47085  1.0000
  S   S719      1.0  0.94519  0.68060  0.34592  1.0000
  H   H2866     1.0  0.87882  0.85556  0.31024  1.0000
  S   S720      1.0  0.95488  0.79826  0.37625  1.0000
  H   H2867     1.0  0.71838  0.90371  0.29053  1.0000
  H   H2868     1.0  0.86609  0.83967  0.32242  1.0000
  C   C1795     1.0  0.70472  0.94086  0.26139  1.0000
  S   S721      1.0  0.91390  0.80621  0.35545  1.0000
  H   H2869     1.0  0.87862  0.84666  0.33296  1.0000
  H   H2870     1.0  0.86926  0.87641  0.33909  1.0000
  H   H2871     1.0  0.67305  0.96180  0.34939  1.0000
  Fe  Fe359     1.0  0.69428  0.89907  0.33701  1.0000
  S   S722      1.0  0.68384  0.92628  0.34168  1.0000
  S   S723      1.0  0.68741  0.89271  0.31471  1.0000
  Fe  Fe360     1.0  0.72370  0.89173  0.35664  1.0000
  S   S724      1.0  0.71576  0.91859  0.36160  1.0000
  S   S725      1.0  0.74644  0.87504  0.36854  1.0000
  Fe  Fe361     1.0  0.68882  0.91441  0.36878  1.0000
  S   S726      1.0  0.67416  0.92528  0.39247  1.0000
  Fe  Fe362     1.0  0.71171  0.92776  0.33425  1.0000
  S   S727      1.0  0.71911  0.95185  0.31592  1.0000
  S   S728      1.0  0.69671  0.88668  0.36515  1.0000
  S   S729      1.0  0.72228  0.90132  0.32841  1.0000
  S   S730      1.0  0.71552  0.89280  0.45379  1.0000
  S   S731      1.0  0.83742  0.95082  0.45238  1.0000
  Fe  Fe363     1.0  0.86208  0.89834  0.36946  1.0000
  S   S732      1.0  0.83976  0.88491  0.37818  1.0000
  S   S733      1.0  0.89038  0.88443  0.36473  1.0000
  Fe  Fe364     1.0  0.83854  0.93487  0.36965  1.0000
  S   S734      1.0  0.81446  0.92424  0.37796  1.0000
  H   H2872     1.0  0.70155  0.95518  0.26078  1.0000
  Fe  Fe365     1.0  0.82876  0.90320  0.39650  1.0000
  S   S735      1.0  0.81600  0.89698  0.42482  1.0000
  Fe  Fe366     1.0  0.82764  0.90742  0.35880  1.0000
  S   S736      1.0  0.81392  0.90592  0.33911  1.0000
  S   S737      1.0  0.85217  0.91476  0.38949  1.0000
  S   S738      1.0  0.85070  0.91976  0.34865  1.0000
  C   C1796     1.0  0.82913  0.93690  0.44554  1.0000
  C   C1797     1.0  0.82706  0.94088  0.42831  1.0000
  C   C1798     1.0  0.82184  0.92911  0.42230  1.0000
  C   C1799     1.0  0.81930  0.91303  0.43331  1.0000
  C   C1800     1.0  0.82077  0.90937  0.45069  1.0000
  C   C1801     1.0  0.82530  0.92146  0.45691  1.0000
  H   H2873     1.0  0.83002  0.95278  0.41943  1.0000
  H   H2874     1.0  0.82031  0.93229  0.40896  1.0000
  H   H2875     1.0  0.81925  0.89691  0.45915  1.0000
  H   H2876     1.0  0.82613  0.91866  0.47041  1.0000
  C   C1802     1.0  0.68588  0.91666  0.40934  1.0000
  C   C1803     1.0  0.68361  0.92604  0.42210  1.0000
  C   C1804     1.0  0.69302  0.91913  0.43556  1.0000
  C   C1805     1.0  0.70434  0.90261  0.43656  1.0000
  C   C1806     1.0  0.70653  0.89329  0.42382  1.0000
  C   C1807     1.0  0.69756  0.90040  0.41012  1.0000
  H   H2877     1.0  0.98355  0.83608  0.42888  1.0000
  H   H2878     1.0  0.69130  0.92646  0.44526  1.0000
  H   H2879     1.0  0.71520  0.88047  0.42451  1.0000
  H   H2880     1.0  0.69942  0.89306  0.40035  1.0000
  C   C1808     1.0  0.76509  0.88378  0.36051  1.0000
  C   C1809     1.0  0.77814  0.87871  0.37021  1.0000
  C   C1810     1.0  0.79297  0.88586  0.36399  1.0000
  C   C1811     1.0  0.79499  0.89770  0.34780  1.0000
  C   C1812     1.0  0.78206  0.90258  0.33804  1.0000
  C   C1813     1.0  0.76705  0.89579  0.34447  1.0000
  H   H2881     1.0  0.77676  0.86923  0.38252  1.0000
  H   H2882     1.0  0.80297  0.88193  0.37154  1.0000
  H   H2883     1.0  0.78358  0.91171  0.32550  1.0000
  H   H2884     1.0  0.75716  0.89953  0.33683  1.0000
  C   C1814     1.0  0.90745  0.82765  0.35874  1.0000
  C   C1815     1.0  0.91972  0.83769  0.35556  1.0000
  C   C1816     1.0  0.91429  0.85513  0.35734  1.0000
  C   C1817     1.0  0.89661  0.86256  0.36253  1.0000
  C   C1818     1.0  0.88439  0.85236  0.36623  1.0000
  C   C1819     1.0  0.88977  0.83501  0.36413  1.0000
  H   H2885     1.0  0.71504  0.93823  0.24980  1.0000
  H   H2886     1.0  0.92383  0.86292  0.35455  1.0000
  H   H2887     1.0  0.87083  0.85781  0.37079  1.0000
  H   H2888     1.0  0.88029  0.82718  0.36682  1.0000
  C   C1820     1.0  0.87463  0.98045  0.36258  1.0000
  C   C1821     1.0  0.88545  0.95249  0.42823  1.0000
  H   H2889     1.0  0.69962  0.92688  0.30532  1.0000
  C   C1822     1.0  0.92654  0.70326  0.46704  1.0000
  H   H2890     1.0  0.85069  0.89138  0.33165  1.0000
  N   N183      1.0  0.71021  0.93067  0.27784  1.0000
  H   H2891     1.0  0.91532  0.70603  0.46072  1.0000
  C   C1823     1.0  0.72577  0.93559  0.27908  1.0000
  H   H2892     1.0  0.87024  0.88537  0.31621  1.0000
  H   H2893     1.0  0.81982  0.86654  0.47552  1.0000
  S   S739      1.0  0.93916  0.79397  0.42630  1.0000
  H   H2894     1.0  0.74505  0.93035  0.33507  1.0000
  H   H2895     1.0  0.72302  0.94973  0.27916  1.0000
  H   H2896     1.0  0.90909  0.86740  0.41199  1.0000
  C   C1824     1.0  0.77407  0.97991  0.42624  1.0000
  H   H2897     1.0  0.93876  0.71785  0.34318  1.0000
  H   H2898     1.0  0.85938  0.98552  0.40480  1.0000
  H   H2899     1.0  0.90765  0.81562  0.41141  1.0000
  C   C1825     1.0  0.73090  0.97456  0.32612  1.0000
  H   H2900     1.0  0.89831  0.97309  0.39783  1.0000
  H   H2901     1.0  0.78815  0.89468  0.46547  1.0000
  H   H2902     1.0  0.77982  0.86989  0.46047  1.0000
  H   H2903     1.0  0.85405  0.96599  0.41954  1.0000
  S   S740      1.0  0.86978  0.94205  0.48345  1.0000
  H   H2904     1.0  0.97424  0.72550  0.37461  1.0000
  H   H2905     1.0  0.73019  0.92811  0.29140  1.0000
  H   H2906     1.0  0.80260  0.97448  0.32216  1.0000
  H   H2907     1.0  0.67428  0.90067  0.28361  1.0000
  H   H2908     1.0  0.70277  0.90756  0.27754  1.0000
  Fe  Fe367     1.0  0.94619  0.75127  0.38946  1.0000
  C   C1826     1.0  0.94673  0.69346  0.44220  1.0000
  C   C1827     1.0  0.69759  0.96343  0.36462  1.0000
  C   C1828     1.0  0.78778  0.88745  0.47932  1.0000
  C   C1829     1.0  0.69597  0.93449  0.29276  1.0000
  H   H2909     1.0  0.70306  0.95588  0.35423  1.0000
  H   H2910     1.0  0.85925  0.97402  0.44467  1.0000
  H   H2911     1.0  0.76683  0.98332  0.41558  1.0000
  H   H2912     1.0  0.78890  0.96834  0.34306  1.0000
  H   H2913     1.0  0.69412  0.95401  0.37716  1.0000
  H   H2914     1.0  0.69279  0.93764  0.26028  1.0000
  H   H2915     1.0  0.93603  0.87265  0.48070  1.0000
  S   S741      1.0  0.83085  0.96406  0.36733  1.0000
  H   H2916     1.0  0.69285  0.98167  0.33286  1.0000
  C   C1830     1.0  0.99049  0.69897  0.35850  1.0000
  H   H2917     1.0  0.80287  0.97030  0.43924  1.0000
  H   H2918     1.0  0.87518  0.94573  0.43711  1.0000
  C   C1831     1.0  0.74329  0.94378  0.33570  1.0000
  H   H2919     1.0  0.95879  0.69491  0.43212  1.0000
  H   H2920     1.0  0.80164  0.98897  0.36203  1.0000
  H   H2921     1.0  0.94025  0.80493  0.45605  1.0000
  H   H2922     1.0  0.97493  0.77448  0.42026  1.0000
  C   C1832     1.0  0.71431  0.91177  0.27819  1.0000
  C   C1833     1.0  0.75097  0.94765  0.34708  1.0000
  C   C1834     1.0  0.86498  0.97182  0.41098  1.0000
  S   S742      1.0  0.70593  0.93697  0.46973  1.0000
  N   N184      1.0  0.87797  0.97101  0.42087  1.0000
  H   H2923     1.0  0.72296  0.98498  0.31818  1.0000
  N   N185      1.0  0.75195  0.91680  0.40326  1.0000
  C   C1835     1.0  0.73969  0.92085  0.39157  1.0000
  C   C1836     1.0  0.74477  0.92758  0.41648  1.0000
  C   C1837     1.0  0.76878  0.92069  0.39289  1.0000
  C   C1838     1.0  0.75456  0.89804  0.41207  1.0000
  H   H2924     1.0  0.74472  0.91289  0.38145  1.0000
  H   H2925     1.0  0.73742  0.93491  0.38469  1.0000
  H   H2926     1.0  0.72687  0.91800  0.39894  1.0000
  H   H2927     1.0  0.75373  0.92494  0.42548  1.0000
  H   H2928     1.0  0.74256  0.94183  0.41024  1.0000
  H   H2929     1.0  0.73211  0.92486  0.42463  1.0000
  H   H2930     1.0  0.77846  0.91752  0.40125  1.0000
  H   H2931     1.0  0.76735  0.93479  0.38623  1.0000
  H   H2932     1.0  0.77439  0.91304  0.38256  1.0000
  H   H2933     1.0  0.76405  0.89440  0.42070  1.0000
  H   H2934     1.0  0.75944  0.88956  0.40245  1.0000
  H   H2935     1.0  0.74219  0.89472  0.42032  1.0000
  N   N186      1.0  0.85534  0.86550  0.32744  1.0000
  C   C1839     1.0  0.84503  0.87150  0.31369  1.0000
  C   C1840     1.0  0.84427  0.85903  0.34434  1.0000
  C   C1841     1.0  0.86167  0.88029  0.32865  1.0000
  C   C1842     1.0  0.87034  0.85123  0.32306  1.0000
  H   H2936     1.0  0.83352  0.88218  0.31671  1.0000
  H   H2937     1.0  0.84006  0.86068  0.31237  1.0000
  H   H2938     1.0  0.85286  0.87668  0.30077  1.0000
  H   H2939     1.0  0.85163  0.85420  0.35501  1.0000
  H   H2940     1.0  0.83294  0.86956  0.34812  1.0000
  H   H2941     1.0  0.83904  0.84806  0.34382  1.0000
  H   H2942     1.0  0.93337  0.83211  0.35132  1.0000
  H   H2943     1.0  0.92319  0.71211  0.47622  1.0000
  H   H2944     1.0  0.94877  0.67952  0.44953  1.0000
  S   S743      1.0  0.75398  0.96909  0.36573  1.0000
  H   H2945     1.0  0.88236  0.85250  0.40475  1.0000
  C   C1843     1.0  0.73274  0.95716  0.32574  1.0000
  S   S744      1.0  0.74983  0.95397  0.45931  1.0000
  C   C1844     1.0  0.94023  0.71118  0.35635  1.0000
  H   H2946     1.0  0.90640  0.82256  0.43879  1.0000
  H   H2947     1.0  0.90743  0.83228  0.39173  1.0000
  H   H2948     1.0  0.70775  0.96945  0.48171  1.0000
  H   H2949     1.0  0.93811  0.73488  0.36435  1.0000
  H   H2950     1.0  0.81105  0.96836  0.34171  1.0000
  H   H2951     1.0  0.75879  0.93717  0.35507  1.0000
  H   H2952     1.0  0.90963  0.86246  0.39180  1.0000
  S   S745      1.0  0.96646  0.75771  0.39870  1.0000
  H   H2953     1.0  0.89513  0.95133  0.43602  1.0000
  C   C1845     1.0  0.94023  0.72385  0.44364  1.0000
  C   C1846     1.0  0.94281  0.69288  0.36133  1.0000
  C   C1847     1.0  0.66385  0.89782  0.29458  1.0000
  H   H2954     1.0  0.94613  0.67027  0.38250  1.0000
  N   N187      1.0  0.79231  0.86830  0.48103  1.0000
  C   C1848     1.0  0.78497  0.96138  0.48134  1.0000
  C   C1849     1.0  0.94001  0.72079  0.36828  1.0000
  H   H2955     1.0  0.92791  0.68966  0.47513  1.0000
  H   H2956     1.0  0.92587  0.83044  0.42945  1.0000
  Fe  Fe368     1.0  0.93519  0.78866  0.36918  1.0000
  H   H2957     1.0  0.97320  0.73039  0.34370  1.0000
  H   H2958     1.0  0.77940  0.96550  0.42896  1.0000
  H   H2959     1.0  0.86868  0.95643  0.36201  1.0000
  H   H2960     1.0  0.95434  0.71038  0.47226  1.0000
  C   C1850     1.0  0.74760  0.96488  0.34884  1.0000
  Fe  Fe369     1.0  0.97317  0.77300  0.37127  1.0000
  C   C1851     1.0  0.75936  0.95891  0.47356  1.0000
  C   C1852     1.0  0.81000  0.86308  0.47074  1.0000
  H   H2961     1.0  0.95942  0.68803  0.47061  1.0000
  H   H2962     1.0  0.94582  0.68711  0.40346  1.0000
  H   H2963     1.0  0.90678  0.84425  0.43959  1.0000
  H   H2964     1.0  0.78564  0.94945  0.46065  1.0000
  C   C1853     1.0  0.91145  0.83445  0.43130  1.0000
  H   H2965     1.0  0.70815  0.96891  0.36568  1.0000
  C   C1854     1.0  0.88683  0.84687  0.41733  1.0000
  N   N188      1.0  0.90599  0.84149  0.41435  1.0000
  H   H2966     1.0  0.89202  0.94511  0.41780  1.0000
  H   H2967     1.0  0.97615  0.70052  0.36151  1.0000
  H   H2968     1.0  0.95202  0.72602  0.43340  1.0000
  C   C1855     1.0  0.97245  0.77985  0.43154  1.0000
  C   C1856     1.0  0.77969  0.86334  0.47445  1.0000
  H   H2969     1.0  0.79897  0.95922  0.47910  1.0000
  C   C1857     1.0  0.86961  0.98020  0.43527  1.0000
  C   C1858     1.0  0.86343  0.96973  0.36370  1.0000
  C   C1859     1.0  0.89185  0.97951  0.40900  1.0000
  Fe  Fe370     1.0  0.73146  0.93702  0.47472  1.0000
  H   H2970     1.0  0.92662  0.82418  0.40062  1.0000
  C   C1860     1.0  0.96612  0.79387  0.46074  1.0000
  C   C1861     1.0  0.94217  0.71212  0.38525  1.0000
  H   H2971     1.0  0.78259  0.84895  0.47561  1.0000
  H   H2972     1.0  0.66925  0.87715  0.47937  1.0000
  C   C1862     1.0  0.73807  0.97839  0.33793  1.0000
  Fe  Fe371     1.0  0.94665  0.78220  0.40294  1.0000
  H   H2973     1.0  0.92797  0.85319  0.40201  1.0000
  S   S746      1.0  0.66386  0.96678  0.27351  1.0000
  H   H2974     1.0  0.73679  0.93301  0.26801  1.0000
  H   H2975     1.0  0.98870  0.81987  0.44803  1.0000
  H   H2976     1.0  0.88166  0.85705  0.42520  1.0000
  H   H2977     1.0  0.69767  0.98259  0.46386  1.0000
  N   N189      1.0  0.68235  0.97739  0.36050  1.0000
  H   H2978     1.0  0.96363  0.79961  0.47183  1.0000
  H   H2979     1.0  0.66444  0.96046  0.37229  1.0000
  H   H2980     1.0  0.68394  0.93104  0.29225  1.0000
  C   C1863     1.0  0.95714  0.70178  0.46295  1.0000
  H   H2981     1.0  0.96949  0.70349  0.45349  1.0000
  C   C1864     1.0  0.94422  0.69391  0.39034  1.0000
  C   C1865     1.0  0.91352  0.85681  0.40464  1.0000
  H   H2982     1.0  0.90197  0.97909  0.41594  1.0000
  N   N190      1.0  0.94266  0.70559  0.45395  1.0000
  H   H2983     1.0  0.72497  0.90834  0.26713  1.0000
  H   H2984     1.0  0.93611  0.69599  0.43511  1.0000
  C   C1866     1.0  0.79942  0.97550  0.33602  1.0000
  C   C1867     1.0  0.91218  0.82783  0.40408  1.0000
  C   C1868     1.0  0.98566  0.77652  0.44070  1.0000
  H   H2985     1.0  0.88074  0.83554  0.42437  1.0000
  S   S747      1.0  0.94308  0.72348  0.40022  1.0000
  C   C1869     1.0  0.94454  0.68433  0.37843  1.0000
  H   H2986     1.0  0.88854  0.97536  0.36011  1.0000
  H   H2987     1.0  0.93733  0.73336  0.45204  1.0000
  H   H2988     1.0  0.87080  0.96454  0.40037  1.0000
  H   H2989     1.0  0.67468  0.93869  0.42148  1.0000
  S   S748      1.0  0.74285  0.90883  0.47474  1.0000
  H   H2990     1.0  0.92930  0.72719  0.43676  1.0000
  S   S749      1.0  0.98888  0.66008  0.45506  1.0000
  C   C1870     1.0  0.66654  0.89391  0.31168  1.0000
  C   C1871     1.0  0.70450  0.98298  0.47376  1.0000
  C   C1872     1.0  0.98239  0.78340  0.45541  1.0000
  Fe  Fe372     1.0  0.84706  0.93677  0.47707  1.0000
  S   S750      1.0  0.98289  0.65795  0.36744  1.0000
  H   H2991     1.0  0.67565  0.89585  0.46390  1.0000
  C   C1873     1.0  0.79706  0.98460  0.43639  1.0000
  H   H2992     1.0  0.80584  0.97151  0.40723  1.0000
  H   H2993     1.0  0.81097  0.86979  0.45669  1.0000
  H   H2994     1.0  0.76430  0.98286  0.43805  1.0000
  C   C1874     1.0  0.98764  0.72829  0.34054  1.0000
  C   C1875     1.0  0.68747  0.98906  0.34343  1.0000
  C   C1876     1.0  0.67209  0.89004  0.47810  1.0000
  H   H2995     1.0  0.78806  0.98762  0.44863  1.0000
  H   H2996     1.0  0.71700  0.98664  0.46643  1.0000
  C   C1877     1.0  0.80023  0.98582  0.40578  1.0000
  H   H2997     1.0  0.87915  0.98011  0.44276  1.0000
  Fe  Fe373     1.0  0.71656  0.90817  0.47232  1.0000
  C   C1878     1.0  0.98864  0.72316  0.37086  1.0000
  C   C1879     1.0  0.67585  0.98755  0.37423  1.0000
  H   H2998     1.0  0.98619  0.74086  0.48195  1.0000
  Fe  Fe374     1.0  0.96629  0.65642  0.35055  1.0000
  H   H2999     1.0  0.78013  0.98694  0.36386  1.0000
  H   H3000     1.0  0.66569  0.92512  0.47166  1.0000
  H   H3001     1.0  0.81378  0.84873  0.47153  1.0000
  H   H3002     1.0  0.67170  0.97915  0.38724  1.0000
  S   S751      1.0  0.85501  0.90749  0.48554  1.0000
  H   H3003     1.0  0.76618  0.86724  0.48193  1.0000
  H   H3004     1.0  0.98905  0.81325  0.42877  1.0000
  H   H3005     1.0  0.68385  0.88750  0.48357  1.0000
  H   H3006     1.0  0.79682  0.89173  0.48439  1.0000
  H   H3007     1.0  0.99081  0.74135  0.33774  1.0000
  C   C1880     1.0  0.66183  0.91834  0.48553  1.0000
  H   H3008     1.0  0.67031  0.98811  0.48597  1.0000
  Fe  Fe375     1.0  0.97178  0.76398  0.52897  1.0000
  H   H3009     1.0  0.67466  0.90701  0.52777  1.0000
  H   H3010     1.0  0.90848  0.96979  0.50757  1.0000
  Fe  Fe376     1.0  0.95151  0.80096  0.51578  1.0000
  H   H3011     1.0  0.77605  0.95000  0.53719  1.0000
  S   S752      1.0  0.92392  0.81694  0.51888  1.0000
  H   H3012     1.0  0.79625  0.93952  0.52562  1.0000
  C   C1881     1.0  0.95111  0.83205  0.54291  1.0000
  S   S753      1.0  0.95950  0.77629  0.50581  1.0000
  S   S754      1.0  0.96183  0.78785  0.54028  1.0000
  Fe  Fe377     1.0  0.69781  0.93000  0.49906  1.0000
  S   S755      1.0  0.72242  0.93328  0.50366  1.0000
  C   C1882     1.0  0.92652  0.86611  0.49021  1.0000
  H   H3013     1.0  0.94074  0.87640  0.52943  1.0000
  S   S756      1.0  0.97206  0.73588  0.54309  1.0000
  Fe  Fe378     1.0  0.73234  0.90489  0.50343  1.0000
  S   S757      1.0  0.74852  0.88673  0.52232  1.0000
  C   C1883     1.0  0.98697  0.73115  0.49458  1.0000
  S   S758      1.0  0.67135  0.94417  0.51140  1.0000
  S   S759      1.0  0.70690  0.90096  0.50138  1.0000
  N   N191      1.0  0.79738  0.94342  0.55023  1.0000
  C   C1884     1.0  0.96348  0.85302  0.54829  1.0000
  H   H3014     1.0  0.67214  0.95263  0.55854  1.0000
  H   H3015     1.0  0.82052  0.93172  0.56070  1.0000
  Fe  Fe379     1.0  0.85275  0.94301  0.50996  1.0000
  C   C1885     1.0  0.93100  0.84795  0.49704  1.0000
  S   S760      1.0  0.84788  0.96315  0.52586  1.0000
  Fe  Fe380     1.0  0.83863  0.91182  0.51154  1.0000
  S   S761      1.0  0.82053  0.89517  0.52999  1.0000
  H   H3016     1.0  0.93142  0.86047  0.52619  1.0000
  S   S762      1.0  0.86093  0.91427  0.52114  1.0000
  H   H3017     1.0  0.68013  0.94272  0.57833  1.0000
  C   C1886     1.0  0.86537  0.97206  0.52518  1.0000
  C   C1887     1.0  0.88212  0.96621  0.51592  1.0000
  C   C1888     1.0  0.74887  0.96668  0.48717  1.0000
  H   H3018     1.0  0.81004  0.96331  0.55007  1.0000
  H   H3019     1.0  0.74813  0.97888  0.50759  1.0000
  N   N192      1.0  0.95487  0.84968  0.53622  1.0000
  H   H3020     1.0  0.66755  0.93684  0.68328  1.0000
  H   H3021     1.0  0.80995  0.91630  0.55801  1.0000
  H   H3022     1.0  0.81053  0.96068  0.52893  1.0000
  H   H3023     1.0  0.73497  0.96859  0.48954  1.0000
  S   S763      1.0  0.78372  0.97864  0.50604  1.0000
  H   H3024     1.0  0.94197  0.83092  0.55583  1.0000
  C   C1889     1.0  0.76767  0.89110  0.52452  1.0000
  C   C1890     1.0  0.77668  0.87894  0.53673  1.0000
  C   C1891     1.0  0.79269  0.88065  0.53817  1.0000
  C   C1892     1.0  0.80014  0.89440  0.52726  1.0000
  C   C1893     1.0  0.79111  0.90689  0.51510  1.0000
  C   C1894     1.0  0.77471  0.90537  0.51390  1.0000
  H   H3025     1.0  0.77135  0.86796  0.54503  1.0000
  H   H3026     1.0  0.79949  0.87104  0.54767  1.0000
  H   H3027     1.0  0.97698  0.72337  0.49723  1.0000
  H   H3028     1.0  0.76776  0.91498  0.50451  1.0000
  C   C1895     1.0  0.91872  0.83950  0.50939  1.0000
  C   C1896     1.0  0.80236  0.96044  0.54229  1.0000
  C   C1897     1.0  0.93843  0.86292  0.53487  1.0000
  C   C1898     1.0  0.78584  0.94410  0.56753  1.0000
  C   C1899     1.0  0.89738  0.86731  0.50770  1.0000
  C   C1900     1.0  0.90190  0.84921  0.51461  1.0000
  C   C1901     1.0  0.77437  0.97020  0.49422  1.0000
  C   C1902     1.0  0.89216  0.98870  0.52234  1.0000
  H   H3029     1.0  0.88438  0.87469  0.51185  1.0000
  H   H3030     1.0  0.89232  0.84271  0.52409  1.0000
  C   C1903     1.0  0.93903  0.72647  0.51946  1.0000
  C   C1904     1.0  0.94712  0.73498  0.52667  1.0000
  H   H3031     1.0  0.88475  0.95541  0.50969  1.0000
  H   H3032     1.0  0.66692  0.96461  0.57539  1.0000
  H   H3033     1.0  0.94505  0.82885  0.53389  1.0000
  H   H3034     1.0  0.92942  0.86276  0.54782  1.0000
  C   C1905     1.0  0.96025  0.72535  0.53578  1.0000
  Fe  Fe381     1.0  0.95029  0.67066  0.51041  1.0000
  C   C1906     1.0  0.89553  0.97439  0.51468  1.0000
  H   H3035     1.0  0.65973  0.93391  0.60619  1.0000
  H   H3036     1.0  0.79581  0.84492  0.50136  1.0000
  H   H3037     1.0  0.97477  0.69951  0.54546  1.0000
  H   H3038     1.0  0.95516  0.85219  0.56164  1.0000
  H   H3039     1.0  0.79240  0.94690  0.57638  1.0000
  H   H3040     1.0  0.96976  0.86370  0.51337  1.0000
  S   S764      1.0  0.97546  0.81075  0.50056  1.0000
  C   C1907     1.0  0.75633  0.97260  0.49731  1.0000
  H   H3041     1.0  0.79076  0.97141  0.54103  1.0000
  C   C1908     1.0  0.79172  0.85939  0.49960  1.0000
  C   C1909     1.0  0.94409  0.70829  0.52128  1.0000
  H   H3042     1.0  0.78184  0.93145  0.57388  1.0000
  H   H3043     1.0  0.96043  0.84818  0.50936  1.0000
  H   H3044     1.0  0.66660  0.91732  0.58326  1.0000
  C   C1910     1.0  0.81315  0.92940  0.55228  1.0000
  H   H3045     1.0  0.68093  0.97646  0.50375  1.0000
  H   H3046     1.0  0.66355  0.88967  0.51212  1.0000
  H   H3047     1.0  0.77449  0.89174  0.48687  1.0000
  H   H3048     1.0  0.79669  0.91767  0.50668  1.0000
  H   H3049     1.0  0.77380  0.95457  0.56640  1.0000
  H   H3050     1.0  0.96072  0.68450  0.53246  1.0000
  H   H3051     1.0  0.82216  0.92858  0.53950  1.0000
  C   C1911     1.0  0.78811  0.93976  0.53891  1.0000
  C   C1912     1.0  0.96480  0.70708  0.53820  1.0000
  H   H3052     1.0  0.80035  0.86364  0.50527  1.0000
  Fe  Fe382     1.0  0.98454  0.78469  0.49317  1.0000
  C   C1913     1.0  0.95692  0.69858  0.53077  1.0000
  C   C1914     1.0  0.66874  0.95139  0.57295  1.0000
  H   H3053     1.0  0.94384  0.84048  0.49267  1.0000
  H   H3054     1.0  0.96320  0.82180  0.54450  1.0000
  H   H3055     1.0  0.94299  0.74897  0.52535  1.0000
  H   H3056     1.0  0.78453  0.92682  0.54427  1.0000
  S   S765      1.0  0.82934  0.94062  0.50236  1.0000
  H   H3057     1.0  0.98319  0.73875  0.50490  1.0000
  H   H3058     1.0  0.96647  0.86625  0.54371  1.0000
  C   C1915     1.0  0.86213  0.98609  0.53318  1.0000
  S   S766      1.0  0.93473  0.69792  0.51116  1.0000
  H   H3059     1.0  0.97898  0.84063  0.51936  1.0000
  C   C1916     1.0  0.90969  0.87583  0.49554  1.0000
  H   H3060     1.0  0.97599  0.84323  0.54943  1.0000
  H   H3061     1.0  0.92894  0.73402  0.51236  1.0000
  C   C1917     1.0  0.96653  0.85061  0.51880  1.0000
  Fe  Fe383     1.0  0.87644  0.91284  0.49408  1.0000
  Fe  Fe384     1.0  0.98640  0.79598  0.52430  1.0000
  H   H3062     1.0  0.70728  0.98312  0.50599  1.0000
  H   H3063     1.0  0.77835  0.86239  0.50759  1.0000
  H   H3064     1.0  0.65947  0.92743  0.56310  1.0000
  H   H3065     1.0  0.67291  0.91610  0.49187  1.0000
  S   S767      1.0  0.90451  0.89860  0.48700  1.0000
  H   H3066     1.0  0.66521  0.96516  0.69067  1.0000
  H   H3067     1.0  0.65832  0.93965  0.71408  1.0000
  C   C1918     1.0  0.66174  0.91400  0.53266  1.0000
  S   S768      1.0  0.97855  0.66914  0.49984  1.0000
  C   C1919     1.0  0.67000  0.68035  0.83106  1.0000
  H   H3068     1.0  0.67126  0.68962  0.81806  1.0000
  H   H3069     1.0  0.67817  0.66730  0.82922  1.0000
  H   H3070     1.0  0.67558  0.68490  0.83954  1.0000
  H   H3071     1.0  0.67003  0.73243  0.97150  1.0000
  H   H3072     1.0  0.66288  0.76293  0.97626  1.0000
  C   C1920     1.0  0.66168  0.72861  0.98456  1.0000
