data_image0
_chemical_formula_structural       CFeHCHC2HC3SCHSHCS2H3C2H2CH2SCHCH3CSH5CHCHC4H2CSHCNH2C2H2CH2CHCHCHCHSHSHSH2SFeHCHSHC2HC3HSH2CFeSHC2SHSHC3HCSH3CFeH4FeHNCSH3FeC2HSH2SHFeH3C2SCSHC4SHCH4C2HC4HCHCH2CHFeHCH4CS2H3NH2NH4CNCH2SHCSHCHCHC4H4NS3CH2CNH2SFeH5CH3Fe2HC2HSC2FeHFeSH3SH5SHNH2C4HCSCH3FeCSCHSH2CFeS2HFeCHSH5FeCHSHCSHCH2SC2SCFeSC2HSCH2C2HCFeCH3CH2C2FeH2C2H5C2H2CHNSH6FeHCH2CSH2CH3NCHFeC2SH4C2H3C3H2SHCH2CH2SCNHC2H2FeSHCHC2HFeCH2CH3SCSHFeSH3C3H4C2H2FeCHCS2HSFe2HCH5CHC2HSCNHC2H2SCHNC2HFeHC4H2C2HCH2FeCHC2HCHFeSFeSCFe2S4CHCH2NHSH7NH2C2H3CNH8CH2C2H3FeS3CH2FeH2SC5H2CH3CNC2HSCH4FeSH5Fe2C2HCH2SC2SHCFeCHCHC2HSCH2CSC2HCH5SH2CH2CH4Fe2HFeSNHSCSC2HC2H2SC2SFeSCHCH2CSH4C2H4C2H4NHFeHSH8FeCH2NH2CSNHC2SHCHNHCH4SH2CHC2HCHC2H2NH8C2H2CHSHFeCH2C3H2NHCHCH2C2SCSHCH2C2H3CH2C2NH4C2H2C2HSC2HFeCH4C2SC2S2CHC2HCH3CH3S2C3SHFe2CFeC3SFeSHFeCHC3HSC2SH8C4H2FeHFeCSHS2HSFeSHCHSCFe2HNHFe2CH6S2CH2C2FeHCHSCHFeS3FeHCH4FeHCHSCHFeHSHSH5CNSCH2C2NCHSHCH3CHCH2CNH5C2SHSC2SC2HCH3CH5NS2HSHC2FeSCHFeCHFeH2CH2FeSC2HSH3SH4FeH3SHC6HCHNH2FeH2CHCH4SH2NHCNHC2HSC3H4CH2SC2H2CHCH5CSH3S2FeS2H2FeHS2H4C2FeH3CHSH3CH2S2H2FeNCSFeSHCH5NFeCSCHCHS2NH3C3H4C2HC6HCH2SHCHCH3C3SCH11CH2CHCHCNC3SHNCHCSH2CH2SHC2HSC2H3C3HSC5HC2H8NH5C2FeCSCHSC2H2CH3CH4CHNHC4HSH5CH2FeHCFe
_chemical_formula_sum              "C400 Fe80 H640 S160 N40"
_cell_length_a       29.5609
_cell_length_b       32.8608
_cell_length_c       28.0657
_cell_angle_alpha    90.355
_cell_angle_beta     89.2657
_cell_angle_gamma    89.7686

_space_group_name_H-M_alt    "P 1"
_space_group_IT_number       1

loop_
  _space_group_symop_operation_xyz
  'x, y, z'

loop_
  _atom_site_type_symbol
  _atom_site_label
  _atom_site_symmetry_multiplicity
  _atom_site_fract_x
  _atom_site_fract_y
  _atom_site_fract_z
  _atom_site_occupancy
  C   C1        1.0  0.61961  0.20131  0.40886  1.0000
  Fe  Fe1       1.0  0.19710  0.11434  0.10978  1.0000
  H   H1        1.0  0.16675  0.22550  0.36431  1.0000
  C   C2        1.0  0.58574  0.19249  0.48714  1.0000
  H   H2        1.0  0.64327  0.21655  0.38538  1.0000
  C   C3        1.0  0.19538  0.18700  0.20894  1.0000
  C   C4        1.0  0.59304  0.16950  0.39121  1.0000
  H   H3        1.0  0.21180  0.15756  0.20661  1.0000
  C   C5        1.0  0.20591  0.21403  0.24624  1.0000
  C   C6        1.0  0.18529  0.25251  0.24908  1.0000
  C   C7        1.0  0.61484  0.28588  0.58892  1.0000
  S   S1        1.0  0.19792  0.28569  0.29665  1.0000
  C   C8        1.0  0.61667  0.21226  0.45706  1.0000
  H   H4        1.0  0.23062  0.20534  0.27246  1.0000
  S   S2        1.0  0.53618  0.10477  0.40120  1.0000
  H   H5        1.0  0.59623  0.16038  0.35419  1.0000
  C   C9        1.0  0.24389  0.10946  0.56098  1.0000
  S   S3        1.0  0.45045  0.09677  0.51003  1.0000
  S   S4        1.0  0.20527  0.13928  0.59400  1.0000
  H   H6        1.0  0.30221  0.13606  0.59375  1.0000
  H   H7        1.0  0.17530  0.28499  0.55739  1.0000
  H   H8        1.0  0.56776  0.11515  0.56938  1.0000
  C   C10       1.0  0.29036  0.11347  0.56877  1.0000
  C   C11       1.0  0.55965  0.16030  0.46959  1.0000
  H   H9        1.0  0.58362  0.20035  0.52453  1.0000
  H   H10       1.0  0.53707  0.14410  0.49329  1.0000
  C   C12       1.0  0.56379  0.14841  0.42180  1.0000
  H   H11       1.0  0.59956  0.26132  0.56702  1.0000
  H   H12       1.0  0.63296  0.30636  0.56363  1.0000
  S   S5        1.0  0.27278  0.11767  0.11169  1.0000
  C   C13       1.0  0.58267  0.11800  0.60410  1.0000
  H   H13       1.0  0.65222  0.13735  0.49473  1.0000
  C   C14       1.0  0.16315  0.19794  0.17520  1.0000
  H   H14       1.0  0.64760  0.13658  0.57644  1.0000
  H   H15       1.0  0.65351  0.09831  0.39736  1.0000
  H   H16       1.0  0.58670  0.30354  0.60584  1.0000
  C   C15       1.0  0.62770  0.13051  0.60804  1.0000
  S   S6        1.0  0.32381  0.11394  0.98730  1.0000
  H   H17       1.0  0.47669  0.09934  0.02838  1.0000
  H   H18       1.0  0.61549  0.19232  0.97564  1.0000
  H   H19       1.0  0.40839  0.11461  0.68624  1.0000
  H   H20       1.0  0.44589  0.12369  0.07666  1.0000
  H   H21       1.0  0.40587  0.11042  0.93331  1.0000
  C   C16       1.0  0.62079  0.24096  0.65634  1.0000
  H   H22       1.0  0.64355  0.22670  0.68286  1.0000
  C   C17       1.0  0.60845  0.16697  0.95211  1.0000
  H   H23       1.0  0.63770  0.32035  0.67219  1.0000
  C   C18       1.0  0.59079  0.10104  0.89171  1.0000
  C   C19       1.0  0.62326  0.16798  0.90459  1.0000
  C   C20       1.0  0.61374  0.13523  0.87427  1.0000
  C   C21       1.0  0.55689  0.10991  0.64504  1.0000
  H   H24       1.0  0.62309  0.13661  0.83707  1.0000
  H   H25       1.0  0.41756  0.11066  0.02267  1.0000
  C   C22       1.0  0.62081  0.12909  0.69394  1.0000
  S   S7        1.0  0.50149  0.09135  0.64032  1.0000
  H   H26       1.0  0.55577  0.11040  0.72185  1.0000
  C   C23       1.0  0.57578  0.11613  0.69003  1.0000
  N   N1        1.0  0.64586  0.26907  0.62477  1.0000
  H   H27       1.0  0.19796  0.22313  0.68460  1.0000
  H   H28       1.0  0.63510  0.13378  0.72872  1.0000
  C   C24       1.0  0.57673  0.09972  0.93942  1.0000
  C   C25       1.0  0.16266  0.29719  0.69950  1.0000
  H   H29       1.0  0.19847  0.29512  0.71097  1.0000
  H   H30       1.0  0.57451  0.13200  0.00649  1.0000
  C   C26       1.0  0.64698  0.13556  0.65283  1.0000
  H   H31       1.0  0.16280  0.30723  0.66172  1.0000
  H   H32       1.0  0.17534  0.24204  0.76847  1.0000
  C   C27       1.0  0.58536  0.13283  0.96955  1.0000
  H   H33       1.0  0.60525  0.21571  0.63561  1.0000
  C   C28       1.0  0.44371  0.10017  0.04811  1.0000
  H   H34       1.0  0.59306  0.25685  0.67621  1.0000
  C   C29       1.0  0.38501  0.09776  0.66242  1.0000
  H   H35       1.0  0.35593  0.11808  0.65461  1.0000
  C   C30       1.0  0.16159  0.22650  0.67557  1.0000
  H   H36       1.0  0.40369  0.09220  0.62826  1.0000
  S   S8        1.0  0.19563  0.09222  0.03384  1.0000
  H   H37       1.0  0.16003  0.23391  0.63695  1.0000
  S   S9        1.0  0.24630  0.39593  0.29726  1.0000
  H   H38       1.0  0.43775  0.42905  0.14472  1.0000
  S   S10       1.0  0.18522  0.37308  0.20286  1.0000
  H   H39       1.0  0.38467  0.46964  0.19476  1.0000
  H   H40       1.0  0.16082  0.42372  0.11909  1.0000
  S   S11       1.0  0.40971  0.57029  0.60183  1.0000
  Fe  Fe2       1.0  0.23578  0.42011  0.22382  1.0000
  H   H41       1.0  0.30020  0.52109  0.57392  1.0000
  C   C31       1.0  0.30997  0.47069  0.43233  1.0000
  H   H42       1.0  0.28059  0.56000  0.48638  1.0000
  S   S12       1.0  0.59583  0.53571  0.15665  1.0000
  H   H43       1.0  0.33766  0.44910  0.42989  1.0000
  C   C32       1.0  0.31386  0.50546  0.46102  1.0000
  C   C33       1.0  0.26902  0.44470  0.56911  1.0000
  H   H44       1.0  0.18051  0.51600  0.11889  1.0000
  C   C34       1.0  0.40675  0.49972  0.10910  1.0000
  C   C35       1.0  0.23792  0.52576  0.43926  1.0000
  C   C36       1.0  0.27784  0.53310  0.46441  1.0000
  H   H45       1.0  0.65450  0.34840  0.17374  1.0000
  S   S13       1.0  0.28942  0.43794  0.17132  1.0000
  H   H46       1.0  0.39198  0.52369  0.19991  1.0000
  H   H47       1.0  0.21008  0.54717  0.44189  1.0000
  C   C37       1.0  0.46164  0.45517  0.14491  1.0000
  Fe  Fe3       1.0  0.18941  0.43815  0.31821  1.0000
  S   S14       1.0  0.18391  0.48212  0.37960  1.0000
  H   H48       1.0  0.29617  0.50215  0.24176  1.0000
  C   C38       1.0  0.30214  0.55764  0.20122  1.0000
  C   C39       1.0  0.23432  0.49116  0.41010  1.0000
  S   S15       1.0  0.16707  0.36915  0.58549  1.0000
  H   H49       1.0  0.49363  0.52516  0.18149  1.0000
  S   S16       1.0  0.36296  0.51191  0.49459  1.0000
  H   H50       1.0  0.28437  0.45476  0.53475  1.0000
  C   C40       1.0  0.30222  0.57470  0.15563  1.0000
  C   C41       1.0  0.29027  0.49082  0.16636  1.0000
  C   C42       1.0  0.27036  0.46365  0.40672  1.0000
  H   H51       1.0  0.30840  0.57658  0.23209  1.0000
  C   C43       1.0  0.29525  0.51564  0.20668  1.0000
  S   S17       1.0  0.62428  0.45914  0.25984  1.0000
  H   H52       1.0  0.45277  0.55818  0.15437  1.0000
  H   H53       1.0  0.49108  0.52885  0.11784  1.0000
  H   H54       1.0  0.26759  0.43661  0.38497  1.0000
  C   C44       1.0  0.41040  0.49438  0.19472  1.0000
  Fe  Fe4       1.0  0.37063  0.57106  0.53384  1.0000
  H   H55       1.0  0.23228  0.45217  0.56824  1.0000
  H   H56       1.0  0.35667  0.46448  0.57594  1.0000
  H   H57       1.0  0.43223  0.48975  0.22627  1.0000
  H   H58       1.0  0.15841  0.44151  0.46805  1.0000
  Fe  Fe5       1.0  0.19089  0.35212  0.27833  1.0000
  H   H59       1.0  0.62867  0.40526  0.33923  1.0000
  N   N2        1.0  0.43724  0.49435  0.14994  1.0000
  C   C45       1.0  0.28859  0.50818  0.12120  1.0000
  S   S18       1.0  0.18402  0.46629  0.24611  1.0000
  H   H60       1.0  0.27207  0.41094  0.57040  1.0000
  H   H61       1.0  0.48572  0.45049  0.17460  1.0000
  H   H62       1.0  0.20283  0.56680  0.22104  1.0000
  Fe  Fe6       1.0  0.64005  0.48778  0.18908  1.0000
  C   C46       1.0  0.29311  0.55020  0.11607  1.0000
  C   C47       1.0  0.47011  0.52814  0.15103  1.0000
  H   H63       1.0  0.38818  0.52922  0.11147  1.0000
  S   S19       1.0  0.64134  0.44781  0.12400  1.0000
  H   H64       1.0  0.38104  0.47504  0.10757  1.0000
  H   H65       1.0  0.48163  0.45376  0.11104  1.0000
  S   S20       1.0  0.17506  0.40684  0.71547  1.0000
  H   H66       1.0  0.30165  0.52480  0.63787  1.0000
  Fe  Fe7       1.0  0.60278  0.49865  0.08967  1.0000
  H   H67       1.0  0.35784  0.46917  0.63948  1.0000
  H   H68       1.0  0.28448  0.48910  0.09001  1.0000
  H   H69       1.0  0.18763  0.41356  0.06250  1.0000
  C   C48       1.0  0.22691  0.52579  0.79195  1.0000
  C   C49       1.0  0.18054  0.43781  0.08944  1.0000
  S   S21       1.0  0.25754  0.54055  0.95000  1.0000
  C   C50       1.0  0.20760  0.49947  0.82538  1.0000
  S   S22       1.0  0.21726  0.51903  0.73095  1.0000
  H   H70       1.0  0.28553  0.58691  0.86746  1.0000
  C   C51       1.0  0.54251  0.56961  0.02068  1.0000
  C   C52       1.0  0.58568  0.54958  0.67873  1.0000
  C   C53       1.0  0.52061  0.53205  0.01676  1.0000
  C   C54       1.0  0.45964  0.56479  0.97406  1.0000
  S   S23       1.0  0.54282  0.48791  0.04293  1.0000
  H   H71       1.0  0.42593  0.49937  0.07470  1.0000
  C   C55       1.0  0.38902  0.55623  0.85192  1.0000
  H   H72       1.0  0.18603  0.47491  0.81380  1.0000
  H   H73       1.0  0.20244  0.48362  0.89967  1.0000
  H   H74       1.0  0.41099  0.52925  0.85819  1.0000
  H   H75       1.0  0.37103  0.55089  0.75843  1.0000
  C   C56       1.0  0.51994  0.58797  0.65334  1.0000
  C   C57       1.0  0.25485  0.55748  0.80724  1.0000
  H   H76       1.0  0.29050  0.56334  0.08118  1.0000
  C   C58       1.0  0.21699  0.50437  0.87395  1.0000
  C   C59       1.0  0.24535  0.53578  0.88921  1.0000
  C   C60       1.0  0.26382  0.56262  0.85588  1.0000
  C   C61       1.0  0.27045  0.44950  0.65486  1.0000
  H   H77       1.0  0.26941  0.57802  0.78131  1.0000
  C   C62       1.0  0.18190  0.48966  0.02858  1.0000
  H   H78       1.0  0.16425  0.51625  0.01264  1.0000
  C   C63       1.0  0.54006  0.56033  0.68457  1.0000
  H   H79       1.0  0.21556  0.50066  0.04030  1.0000
  H   H80       1.0  0.52015  0.54684  0.71290  1.0000
  C   C64       1.0  0.40630  0.55956  0.76770  1.0000
  H   H81       1.0  0.57438  0.57144  0.03886  1.0000
  Fe  Fe8       1.0  0.16261  0.47408  0.71563  1.0000
  H   H82       1.0  0.47668  0.56590  0.82681  1.0000
  C   C65       1.0  0.47952  0.52967  0.99276  1.0000
  H   H83       1.0  0.28627  0.46373  0.68667  1.0000
  H   H84       1.0  0.46268  0.50064  0.98921  1.0000
  H   H85       1.0  0.41944  0.57839  0.73771  1.0000
  H   H86       1.0  0.42698  0.53123  0.76898  1.0000
  C   C66       1.0  0.61147  0.56742  0.64233  1.0000
  S   S24       1.0  0.60944  0.51355  0.71706  1.0000
  S   S25       1.0  0.35596  0.59065  0.01928  1.0000
  H   H87       1.0  0.24686  0.58384  0.65528  1.0000
  H   H88       1.0  0.42771  0.56253  0.95612  1.0000
  H   H89       1.0  0.35477  0.54466  0.84317  1.0000
  N   N3        1.0  0.40740  0.58212  0.81342  1.0000
  H   H90       1.0  0.24883  0.51766  0.60850  1.0000
  H   H91       1.0  0.27352  0.41589  0.65808  1.0000
  N   N4        1.0  0.15550  0.47226  0.06862  1.0000
  H   H92       1.0  0.23390  0.45738  0.65659  1.0000
  H   H93       1.0  0.64662  0.55930  0.63767  1.0000
  H   H94       1.0  0.38589  0.57342  0.88611  1.0000
  H   H95       1.0  0.18788  0.46691  0.99962  1.0000
  C   C67       1.0  0.28526  0.50892  0.60744  1.0000
  N   N5        1.0  0.29122  0.46431  0.61017  1.0000
  C   C68       1.0  0.33998  0.45418  0.60948  1.0000
  H   H96       1.0  0.21352  0.44765  0.10417  1.0000
  H   H97       1.0  0.34568  0.42079  0.61198  1.0000
  S   S26       1.0  0.22833  0.68502  0.30990  1.0000
  H   H98       1.0  0.20691  0.67083  0.46363  1.0000
  C   C69       1.0  0.31554  0.72762  0.22115  1.0000
  S   S27       1.0  0.31648  0.62583  0.14724  1.0000
  H   H99       1.0  0.41208  0.76171  0.49781  1.0000
  C   C70       1.0  0.20267  0.69860  0.55349  1.0000
  H   H100      1.0  0.21992  0.61658  0.24033  1.0000
  C   C71       1.0  0.16361  0.73873  0.49491  1.0000
  H   H101      1.0  0.34666  0.75292  0.30659  1.0000
  C   C72       1.0  0.25452  0.69290  0.36489  1.0000
  C   C73       1.0  0.27920  0.66150  0.38611  1.0000
  C   C74       1.0  0.30208  0.66867  0.42892  1.0000
  C   C75       1.0  0.30074  0.70743  0.44991  1.0000
  H   H102      1.0  0.30461  0.70323  0.19616  1.0000
  H   H103      1.0  0.17461  0.63577  0.49913  1.0000
  H   H104      1.0  0.28075  0.63171  0.36946  1.0000
  H   H105      1.0  0.32082  0.64430  0.44545  1.0000
  N   N6        1.0  0.35948  0.71786  0.24271  1.0000
  S   S28       1.0  0.39567  0.66984  0.60407  1.0000
  S   S29       1.0  0.20578  0.75405  0.19971  1.0000
  S   S30       1.0  0.32857  0.71768  0.50316  1.0000
  C   C76       1.0  0.62690  0.65897  0.13794  1.0000
  H   H106      1.0  0.19684  0.72160  0.58227  1.0000
  H   H107      1.0  0.42801  0.70658  0.21956  1.0000
  C   C77       1.0  0.39440  0.71457  0.20478  1.0000
  N   N7        1.0  0.16564  0.69872  0.51855  1.0000
  H   H108      1.0  0.23101  0.75458  0.37265  1.0000
  H   H109      1.0  0.39832  0.74373  0.18514  1.0000
  S   S31       1.0  0.29029  0.83887  0.17749  1.0000
  Fe  Fe9       1.0  0.57271  0.83402  0.25948  1.0000
  H   H110      1.0  0.38577  0.69067  0.17807  1.0000
  H   H111      1.0  0.28877  0.73109  0.24898  1.0000
  H   H112      1.0  0.15749  0.76367  0.52124  1.0000
  H   H113      1.0  0.19583  0.74552  0.47593  1.0000
  H   H114      1.0  0.31716  0.75649  0.20067  1.0000
  C   C78       1.0  0.25197  0.73099  0.38709  1.0000
  H   H115      1.0  0.50705  0.73228  0.51393  1.0000
  H   H116      1.0  0.37240  0.78081  0.25888  1.0000
  H   H117      1.0  0.16399  0.67427  0.23840  1.0000
  Fe  Fe10      1.0  0.35774  0.66195  0.53629  1.0000
  Fe  Fe11      1.0  0.20393  0.74392  0.27855  1.0000
  H   H118      1.0  0.51442  0.65294  0.11408  1.0000
  C   C79       1.0  0.27595  0.73855  0.42879  1.0000
  C   C80       1.0  0.37164  0.75056  0.27661  1.0000
  H   H119      1.0  0.38863  0.67027  0.28482  1.0000
  S   S32       1.0  0.44905  0.83014  0.21457  1.0000
  C   C81       1.0  0.54597  0.66554  0.12647  1.0000
  C   C82       1.0  0.35604  0.67870  0.26810  1.0000
  Fe  Fe12      1.0  0.50671  0.78732  0.19904  1.0000
  H   H120      1.0  0.32960  0.67999  0.29665  1.0000
  Fe  Fe13      1.0  0.23024  0.81638  0.21866  1.0000
  S   S33       1.0  0.23437  0.80441  0.29674  1.0000
  H   H121      1.0  0.48776  0.76588  0.38942  1.0000
  H   H122      1.0  0.40561  0.74536  0.29210  1.0000
  H   H123      1.0  0.34660  0.65356  0.24335  1.0000
  S   S34       1.0  0.52719  0.78115  0.27520  1.0000
  H   H124      1.0  0.27457  0.76844  0.44523  1.0000
  H   H125      1.0  0.23591  0.70532  0.53630  1.0000
  H   H126      1.0  0.41904  0.72500  0.39448  1.0000
  H   H127      1.0  0.20583  0.66849  0.57105  1.0000
  H   H128      1.0  0.52231  0.72393  0.40762  1.0000
  S   S35       1.0  0.51959  0.63740  0.57501  1.0000
  H   H129      1.0  0.61081  0.60765  0.58182  1.0000
  N   N8        1.0  0.46418  0.73571  0.45264  1.0000
  H   H130      1.0  0.21111  0.60673  0.17826  1.0000
  H   H131      1.0  0.40529  0.69805  0.44775  1.0000
  C   C83       1.0  0.43803  0.77106  0.47099  1.0000
  C   C84       1.0  0.58757  0.72057  0.16306  1.0000
  C   C85       1.0  0.50123  0.74981  0.42104  1.0000
  C   C86       1.0  0.48338  0.71313  0.49311  1.0000
  H   H132      1.0  0.45643  0.70277  0.51823  1.0000
  C   C87       1.0  0.54665  0.70425  0.14750  1.0000
  S   S36       1.0  0.55680  0.83609  0.18161  1.0000
  C   C88       1.0  0.62777  0.69812  0.15773  1.0000
  H   H133      1.0  0.46022  0.79401  0.48814  1.0000
  H   H134      1.0  0.52399  0.77135  0.43981  1.0000
  H   H135      1.0  0.41948  0.78656  0.44201  1.0000
  Fe  Fe14      1.0  0.44483  0.62523  0.57220  1.0000
  C   C89       1.0  0.43398  0.70878  0.42529  1.0000
  S   S37       1.0  0.49642  0.73243  0.15292  1.0000
  C   C90       1.0  0.58603  0.64279  0.12209  1.0000
  H   H136      1.0  0.45228  0.68139  0.41151  1.0000
  S   S38       1.0  0.41035  0.62206  0.50159  1.0000
  H   H137      1.0  0.50233  0.68548  0.48099  1.0000
  H   H138      1.0  0.58836  0.75039  0.17942  1.0000
  C   C91       1.0  0.17399  0.66646  0.48251  1.0000
  Fe  Fe15      1.0  0.47443  0.82877  0.28910  1.0000
  S   S39       1.0  0.31456  0.61083  0.56253  1.0000
  S   S40       1.0  0.64467  0.83157  0.28440  1.0000
  H   H139      1.0  0.52260  0.83532  0.37132  1.0000
  Fe  Fe16      1.0  0.16234  0.82589  0.29955  1.0000
  C   C92       1.0  0.19804  0.59996  0.21477  1.0000
  H   H140      1.0  0.15886  0.66423  0.17599  1.0000
  S   S41       1.0  0.42762  0.82866  0.35201  1.0000
  H   H141      1.0  0.15997  0.74419  0.11184  1.0000
  H   H142      1.0  0.59696  0.83625  0.59912  1.0000
  H   H143      1.0  0.21485  0.80398  0.10633  1.0000
  H   H144      1.0  0.58528  0.61278  0.10642  1.0000
  H   H145      1.0  0.31283  0.74465  0.90116  1.0000
  Fe  Fe17      1.0  0.29052  0.68843  0.98668  1.0000
  C   C93       1.0  0.27215  0.63499  0.69485  1.0000
  H   H146      1.0  0.63944  0.67157  0.63548  1.0000
  S   S42       1.0  0.25816  0.63703  0.02613  1.0000
  H   H147      1.0  0.24619  0.81697  0.05375  1.0000
  C   C94       1.0  0.21132  0.81396  0.06874  1.0000
  S   S43       1.0  0.32177  0.64821  0.93006  1.0000
  H   H148      1.0  0.65004  0.61254  0.02944  1.0000
  C   C95       1.0  0.51039  0.73498  0.03062  1.0000
  H   H149      1.0  0.23187  0.64427  0.84790  1.0000
  H   H150      1.0  0.28779  0.69060  0.73209  1.0000
  S   S44       1.0  0.32661  0.61440  0.70065  1.0000
  C   C96       1.0  0.55002  0.73062  0.95500  1.0000
  C   C97       1.0  0.45457  0.59331  0.82433  1.0000
  S   S45       1.0  0.16741  0.81073  0.67175  1.0000
  C   C98       1.0  0.26228  0.67383  0.71296  1.0000
  Fe  Fe18      1.0  0.38077  0.64537  0.98002  1.0000
  S   S46       1.0  0.24400  0.74180  0.97624  1.0000
  C   C99       1.0  0.22011  0.69188  0.70428  1.0000
  C   C100      1.0  0.54530  0.60477  0.61599  1.0000
  H   H151      1.0  0.54158  0.72811  0.05083  1.0000
  S   S47       1.0  0.35180  0.69037  0.03306  1.0000
  C   C101      1.0  0.18737  0.67070  0.67851  1.0000
  H   H152      1.0  0.18117  0.82905  0.85430  1.0000
  H   H153      1.0  0.53281  0.70156  0.94580  1.0000
  C   C102      1.0  0.19690  0.63148  0.66144  1.0000
  C   C103      1.0  0.37963  0.61947  0.80977  1.0000
  H   H154      1.0  0.45659  0.60988  0.85902  1.0000
  C   C104      1.0  0.20747  0.66940  0.85525  1.0000
  Fe  Fe19      1.0  0.32158  0.63554  0.06811  1.0000
  C   C105      1.0  0.28427  0.76321  0.89101  1.0000
  H   H155      1.0  0.16789  0.59639  0.84168  1.0000
  H   H156      1.0  0.60103  0.81080  0.87451  1.0000
  H   H157      1.0  0.63104  0.64168  0.97970  1.0000
  C   C106      1.0  0.48088  0.60252  0.97874  1.0000
  H   H158      1.0  0.17163  0.61485  0.64182  1.0000
  H   H159      1.0  0.55886  0.74624  0.92104  1.0000
  C   C107      1.0  0.21012  0.81099  0.86457  1.0000
  C   C108      1.0  0.28527  0.78455  0.84772  1.0000
  Fe  Fe20      1.0  0.17936  0.82342  0.74941  1.0000
  H   H160      1.0  0.17976  0.79221  0.93082  1.0000
  H   H161      1.0  0.55160  0.81290  0.96408  1.0000
  C   C109      1.0  0.24806  0.80835  0.83451  1.0000
  C   C110      1.0  0.20945  0.79035  0.90798  1.0000
  H   H162      1.0  0.46926  0.61327  0.79624  1.0000
  H   H163      1.0  0.21354  0.72256  0.71654  1.0000
  H   H164      1.0  0.45550  0.78524  0.98335  1.0000
  H   H165      1.0  0.48481  0.59630  0.65819  1.0000
  H   H166      1.0  0.31439  0.78207  0.82410  1.0000
  C   C111      1.0  0.23945  0.61390  0.66905  1.0000
  C   C112      1.0  0.24640  0.76651  0.92128  1.0000
  H   H167      1.0  0.22459  0.69207  0.87831  1.0000
  H   H168      1.0  0.53936  0.63391  0.00542  1.0000
  C   C113      1.0  0.47826  0.76573  0.96098  1.0000
  H   H169      1.0  0.20037  0.68431  0.82056  1.0000
  N   N9        1.0  0.52085  0.75657  0.98583  1.0000
  S   S48       1.0  0.45421  0.64677  0.95754  1.0000
  H   H170      1.0  0.18032  0.68170  0.06706  1.0000
  H   H171      1.0  0.19077  0.65904  0.94960  1.0000
  H   H172      1.0  0.38124  0.63824  0.84281  1.0000
  H   H173      1.0  0.19451  0.78902  0.04867  1.0000
  H   H174      1.0  0.58220  0.72280  0.97296  1.0000
  H   H175      1.0  0.48792  0.75355  0.05443  1.0000
  Fe  Fe21      1.0  0.29448  0.59665  0.97396  1.0000
  H   H176      1.0  0.34347  0.61210  0.80336  1.0000
  C   C114      1.0  0.62178  0.82790  0.84982  1.0000
  H   H177      1.0  0.45942  0.73740  0.95232  1.0000
  H   H178      1.0  0.49276  0.70564  0.02400  1.0000
  C   C115      1.0  0.54466  0.79491  0.99687  1.0000
  S   S49       1.0  0.24800  0.83441  0.78028  1.0000
  H   H179      1.0  0.39108  0.63879  0.77948  1.0000
  H   H180      1.0  0.48473  0.78237  0.92716  1.0000
  C   C116      1.0  0.52283  0.60483  0.00138  1.0000
  H   H181      1.0  0.52413  0.81459  0.02131  1.0000
  H   H182      1.0  0.57747  0.78909  0.01464  1.0000
  H   H183      1.0  0.43670  0.84122  0.04057  1.0000
  N   N10       1.0  0.16557  0.65421  0.87816  1.0000
  C   C117      1.0  0.59128  0.59499  0.61096  1.0000
  H   H184      1.0  0.20106  0.61074  0.92108  1.0000
  Fe  Fe22      1.0  0.35735  0.61488  0.62762  1.0000
  C   C118      1.0  0.17626  0.63610  0.92478  1.0000
  C   C119      1.0  0.27049  0.95870  0.20404  1.0000
  S   S50       1.0  0.16109  0.84460  0.22277  1.0000
  H   H185      1.0  0.17052  0.00697  0.48226  1.0000
  H   H186      1.0  0.35046  0.93171  0.28261  1.0000
  H   H187      1.0  0.35277  0.00732  0.28097  1.0000
  H   H188      1.0  0.23298  0.90354  0.21468  1.0000
  C   C120      1.0  0.26451  0.91643  0.20247  1.0000
  C   C121      1.0  0.29885  0.89131  0.18396  1.0000
  H   H189      1.0  0.40540  0.00255  0.24895  1.0000
  H   H190      1.0  0.34114  0.97205  0.35754  1.0000
  H   H191      1.0  0.24344  0.97823  0.21716  1.0000
  C   C122      1.0  0.31143  0.97568  0.18879  1.0000
  C   C123      1.0  0.34641  0.95048  0.17185  1.0000
  C   C124      1.0  0.39004  0.00464  0.28535  1.0000
  H   H192      1.0  0.44382  0.86605  0.12333  1.0000
  H   H193      1.0  0.64826  0.90404  0.22803  1.0000
  S   S51       1.0  0.31816  0.02847  0.18912  1.0000
  H   H194      1.0  0.39489  0.90383  0.31114  1.0000
  C   C125      1.0  0.37857  0.97205  0.36132  1.0000
  H   H195      1.0  0.40174  0.03350  0.30204  1.0000
  H   H196      1.0  0.38814  0.08375  0.12316  1.0000
  C   C126      1.0  0.17745  0.97375  0.48552  1.0000
  H   H197      1.0  0.37819  0.96349  0.16002  1.0000
  H   H198      1.0  0.38774  0.94628  0.38488  1.0000
  S   S52       1.0  0.19334  0.05193  0.14170  1.0000
  C   C127      1.0  0.45668  0.85468  0.39671  1.0000
  N   N11       1.0  0.40185  0.96891  0.31446  1.0000
  H   H199      1.0  0.40520  0.92762  0.25464  1.0000
  C   C128      1.0  0.33987  0.90833  0.16884  1.0000
  C   C129      1.0  0.65416  0.07837  0.42926  1.0000
  H   H200      1.0  0.39635  0.87876  0.43049  1.0000
  H   H201      1.0  0.43832  0.91847  0.49111  1.0000
  Fe  Fe23      1.0  0.26916  0.05319  0.13644  1.0000
  S   S53       1.0  0.34356  0.02591  0.48233  1.0000
  H   H202      1.0  0.15648  0.89770  0.51231  1.0000
  C   C130      1.0  0.38745  0.93136  0.28970  1.0000
  H   H203      1.0  0.62671  0.96299  0.36567  1.0000
  C   C131      1.0  0.45132  0.96764  0.32139  1.0000
  C   C132      1.0  0.43293  0.87755  0.43103  1.0000
  H   H204      1.0  0.55574  0.87261  0.58020  1.0000
  Fe  Fe24      1.0  0.50431  0.07063  0.46168  1.0000
  C   C133      1.0  0.22854  0.08120  0.52750  1.0000
  H   H205      1.0  0.46135  0.94122  0.34369  1.0000
  H   H206      1.0  0.36658  0.88896  0.15471  1.0000
  C   C134      1.0  0.63720  0.90840  0.58616  1.0000
  H   H207      1.0  0.19281  0.07862  0.52061  1.0000
  H   H208      1.0  0.63538  0.94015  0.18267  1.0000
  H   H209      1.0  0.18581  0.96785  0.52344  1.0000
  S   S54       1.0  0.46727  0.01291  0.44645  1.0000
  C   C135      1.0  0.32141  0.08834  0.54417  1.0000
  S   S55       1.0  0.52126  0.88148  0.27998  1.0000
  H   H210      1.0  0.46349  0.99570  0.33951  1.0000
  Fe  Fe25      1.0  0.50304  0.98844  0.50976  1.0000
  S   S56       1.0  0.53371  0.92634  0.50833  1.0000
  H   H211      1.0  0.46984  0.96500  0.28666  1.0000
  H   H212      1.0  0.24795  0.03469  0.47655  1.0000
  H   H213      1.0  0.61788  0.91924  0.55486  1.0000
  C   C136      1.0  0.50393  0.89788  0.46641  1.0000
  C   C137      1.0  0.52754  0.87396  0.43304  1.0000
  C   C138      1.0  0.50396  0.85295  0.39771  1.0000
  H   H214      1.0  0.15725  0.95042  0.39583  1.0000
  H   H215      1.0  0.56416  0.87290  0.43337  1.0000
  H   H216      1.0  0.17782  0.89653  0.45184  1.0000
  H   H217      1.0  0.20895  0.87577  0.13270  1.0000
  C   C139      1.0  0.63304  0.90430  0.33163  1.0000
  C   C140      1.0  0.45662  0.89987  0.46532  1.0000
  H   H218      1.0  0.38758  0.00069  0.38037  1.0000
  H   H219      1.0  0.46965  0.06942  0.13215  1.0000
  Fe  Fe26      1.0  0.48877  0.06494  0.56763  1.0000
  C   C141      1.0  0.25960  0.05628  0.50275  1.0000
  H   H220      1.0  0.60251  0.90802  0.31177  1.0000
  C   C142      1.0  0.30593  0.05937  0.51156  1.0000
  S   S57       1.0  0.54571  0.04364  0.52002  1.0000
  S   S58       1.0  0.48892  0.93580  0.16287  1.0000
  H   H221      1.0  0.62048  0.08088  0.44718  1.0000
  S   S59       1.0  0.44929  0.00689  0.56221  1.0000
  Fe  Fe27      1.0  0.50098  0.87875  0.20382  1.0000
  Fe  Fe28      1.0  0.41646  0.03645  0.49969  1.0000
  H   H222      1.0  0.64116  0.95674  0.24352  1.0000
  C   C143      1.0  0.64711  0.93570  0.36181  1.0000
  H   H223      1.0  0.20814  0.96665  0.46353  1.0000
  H   H224      1.0  0.45932  0.01703  0.11780  1.0000
  H   H225      1.0  0.35720  0.09131  0.55044  1.0000
  H   H226      1.0  0.37753  0.03187  0.10664  1.0000
  H   H227      1.0  0.51803  0.96988  0.07377  1.0000
  C   C144      1.0  0.36754  0.03606  0.85955  1.0000
  H   H228      1.0  0.30253  0.93880  0.85006  1.0000
  C   C145      1.0  0.20836  0.88414  0.09443  1.0000
  C   C146      1.0  0.46718  0.04733  0.10210  1.0000
  H   H229      1.0  0.36813  0.95765  0.90138  1.0000
  S   S60       1.0  0.27312  0.02542  0.06342  1.0000
  C   C147      1.0  0.34132  0.03670  0.65026  1.0000
  N   N12       1.0  0.33416  0.90019  0.90148  1.0000
  H   H230      1.0  0.30009  0.01131  0.86191  1.0000
  C   C148      1.0  0.49945  0.94231  0.06652  1.0000
  C   C149      1.0  0.38284  0.08846  0.91823  1.0000
  H   H231      1.0  0.27572  0.05271  0.93235  1.0000
  H   H232      1.0  0.58429  0.07571  0.86821  1.0000
  S   S61       1.0  0.38774  0.00264  0.81497  1.0000
  C   C150      1.0  0.63200  0.88709  0.79942  1.0000
  H   H233      1.0  0.46323  0.02745  0.00935  1.0000
  N   N13       1.0  0.18566  0.85256  0.06572  1.0000
  C   C151      1.0  0.30954  0.05589  0.91764  1.0000
  C   C152      1.0  0.32331  0.03261  0.87773  1.0000
  H   H234      1.0  0.19091  0.91408  0.09192  1.0000
  Fe  Fe29      1.0  0.19750  0.02987  0.06599  1.0000
  H   H235      1.0  0.35980  0.03013  0.61621  1.0000
  C   C153      1.0  0.36542  0.88250  0.86531  1.0000
  C   C154      1.0  0.40998  0.03422  0.69595  1.0000
  C   C155      1.0  0.18377  0.86567  0.01552  1.0000
  C   C156      1.0  0.38783  0.06208  0.09252  1.0000
  H   H236      1.0  0.31040  0.05438  0.64128  1.0000
  H   H237      1.0  0.33010  0.00707  0.66522  1.0000
  C   C157      1.0  0.35683  0.93384  0.92671  1.0000
  C   C158      1.0  0.45438  0.86932  0.04760  1.0000
  H   H238      1.0  0.24415  0.88849  0.08278  1.0000
  C   C159      1.0  0.29341  0.91584  0.87756  1.0000
  H   H239      1.0  0.43135  0.02790  0.66386  1.0000
  H   H240      1.0  0.60040  0.95829  0.65239  1.0000
  Fe  Fe30      1.0  0.27126  0.08994  0.03844  1.0000
  C   C160      1.0  0.43018  0.02971  0.02871  1.0000
  H   H241      1.0  0.55596  0.92495  0.67110  1.0000
  C   C161      1.0  0.47371  0.89135  0.01017  1.0000
  C   C162      1.0  0.32114  0.86864  0.93628  1.0000
  H   H242      1.0  0.38728  0.92291  0.94586  1.0000
  C   C163      1.0  0.57698  0.86338  0.61075  1.0000
  H   H243      1.0  0.40000  0.00452  0.71166  1.0000
  Fe  Fe31      1.0  0.49546  0.92319  0.90501  1.0000
  S   S62       1.0  0.48609  0.92259  0.82620  1.0000
  Fe  Fe32      1.0  0.53098  0.01005  0.90715  1.0000
  S   S63       1.0  0.52438  0.01747  0.82791  1.0000
  C   C164      1.0  0.49608  0.92792  0.01967  1.0000
  Fe  Fe33      1.0  0.45782  0.98538  0.83730  1.0000
  Fe  Fe34      1.0  0.55361  0.95394  0.82453  1.0000
  S   S64       1.0  0.61143  0.93346  0.77695  1.0000
  S   S65       1.0  0.46229  0.98336  0.91640  1.0000
  S   S66       1.0  0.56527  0.94924  0.90318  1.0000
  S   S67       1.0  0.55064  0.05614  0.96274  1.0000
  C   C165      1.0  0.63404  0.88319  0.66675  1.0000
  H   H244      1.0  0.39653  0.87010  0.88192  1.0000
  C   C166      1.0  0.39718  0.06404  0.87985  1.0000
  H   H245      1.0  0.40407  0.03828  0.00228  1.0000
  H   H246      1.0  0.27498  0.89104  0.85889  1.0000
  N   N14       1.0  0.60679  0.89688  0.62605  1.0000
  H   H247      1.0  0.33389  0.94882  0.95330  1.0000
  S   S68       1.0  0.47090  0.87286  0.95165  1.0000
  H   H248      1.0  0.16467  0.89479  0.01205  1.0000
  H   H249      1.0  0.51199  0.94473  0.99124  1.0000
  H   H250      1.0  0.37632  0.90581  0.83889  1.0000
  H   H251      1.0  0.61217  0.87395  0.69736  1.0000
  H   H252      1.0  0.55769  0.94338  0.61078  1.0000
  H   H253      1.0  0.36092  0.07248  0.06806  1.0000
  H   H254      1.0  0.65112  0.07511  0.99840  1.0000
  N   N15       1.0  0.43224  0.05985  0.06790  1.0000
  H   H255      1.0  0.43135  0.06694  0.86599  1.0000
  H   H256      1.0  0.42179  0.99884  0.04226  1.0000
  C   C167      1.0  0.60542  0.86452  0.83118  1.0000
  C   C168      1.0  0.57896  0.93243  0.64068  1.0000
  H   H257      1.0  0.57203  0.87509  0.84134  1.0000
  H   H258      1.0  0.26940  0.93048  0.90333  1.0000
  H   H259      1.0  0.21822  0.87049  0.00035  1.0000
  C   C169      1.0  0.33938  0.08392  0.93781  1.0000
  N   N16       1.0  0.36997  0.05919  0.68418  1.0000
  H   H260      1.0  0.29859  0.88131  0.96474  1.0000
  H   H261      1.0  0.16670  0.84254  0.99299  1.0000
  H   H262      1.0  0.55362  0.85398  0.64005  1.0000
  H   H263      1.0  0.65156  0.98651  0.96799  1.0000
  H   H264      1.0  0.33074  0.03966  0.74479  1.0000
  H   H265      1.0  0.43188  0.04996  0.72225  1.0000
  H   H266      1.0  0.34905  0.85735  0.84512  1.0000
  H   H267      1.0  0.63950  0.02835  0.92949  1.0000
  C   C170      1.0  0.34362  0.06810  0.72817  1.0000
  H   H268      1.0  0.50110  0.04513  0.08453  1.0000
  H   H269      1.0  0.35144  0.85543  0.95382  1.0000
  C   C171      1.0  0.45841  0.88340  0.09454  1.0000
  C   C172      1.0  0.48095  0.91987  0.10404  1.0000
  H   H270      1.0  0.31387  0.08786  0.72092  1.0000
  H   H271      1.0  0.36471  0.08370  0.75532  1.0000
  H   H272      1.0  0.30283  0.84328  0.91883  1.0000
  Fe  Fe35      1.0  0.74848  0.24006  0.32964  1.0000
  S   S69       1.0  0.81519  0.26899  0.34423  1.0000
  S   S70       1.0  0.73725  0.21700  0.25549  1.0000
  S   S71       1.0  0.77752  0.28584  0.45349  1.0000
  C   C173      1.0  0.82811  0.10237  0.54671  1.0000
  H   H273      1.0  0.70139  0.26627  0.57444  1.0000
  H   H274      1.0  0.02773  0.14226  0.11771  1.0000
  Fe  Fe36      1.0  0.81227  0.23508  0.41321  1.0000
  H   H275      1.0  0.12960  0.28398  0.44120  1.0000
  H   H276      1.0  0.71216  0.14237  0.50151  1.0000
  S   S72       1.0  0.74879  0.20199  0.39547  1.0000
  C   C174      1.0  0.85449  0.16142  0.48030  1.0000
  C   C175      1.0  0.81422  0.16639  0.50650  1.0000
  C   C176      1.0  0.80172  0.13739  0.54073  1.0000
  C   C177      1.0  0.75330  0.09862  0.29007  1.0000
  C   C178      1.0  0.15324  0.26346  0.21521  1.0000
  H   H277      1.0  0.79324  0.19300  0.50110  1.0000
  H   H278      1.0  0.77122  0.14172  0.56200  1.0000
  C   C179      1.0  0.11582  0.28484  0.40446  1.0000
  H   H279      1.0  0.81322  0.09814  0.18571  1.0000
  H   H280      1.0  0.11679  0.24463  0.15282  1.0000
  H   H281      1.0  0.75640  0.28364  0.18944  1.0000
  C   C180      1.0  0.77776  0.15007  0.21504  1.0000
  N   N17       1.0  0.10052  0.24416  0.38881  1.0000
  C   C181      1.0  0.88196  0.12742  0.48823  1.0000
  C   C182      1.0  0.75192  0.16529  0.25333  1.0000
  H   H282      1.0  0.67007  0.21995  0.58015  1.0000
  S   S73       1.0  0.70716  0.29034  0.36223  1.0000
  C   C183      1.0  0.73933  0.13943  0.29062  1.0000
  H   H283      1.0  0.78758  0.17001  0.18620  1.0000
  H   H284      1.0  0.67656  0.29737  0.17005  1.0000
  H   H285      1.0  0.71805  0.15074  0.31938  1.0000
  H   H286      1.0  0.91393  0.12440  0.46951  1.0000
  Fe  Fe37      1.0  0.71367  0.25530  0.42996  1.0000
  S   S74       1.0  0.87105  0.19717  0.43748  1.0000
  H   H287      1.0  0.92605  0.16872  0.56698  1.0000
  H   H288      1.0  0.85662  0.11880  0.37789  1.0000
  H   H289      1.0  0.13666  0.29281  0.21748  1.0000
  H   H290      1.0  0.68637  0.15299  0.44550  1.0000
  H   H291      1.0  0.15405  0.21299  0.42519  1.0000
  Fe  Fe38      1.0  0.13401  0.12656  0.57215  1.0000
  Fe  Fe39      1.0  0.77405  0.31675  0.38237  1.0000
  C   C184      1.0  0.90963  0.19091  0.59182  1.0000
  C   C185      1.0  0.06471  0.22960  0.42170  1.0000
  H   H292      1.0  0.14311  0.29661  0.38056  1.0000
  C   C186      1.0  0.13973  0.29298  0.55865  1.0000
  H   H293      1.0  0.07702  0.22804  0.45890  1.0000
  H   H294      1.0  0.05290  0.26784  0.33850  1.0000
  S   S75       1.0  0.00659  0.11711  0.54283  1.0000
  C   C187      1.0  0.12647  0.33286  0.56991  1.0000
  C   C188      1.0  0.14184  0.23606  0.17872  1.0000
  S   S76       1.0  0.10571  0.15069  0.50418  1.0000
  H   H295      1.0  0.01220  0.32119  0.56472  1.0000
  C   C189      1.0  0.06088  0.27303  0.55362  1.0000
  Fe  Fe40      1.0  0.04886  0.17302  0.55092  1.0000
  C   C190      1.0  0.68304  0.24664  0.60041  1.0000
  H   H296      1.0  0.79234  0.32426  0.20831  1.0000
  C   C191      1.0  0.04777  0.31326  0.56289  1.0000
  H   H297      1.0  0.11740  0.23188  0.54441  1.0000
  C   C192      1.0  0.79226  0.10938  0.21479  1.0000
  C   C193      1.0  0.10693  0.26291  0.55125  1.0000
  H   H298      1.0  0.10831  0.25815  0.31443  1.0000
  S   S77       1.0  0.01935  0.23560  0.54692  1.0000
  C   C194      1.0  0.68544  0.33005  0.16543  1.0000
  H   H299      1.0  0.90579  0.12276  0.30650  1.0000
  H   H300      1.0  0.12902  0.18439  0.37757  1.0000
  C   C195      1.0  0.08236  0.24673  0.34006  1.0000
  S   S78       1.0  0.14737  0.16411  0.12942  1.0000
  C   C196      1.0  0.68535  0.13248  0.47666  1.0000
  C   C197      1.0  0.71000  0.33510  0.24682  1.0000
  H   H301      1.0  0.98860  0.10050  0.12235  1.0000
  C   C198      1.0  0.76350  0.31668  0.18474  1.0000
  H   H302      1.0  0.70148  0.30260  0.25338  1.0000
  H   H303      1.0  0.77489  0.32126  0.14721  1.0000
  H   H304      1.0  0.08763  0.30735  0.40430  1.0000
  H   H305      1.0  0.69415  0.33487  0.12717  1.0000
  H   H306      1.0  0.93990  0.11604  0.38668  1.0000
  S   S79       1.0  0.65580  0.24631  0.48122  1.0000
  H   H307      1.0  0.05286  0.19864  0.41164  1.0000
  H   H308      1.0  0.03472  0.25023  0.42218  1.0000
  C   C199      1.0  0.86819  0.09731  0.52036  1.0000
  H   H309      1.0  0.73768  0.10430  0.40537  1.0000
  H   H310      1.0  0.07137  0.21642  0.32675  1.0000
  C   C200      1.0  0.13921  0.21548  0.38906  1.0000
  H   H311      1.0  0.87397  0.19469  0.58042  1.0000
  H   H312      1.0  0.92689  0.22063  0.58651  1.0000
  H   H313      1.0  0.09068  0.09401  0.12394  1.0000
  H   H314      1.0  0.76366  0.09233  0.46115  1.0000
  Fe  Fe41      1.0  0.06643  0.09244  0.50211  1.0000
  Fe  Fe42      1.0  0.78204  0.12722  0.81298  1.0000
  H   H315      1.0  0.88641  0.15108  0.96435  1.0000
  Fe  Fe43      1.0  0.72867  0.16068  0.73005  1.0000
  S   S80       1.0  0.80297  0.15489  0.74330  1.0000
  N   N18       1.0  0.91215  0.17729  0.64184  1.0000
  H   H316      1.0  0.78937  0.25133  0.68752  1.0000
  S   S81       1.0  0.72109  0.22258  0.76293  1.0000
  C   C201      1.0  0.87313  0.12150  0.95494  1.0000
  S   S82       1.0  0.84252  0.26544  0.77217  1.0000
  C   C202      1.0  0.82434  0.29785  0.72698  1.0000
  C   C203      1.0  0.70484  0.31952  0.87534  1.0000
  H   H317      1.0  0.89112  0.12606  0.68396  1.0000
  C   C204      1.0  0.85438  0.11518  0.90978  1.0000
  C   C205      1.0  0.96000  0.17264  0.65545  1.0000
  H   H318      1.0  0.07333  0.28605  0.71285  1.0000
  H   H319      1.0  0.85405  0.13970  0.88439  1.0000
  S   S83       1.0  0.70831  0.12676  0.79579  1.0000
  C   C206      1.0  0.79784  0.28325  0.68961  1.0000
  C   C207      1.0  0.09141  0.26280  0.69050  1.0000
  S   S84       1.0  0.70380  0.15017  0.65607  1.0000
  Fe  Fe44      1.0  0.79385  0.21425  0.78156  1.0000
  S   S85       1.0  0.77918  0.18651  0.85275  1.0000
  C   C208      1.0  0.14000  0.24593  0.75598  1.0000
  H   H320      1.0  0.85378  0.21175  0.66419  1.0000
  C   C209      1.0  0.06695  0.11834  0.03540  1.0000
  H   H321      1.0  0.70068  0.29228  0.85194  1.0000
  H   H322      1.0  0.97933  0.20118  0.64928  1.0000
  C   C210      1.0  0.66479  0.30275  0.65332  1.0000
  S   S86       1.0  0.89685  0.09845  0.04491  1.0000
  H   H323      1.0  0.74655  0.32797  0.78919  1.0000
  H   H324      1.0  0.78855  0.30459  0.91016  1.0000
  H   H325      1.0  0.07257  0.23367  0.69350  1.0000
  H   H326      1.0  0.12351  0.26938  0.77940  1.0000
  C   C211      1.0  0.78622  0.31375  0.87216  1.0000
  C   C212      1.0  0.78241  0.31009  0.65459  1.0000
  H   H327      1.0  0.68383  0.32457  0.63041  1.0000
  H   H328      1.0  0.68849  0.29121  0.68067  1.0000
  H   H329      1.0  0.90410  0.11415  0.62289  1.0000
  H   H330      1.0  0.04439  0.13475  0.01047  1.0000
  C   C213      1.0  0.89003  0.20789  0.67320  1.0000
  C   C214      1.0  0.88889  0.13776  0.64694  1.0000
  H   H331      1.0  0.70400  0.30843  0.91276  1.0000
  H   H332      1.0  0.08707  0.14166  0.05471  1.0000
  H   H333      1.0  0.12197  0.21669  0.76191  1.0000
  H   H334      1.0  0.90635  0.23826  0.66994  1.0000
  N   N19       1.0  0.13894  0.25803  0.70534  1.0000
  H   H335      1.0  0.96314  0.16421  0.69364  1.0000
  Fe  Fe45      1.0  0.70692  0.18849  0.83024  1.0000
  H   H336      1.0  0.98501  0.13499  0.07339  1.0000
  S   S87       1.0  0.07980  0.15328  0.61913  1.0000
  H   H337      1.0  0.85238  0.14024  0.63799  1.0000
  H   H338      1.0  0.08931  0.27293  0.65285  1.0000
  H   H339      1.0  0.89152  0.19901  0.71138  1.0000
  H   H340      1.0  0.03695  0.32303  0.87811  1.0000
  H   H341      1.0  0.76287  0.29875  0.62514  1.0000
  H   H342      1.0  0.70811  0.23488  0.62621  1.0000
  H   H343      1.0  0.97682  0.14799  0.63449  1.0000
  H   H344      1.0  0.78326  0.28535  0.85065  1.0000
  Fe  Fe46      1.0  0.04354  0.09464  0.60679  1.0000
  C   C215      1.0  0.00916  0.11880  0.09690  1.0000
  H   H345      1.0  0.14600  0.32158  0.72118  1.0000
  H   H346      1.0  0.14571  0.19613  0.68036  1.0000
  N   N20       1.0  0.04072  0.09280  0.06889  1.0000
  H   H347      1.0  0.09118  0.09972  0.01369  1.0000
  H   H348      1.0  0.81883  0.32827  0.86169  1.0000
  C   C216      1.0  0.83519  0.33910  0.72936  1.0000
  S   S88       1.0  0.65519  0.20943  0.88399  1.0000
  N   N21       1.0  0.74739  0.34130  0.86436  1.0000
  H   H349      1.0  0.67473  0.33944  0.87050  1.0000
  C   C217      1.0  0.08052  0.34302  0.57149  1.0000
  C   C218      1.0  0.74379  0.40720  0.34155  1.0000
  S   S89       1.0  0.78983  0.38247  0.36785  1.0000
  H   H350      1.0  0.76939  0.49808  0.53559  1.0000
  C   C219      1.0  0.05467  0.45618  0.51942  1.0000
  H   H351      1.0  0.11355  0.51745  0.51231  1.0000
  N   N22       1.0  0.72324  0.34180  0.19654  1.0000
  H   H352      1.0  0.87146  0.51971  0.15507  1.0000
  C   C220      1.0  0.79734  0.47538  0.53413  1.0000
  H   H353      1.0  0.80414  0.52737  0.23824  1.0000
  H   H354      1.0  0.79444  0.45638  0.56667  1.0000
  H   H355      1.0  0.67985  0.35370  0.25720  1.0000
  H   H356      1.0  0.74388  0.41090  0.51939  1.0000
  S   S90       1.0  0.70460  0.51990  0.17158  1.0000
  H   H357      1.0  0.06657  0.46688  0.55485  1.0000
  H   H358      1.0  0.95917  0.52827  0.57467  1.0000
  C   C221      1.0  0.86665  0.58907  0.56861  1.0000
  H   H359      1.0  0.80060  0.45867  0.41453  1.0000
  C   C222      1.0  0.75028  0.43060  0.48786  1.0000
  C   C223      1.0  0.82210  0.58566  0.58517  1.0000
  H   H360      1.0  0.92152  0.51685  0.19021  1.0000
  C   C224      1.0  0.71490  0.45328  0.28167  1.0000
  H   H361      1.0  0.87167  0.48957  0.20812  1.0000
  C   C225      1.0  0.80200  0.47652  0.44828  1.0000
  C   C226      1.0  0.75147  0.43634  0.30622  1.0000
  H   H362      1.0  0.86497  0.43235  0.49365  1.0000
  H   H363      1.0  0.07153  0.52288  0.46682  1.0000
  N   N23       1.0  0.79510  0.45029  0.49037  1.0000
  H   H364      1.0  0.72110  0.47506  0.25388  1.0000
  H   H365      1.0  0.06419  0.41324  0.43776  1.0000
  H   H366      1.0  0.82609  0.39817  0.52268  1.0000
  H   H367      1.0  0.77565  0.50071  0.44636  1.0000
  H   H368      1.0  0.78573  0.44484  0.29678  1.0000
  H   H369      1.0  0.74763  0.41101  0.45552  1.0000
  H   H370      1.0  0.83543  0.49201  0.44904  1.0000
  H   H371      1.0  0.72250  0.45350  0.48649  1.0000
  C   C227      1.0  0.79665  0.57896  0.50366  1.0000
  C   C228      1.0  0.83073  0.41863  0.49145  1.0000
  H   H372      1.0  0.83009  0.39916  0.45884  1.0000
  H   H373      1.0  0.69316  0.37528  0.38240  1.0000
  C   C229      1.0  0.88392  0.51852  0.19228  1.0000
  H   H374      1.0  0.80539  0.58193  0.24259  1.0000
  S   S91       1.0  0.07296  0.43479  0.19115  1.0000
  H   H375      1.0  0.02377  0.47414  0.51113  1.0000
  Fe  Fe47      1.0  0.13402  0.41718  0.23228  1.0000
  C   C230      1.0  0.69945  0.39674  0.35410  1.0000
  H   H376      1.0  0.13714  0.56977  0.27729  1.0000
  H   H377      1.0  0.87339  0.52352  0.28763  1.0000
  C   C231      1.0  0.99224  0.54223  0.57594  1.0000
  C   C232      1.0  0.07302  0.44607  0.43603  1.0000
  C   C233      1.0  0.81836  0.55533  0.22169  1.0000
  H   H378      1.0  0.04240  0.46321  0.42489  1.0000
  H   H379      1.0  0.04829  0.54531  0.30747  1.0000
  N   N24       1.0  0.86838  0.55427  0.22036  1.0000
  H   H380      1.0  0.02191  0.49507  0.14304  1.0000
  C   C234      1.0  0.73391  0.38526  0.18931  1.0000
  H   H381      1.0  0.12835  0.51004  0.45102  1.0000
  C   C235      1.0  0.01939  0.55884  0.23919  1.0000
  H   H382      1.0  0.12857  0.49161  0.13647  1.0000
  H   H383      1.0  0.87485  0.57806  0.29166  1.0000
  C   C236      1.0  0.05934  0.49614  0.25711  1.0000
  C   C237      1.0  0.66291  0.41402  0.32994  1.0000
  S   S92       1.0  0.98164  0.57521  0.39041  1.0000
  C   C238      1.0  0.02776  0.50604  0.17886  1.0000
  S   S93       1.0  0.13455  0.39224  0.30634  1.0000
  H   H384      1.0  0.09890  0.44959  0.40716  1.0000
  C   C239      1.0  0.67055  0.44155  0.29285  1.0000
  H   H385      1.0  0.76216  0.39520  0.21242  1.0000
  H   H386      1.0  0.99555  0.56381  0.16713  1.0000
  C   C240      1.0  0.13092  0.43798  0.49523  1.0000
  C   C241      1.0  0.00774  0.56586  0.53759  1.0000
  H   H387      1.0  0.12377  0.40488  0.49833  1.0000
  H   H388      1.0  0.12258  0.55618  0.19330  1.0000
  H   H389      1.0  0.82982  0.49234  0.53612  1.0000
  C   C242      1.0  0.01252  0.54476  0.19271  1.0000
  H   H390      1.0  0.07800  0.47755  0.28182  1.0000
  H   H391      1.0  0.04453  0.42380  0.52306  1.0000
  C   C243      1.0  0.04241  0.53438  0.27166  1.0000
  C   C244      1.0  0.05163  0.48189  0.21074  1.0000
  N   N25       1.0  0.09001  0.46118  0.48218  1.0000
  H   H392      1.0  0.80427  0.55757  0.18516  1.0000
  H   H393      1.0  0.98684  0.56986  0.50667  1.0000
  H   H394      1.0  0.70415  0.40498  0.19797  1.0000
  H   H395      1.0  0.14448  0.44841  0.53000  1.0000
  C   C245      1.0  0.10133  0.50473  0.47802  1.0000
  C   C246      1.0  0.05118  0.58258  0.53828  1.0000
  H   H396      1.0  0.07013  0.37384  0.57957  1.0000
  H   H397      1.0  0.92338  0.55060  0.26962  1.0000
  C   C247      1.0  0.78700  0.58026  0.55279  1.0000
  C   C248      1.0  0.12245  0.58940  0.18584  1.0000
  H   H398      1.0  0.74404  0.39153  0.15168  1.0000
  S   S94       1.0  0.85369  0.58195  0.42598  1.0000
  C   C249      1.0  0.88571  0.55144  0.26945  1.0000
  C   C250      1.0  0.07860  0.57668  0.57788  1.0000
  H   H399      1.0  0.76951  0.57559  0.47844  1.0000
  Fe  Fe48      1.0  0.66106  0.56389  0.13220  1.0000
  C   C251      1.0  0.84133  0.58295  0.48715  1.0000
  H   H400      1.0  0.75242  0.57774  0.56549  1.0000
  H   H401      1.0  0.73783  0.34331  0.27141  1.0000
  H   H402      1.0  0.91075  0.58944  0.50724  1.0000
  H   H403      1.0  0.11223  0.58949  0.57867  1.0000
  C   C252      1.0  0.87624  0.58750  0.51973  1.0000
  C   C253      1.0  0.79246  0.53701  0.08120  1.0000
  S   S95       1.0  0.71862  0.50041  0.63229  1.0000
  C   C254      1.0  0.96990  0.42376  0.80832  1.0000
  C   C255      1.0  0.81766  0.36612  0.69590  1.0000
  S   S96       1.0  0.66469  0.53031  0.06273  1.0000
  S   S97       1.0  0.09561  0.47101  0.75394  1.0000
  C   C256      1.0  0.04658  0.35404  0.88613  1.0000
  H   H404      1.0  0.78346  0.39398  0.88905  1.0000
  C   C257      1.0  0.74741  0.35447  0.81408  1.0000
  C   C258      1.0  0.82985  0.58788  0.89730  1.0000
  H   H405      1.0  0.10942  0.43165  0.84147  1.0000
  C   C259      1.0  0.11146  0.45764  0.05119  1.0000
  H   H406      1.0  0.00201  0.49968  0.79408  1.0000
  H   H407      1.0  0.82526  0.39797  0.69891  1.0000
  H   H408      1.0  0.12820  0.52996  0.09115  1.0000
  C   C260      1.0  0.02057  0.53488  0.61457  1.0000
  H   H409      1.0  0.75024  0.36894  0.93409  1.0000
  H   H410      1.0  0.09200  0.48249  0.03425  1.0000
  H   H411      1.0  0.77826  0.37242  0.80519  1.0000
  S   S98       1.0  0.13367  0.47482  0.64223  1.0000
  S   S99       1.0  0.79970  0.46586  0.82752  1.0000
  C   C261      1.0  0.75120  0.37742  0.89575  1.0000
  C   C262      1.0  0.82667  0.55280  0.92514  1.0000
  C   C263      1.0  0.81344  0.51239  0.85425  1.0000
  S   S100      1.0  0.81184  0.47987  0.69132  1.0000
  H   H412      1.0  0.81462  0.48818  0.92548  1.0000
  Fe  Fe49      1.0  0.68297  0.50007  0.70353  1.0000
  Fe  Fe50      1.0  0.75462  0.44495  0.65941  1.0000
  C   C264      1.0  0.81874  0.54722  0.82624  1.0000
  Fe  Fe51      1.0  0.13951  0.40727  0.64563  1.0000
  C   C265      1.0  0.86759  0.56183  0.06254  1.0000
  C   C266      1.0  0.88158  0.52202  0.05174  1.0000
  C   C267      1.0  0.06975  0.43471  0.90612  1.0000
  S   S101      1.0  0.71413  0.44131  0.72716  1.0000
  Fe  Fe52      1.0  0.77206  0.53496  0.67151  1.0000
  S   S102      1.0  0.81075  0.58917  0.64633  1.0000
  H   H413      1.0  0.00733  0.48611  0.85569  1.0000
  Fe  Fe53      1.0  0.76876  0.48016  0.75719  1.0000
  C   C268      1.0  0.81827  0.51504  0.90364  1.0000
  H   H414      1.0  0.82966  0.55493  0.96349  1.0000
  C   C269      1.0  0.82311  0.56923  0.07759  1.0000
  C   C270      1.0  0.85090  0.48968  0.05570  1.0000
  C   C271      1.0  0.06317  0.55310  0.61608  1.0000
  H   H415      1.0  0.81689  0.54504  0.78793  1.0000
  S   S103      1.0  0.00456  0.50031  0.65890  1.0000
  C   C272      1.0  0.92485  0.57936  0.70273  1.0000
  C   C273      1.0  0.80624  0.49716  0.07045  1.0000
  S   S104      1.0  0.73371  0.53885  0.74057  1.0000
  H   H416      1.0  0.94459  0.39934  0.80235  1.0000
  H   H417      1.0  0.99271  0.41311  0.83681  1.0000
  H   H418      1.0  0.85589  0.35045  0.75802  1.0000
  H   H419      1.0  0.11567  0.43299  0.02407  1.0000
  H   H420      1.0  0.86188  0.45893  0.04756  1.0000
  H   H421      1.0  0.99069  0.42676  0.77515  1.0000
  H   H422      1.0  0.91618  0.51590  0.04104  1.0000
  H   H423      1.0  0.72325  0.39956  0.88968  1.0000
  C   C274      1.0  0.07413  0.37553  0.85427  1.0000
  C   C275      1.0  0.04058  0.41393  0.93697  1.0000
  C   C276      1.0  0.08664  0.41550  0.86491  1.0000
  C   C277      1.0  0.14788  0.50392  0.10548  1.0000
  H   H424      1.0  0.88738  0.57829  0.70669  1.0000
  H   H425      1.0  0.93427  0.47859  0.74914  1.0000
  Fe  Fe54      1.0  0.10541  0.40323  0.74702  1.0000
  H   H426      1.0  0.93953  0.55800  0.72901  1.0000
  Fe  Fe55      1.0  0.70285  0.48367  0.10393  1.0000
  C   C278      1.0  0.02983  0.37326  0.92752  1.0000
  S   S105      1.0  0.07041  0.39856  0.67715  1.0000
  H   H427      1.0  0.93371  0.56733  0.66662  1.0000
  S   S106      1.0  0.07238  0.54347  0.94789  1.0000
  S   S107      1.0  0.01912  0.54332  0.05186  1.0000
  H   H428      1.0  0.69790  0.56977  0.97400  1.0000
  S   S108      1.0  0.01590  0.43858  0.98639  1.0000
  Fe  Fe56      1.0  0.01850  0.50670  0.98415  1.0000
  S   S109      1.0  0.96065  0.54065  0.95212  1.0000
  H   H429      1.0  0.89540  0.43468  0.86407  1.0000
  C   C279      1.0  0.92277  0.45765  0.86732  1.0000
  H   H430      1.0  0.09002  0.44530  0.08070  1.0000
  S   S110      1.0  0.76573  0.38629  0.61933  1.0000
  C   C280      1.0  0.91634  0.47489  0.78402  1.0000
  Fe  Fe57      1.0  0.01441  0.58056  0.92136  1.0000
  Fe  Fe58      1.0  0.96605  0.58077  0.01667  1.0000
  H   H431      1.0  0.07944  0.46551  0.91380  1.0000
  N   N26       1.0  0.94789  0.46266  0.82183  1.0000
  H   H432      1.0  0.90657  0.48671  0.87907  1.0000
  Fe  Fe59      1.0  0.06726  0.46663  0.68058  1.0000
  Fe  Fe60      1.0  0.06753  0.58334  0.01249  1.0000
  C   C281      1.0  0.98262  0.49444  0.82773  1.0000
  H   H433      1.0  0.88928  0.45182  0.77901  1.0000
  H   H434      1.0  0.08444  0.54896  0.64675  1.0000
  H   H435      1.0  0.89923  0.50420  0.79308  1.0000
  H   H436      1.0  0.96699  0.52396  0.83864  1.0000
  H   H437      1.0  0.94557  0.44781  0.89652  1.0000
  H   H438      1.0  0.00763  0.35693  0.95162  1.0000
  S   S111      1.0  0.08879  0.35397  0.79905  1.0000
  S   S112      1.0  0.76793  0.45683  0.07701  1.0000
  C   C282      1.0  0.79096  0.35182  0.65864  1.0000
  H   H439      1.0  0.71778  0.37430  0.80652  1.0000
  H   H440      1.0  0.75813  0.54321  0.09231  1.0000
  C   C283      1.0  0.82649  0.58508  0.84778  1.0000
  C   C284      1.0  0.05854  0.69610  0.11756  1.0000
  Fe  Fe61      1.0  0.13680  0.78116  0.20941  1.0000
  H   H441      1.0  0.89846  0.80215  0.54198  1.0000
  C   C285      1.0  0.09126  0.72594  0.12554  1.0000
  H   H442      1.0  0.01987  0.80268  0.30444  1.0000
  S   S113      1.0  0.67696  0.63047  0.13293  1.0000
  C   C286      1.0  0.14527  0.65611  0.21173  1.0000
  H   H443      1.0  0.12334  0.78087  0.38742  1.0000
  Fe  Fe62      1.0  0.99003  0.62129  0.33232  1.0000
  S   S114      1.0  0.03401  0.66299  0.37468  1.0000
  S   S115      1.0  0.13204  0.76448  0.28631  1.0000
  S   S116      1.0  0.95730  0.65388  0.46112  1.0000
  Fe  Fe63      1.0  0.96930  0.69344  0.39773  1.0000
  H   H444      1.0  0.99539  0.77135  0.56444  1.0000
  C   C287      1.0  0.12213  0.69116  0.54334  1.0000
  H   H445      1.0  0.11427  0.71541  0.57002  1.0000
  H   H446      1.0  0.02499  0.69954  0.13288  1.0000
  H   H447      1.0  0.91672  0.83220  0.49215  1.0000
  H   H448      1.0  0.12279  0.66179  0.56287  1.0000
  Fe  Fe64      1.0  0.92051  0.61229  0.41115  1.0000
  H   H449      1.0  0.65932  0.71069  0.17014  1.0000
  C   C288      1.0  0.98133  0.79853  0.58343  1.0000
  H   H450      1.0  0.09360  0.68980  0.51791  1.0000
  S   S117      1.0  0.95995  0.76126  0.40612  1.0000
  C   C289      1.0  0.00569  0.83280  0.39773  1.0000
  H   H451      1.0  0.13509  0.59397  0.14874  1.0000
  Fe  Fe65      1.0  0.01908  0.62064  0.43513  1.0000
  H   H452      1.0  0.05544  0.73987  0.40587  1.0000
  S   S118      1.0  0.00114  0.60811  0.25442  1.0000
  H   H453      1.0  0.00880  0.81126  0.60578  1.0000
  S   S119      1.0  0.92612  0.65537  0.34991  1.0000
  H   H454      1.0  0.89393  0.59226  0.59346  1.0000
  H   H455      1.0  0.13609  0.73969  0.46822  1.0000
  H   H456      1.0  0.87528  0.61941  0.21861  1.0000
  H   H457      1.0  0.09853  0.61215  0.27521  1.0000
  H   H458      1.0  0.02068  0.77877  0.24721  1.0000
  C   C290      1.0  0.00117  0.80026  0.27051  1.0000
  N   N27       1.0  0.15005  0.61205  0.22051  1.0000
  S   S120      1.0  0.07837  0.76831  0.16139  1.0000
  C   C291      1.0  0.00931  0.79048  0.40200  1.0000
  H   H459      1.0  0.14701  0.66591  0.45517  1.0000
  H   H460      1.0  0.96789  0.78604  0.27883  1.0000
  C   C292      1.0  0.92847  0.81081  0.52011  1.0000
  C   C293      1.0  0.09053  0.79544  0.39033  1.0000
  N   N28       1.0  0.96439  0.82907  0.54946  1.0000
  C   C294      1.0  0.05204  0.77212  0.40051  1.0000
  H   H461      1.0  0.72058  0.83842  0.34650  1.0000
  S   S121      1.0  0.07312  0.60768  0.48821  1.0000
  H   H462      1.0  0.92313  0.59177  0.19547  1.0000
  C   C295      1.0  0.88556  0.59184  0.19790  1.0000
  H   H463      1.0  0.94072  0.78290  0.50130  1.0000
  H   H464      1.0  0.01689  0.81629  0.49789  1.0000
  H   H465      1.0  0.99553  0.81547  0.17688  1.0000
  C   C296      1.0  0.08632  0.83715  0.38195  1.0000
  H   H466      1.0  0.10918  0.66601  0.21363  1.0000
  C   C297      1.0  0.13446  0.60289  0.26952  1.0000
  H   H467      1.0  0.94054  0.82116  0.20435  1.0000
  H   H468      1.0  0.87286  0.59525  0.16099  1.0000
  C   C298      1.0  0.97455  0.83526  0.20083  1.0000
  N   N29       1.0  0.99587  0.84048  0.24782  1.0000
  H   H469      1.0  0.68228  0.65628  0.59312  1.0000
  H   H470      1.0  0.08663  0.59994  0.18690  1.0000
  H   H471      1.0  0.13915  0.83576  0.12165  1.0000
  H   H472      1.0  0.15501  0.61933  0.29646  1.0000
  H   H473      1.0  0.06279  0.84061  0.21759  1.0000
  C   C299      1.0  0.13489  0.72094  0.10666  1.0000
  C   C300      1.0  0.75344  0.68370  0.64270  1.0000
  S   S122      1.0  0.80071  0.74355  0.91722  1.0000
  H   H474      1.0  0.67839  0.59944  0.92469  1.0000
  S   S123      1.0  0.68452  0.76787  0.86204  1.0000
  C   C301      1.0  0.67445  0.67819  0.62259  1.0000
  C   C302      1.0  0.93843  0.81622  0.77680  1.0000
  S   S124      1.0  0.13530  0.69359  0.66542  1.0000
  C   C303      1.0  0.84193  0.79416  0.64195  1.0000
  C   C304      1.0  0.69579  0.70388  0.69992  1.0000
  H   H475      1.0  0.82956  0.61208  0.82619  1.0000
  C   C305      1.0  0.70429  0.59783  0.95303  1.0000
  H   H476      1.0  0.97118  0.80338  0.76365  1.0000
  H   H477      1.0  0.72449  0.82486  0.79424  1.0000
  H   H478      1.0  0.69619  0.73580  0.68686  1.0000
  C   C306      1.0  0.70658  0.63284  0.68044  1.0000
  H   H479      1.0  0.14797  0.71210  0.90951  1.0000
  H   H480      1.0  0.74649  0.66795  0.93617  1.0000
  H   H481      1.0  0.00641  0.65150  0.71053  1.0000
  H   H482      1.0  0.87788  0.77212  0.00362  1.0000
  H   H483      1.0  0.88685  0.64739  0.67119  1.0000
  N   N30       1.0  0.70334  0.63456  0.98375  1.0000
  S   S125      1.0  0.03543  0.78840  0.83773  1.0000
  S   S126      1.0  0.77970  0.69637  0.81613  1.0000
  H   H484      1.0  0.12550  0.70347  0.85134  1.0000
  S   S127      1.0  0.83554  0.63515  0.92526  1.0000
  H   H485      1.0  0.73200  0.62876  0.70899  1.0000
  C   C307      1.0  0.66499  0.81367  0.83714  1.0000
  C   C308      1.0  0.13359  0.68843  0.88556  1.0000
  Fe  Fe66      1.0  0.82644  0.68875  0.87779  1.0000
  S   S128      1.0  0.06353  0.78697  0.70369  1.0000
  C   C309      1.0  0.75915  0.81727  0.68341  1.0000
  H   H486      1.0  0.00450  0.60762  0.67239  1.0000
  Fe  Fe67      1.0  0.13065  0.75573  0.69804  1.0000
  C   C310      1.0  0.73802  0.63055  0.02095  1.0000
  H   H487      1.0  0.92959  0.67082  0.98195  1.0000
  Fe  Fe68      1.0  0.83564  0.73437  0.78515  1.0000
  H   H488      1.0  0.14549  0.62354  0.94248  1.0000
  H   H489      1.0  0.72023  0.70195  0.72966  1.0000
  C   C311      1.0  0.99210  0.62037  0.70701  1.0000
  H   H490      1.0  0.90788  0.68851  0.08570  1.0000
  H   H491      1.0  0.71377  0.69904  0.97657  1.0000
  Fe  Fe69      1.0  0.85547  0.77623  0.87795  1.0000
  S   S129      1.0  0.81149  0.79343  0.81728  1.0000
  C   C312      1.0  0.82492  0.77305  0.68144  1.0000
  C   C313      1.0  0.78312  0.78413  0.70144  1.0000
  H   H492      1.0  0.75589  0.71536  0.62906  1.0000
  S   S130      1.0  0.12932  0.61013  0.04450  1.0000
  H   H493      1.0  0.89589  0.71041  0.95660  1.0000
  H   H494      1.0  0.77952  0.68020  0.67075  1.0000
  H   H495      1.0  0.76933  0.76740  0.73125  1.0000
  S   S131      1.0  0.85687  0.73467  0.70817  1.0000
  H   H496      1.0  0.93253  0.80346  0.81307  1.0000
  H   H497      1.0  0.87392  0.78514  0.62613  1.0000
  H   H498      1.0  0.73146  0.60363  0.04382  1.0000
  H   H499      1.0  0.87447  0.68065  0.00550  1.0000
  Fe  Fe70      1.0  0.75880  0.75455  0.85264  1.0000
  H   H500      1.0  0.71459  0.60996  0.65211  1.0000
  H   H501      1.0  0.98311  0.73713  0.89965  1.0000
  H   H502      1.0  0.91131  0.80452  0.75328  1.0000
  S   S132      1.0  0.01467  0.62438  0.98283  1.0000
  H   H503      1.0  0.73838  0.65759  0.04502  1.0000
  C   C314      1.0  0.01683  0.65121  0.84063  1.0000
  C   C315      1.0  0.04139  0.66912  0.80362  1.0000
  C   C316      1.0  0.04534  0.71141  0.80160  1.0000
  C   C317      1.0  0.02561  0.73592  0.83715  1.0000
  C   C318      1.0  0.99957  0.71809  0.87318  1.0000
  C   C319      1.0  0.99497  0.67566  0.87484  1.0000
  H   H504      1.0  0.97419  0.66193  0.90222  1.0000
  C   C320      1.0  0.90524  0.69569  0.99070  1.0000
  H   H505      1.0  0.76318  0.66267  0.61299  1.0000
  N   N31       1.0  0.94214  0.62109  0.70966  1.0000
  H   H506      1.0  0.94141  0.66736  0.76429  1.0000
  H   H507      1.0  0.06486  0.72465  0.77313  1.0000
  Fe  Fe71      1.0  0.08398  0.80118  0.77825  1.0000
  H   H508      1.0  0.95518  0.76303  0.97153  1.0000
  H   H509      1.0  0.67442  0.70928  0.60709  1.0000
  C   C321      1.0  0.14635  0.68556  0.08114  1.0000
  H   H510      1.0  0.90305  0.78043  0.06061  1.0000
  C   C322      1.0  0.92454  0.64793  0.67205  1.0000
  H   H511      1.0  0.95182  0.72531  0.09541  1.0000
  H   H512      1.0  0.73792  0.59386  0.93519  1.0000
  H   H513      1.0  0.93477  0.68010  0.67801  1.0000
  H   H514      1.0  0.05879  0.65033  0.77737  1.0000
  S   S133      1.0  0.88469  0.72066  0.84308  1.0000
  H   H515      1.0  0.85926  0.74291  0.05378  1.0000
  H   H516      1.0  0.68730  0.67519  0.92634  1.0000
  N   N32       1.0  0.70757  0.67468  0.66140  1.0000
  H   H517      1.0  0.93744  0.63860  0.63621  1.0000
  C   C323      1.0  0.06993  0.66070  0.09182  1.0000
  N   N33       1.0  0.92419  0.72529  0.02484  1.0000
  H   H518      1.0  0.95400  0.78786  0.60782  1.0000
  C   C324      1.0  0.92709  0.63671  0.75681  1.0000
  C   C325      1.0  0.96440  0.74492  0.00338  1.0000
  H   H519      1.0  0.98073  0.76616  0.02888  1.0000
  S   S134      1.0  0.90139  0.81880  0.91563  1.0000
  C   C326      1.0  0.88960  0.75657  0.03639  1.0000
  C   C327      1.0  0.11405  0.65525  0.07410  1.0000
  C   C328      1.0  0.71304  0.67081  0.95447  1.0000
  H   H520      1.0  0.77256  0.62675  0.00514  1.0000
  H   H521      1.0  0.10113  0.67797  0.90182  1.0000
  H   H522      1.0  0.96321  0.67994  0.06110  1.0000
  H   H523      1.0  0.99024  0.72197  0.99197  1.0000
  C   C329      1.0  0.93737  0.70398  0.06878  1.0000
  H   H524      1.0  0.12080  0.82313  0.06306  1.0000
  H   H525      1.0  0.04500  0.63706  0.08708  1.0000
  S   S135      1.0  0.14808  0.76537  0.77427  1.0000
  C   C330      1.0  0.69144  0.83588  0.80480  1.0000
  C   C331      1.0  0.65821  0.63907  0.00656  1.0000
  H   H526      1.0  0.00664  0.60122  0.73570  1.0000
  H   H527      1.0  0.11277  0.61135  0.86284  1.0000
  C   C332      1.0  0.77687  0.83944  0.64520  1.0000
  H   H528      1.0  0.88957  0.63951  0.75902  1.0000
  C   C333      1.0  0.14494  0.62303  0.84715  1.0000
  H   H529      1.0  0.65663  0.66638  0.03025  1.0000
  H   H530      1.0  0.13721  0.63546  0.81133  1.0000
  H   H531      1.0  0.67273  0.62507  0.69564  1.0000
  H   H532      1.0  0.72726  0.82622  0.69977  1.0000
  H   H533      1.0  0.66149  0.69785  0.71510  1.0000
  C   C334      1.0  0.81798  0.82761  0.62389  1.0000
  S   S136      1.0  0.01516  0.59828  0.84452  1.0000
  H   H534      1.0  0.93788  0.61624  0.78603  1.0000
  H   H535      1.0  0.80578  0.83662  0.92140  1.0000
  H   H536      1.0  0.81229  0.59991  0.08626  1.0000
  S   S137      1.0  0.90562  0.60239  0.05845  1.0000
  S   S138      1.0  0.81125  0.02913  0.11356  1.0000
  Fe  Fe72      1.0  0.75930  0.95903  0.47460  1.0000
  S   S139      1.0  0.74382  0.97421  0.55061  1.0000
  S   S140      1.0  0.70505  0.97273  0.42236  1.0000
  H   H537      1.0  0.66057  0.93318  0.59674  1.0000
  H   H538      1.0  0.02959  0.85665  0.53890  1.0000
  Fe  Fe73      1.0  0.81110  0.00442  0.55120  1.0000
  H   H539      1.0  0.91708  0.85583  0.59948  1.0000
  S   S141      1.0  0.79122  0.89903  0.49143  1.0000
  S   S142      1.0  0.82344  0.99483  0.47317  1.0000
  H   H540      1.0  0.93699  0.07861  0.28615  1.0000
  H   H541      1.0  0.10471  0.95286  0.53843  1.0000
  H   H542      1.0  0.14775  0.97401  0.13970  1.0000
  H   H543      1.0  0.02657  0.93982  0.56907  1.0000
  C   C335      1.0  0.71381  0.89675  0.38168  1.0000
  C   C336      1.0  0.68746  0.93197  0.38686  1.0000
  Fe  Fe74      1.0  0.83874  0.01910  0.18655  1.0000
  H   H544      1.0  0.11927  0.88672  0.46373  1.0000
  H   H545      1.0  0.65761  0.04646  0.41633  1.0000
  H   H546      1.0  0.74542  0.89401  0.40023  1.0000
  C   C337      1.0  0.03427  0.95654  0.13841  1.0000
  H   H547      1.0  0.74032  0.05251  0.42507  1.0000
  S   S143      1.0  0.84875  0.94880  0.57461  1.0000
  H   H548      1.0  0.89486  0.01074  0.38255  1.0000
  H   H549      1.0  0.69118  0.03094  0.49456  1.0000
  H   H550      1.0  0.74781  0.98949  0.18252  1.0000
  C   C338      1.0  0.09851  0.96001  0.50031  1.0000
  H   H551      1.0  0.75811  0.91616  0.16530  1.0000
  H   H552      1.0  0.97274  0.84731  0.39993  1.0000
  S   S144      1.0  0.05753  0.05754  0.43382  1.0000
  S   S145      1.0  0.85684  0.95379  0.17409  1.0000
  H   H553      1.0  0.05365  0.05082  0.12577  1.0000
  H   H554      1.0  0.65848  0.88224  0.57388  1.0000
  Fe  Fe75      1.0  0.85485  0.93598  0.49588  1.0000
  N   N34       1.0  0.13820  0.94952  0.47010  1.0000
  C   C339      1.0  0.69980  0.86538  0.35114  1.0000
  S   S146      1.0  0.98823  0.95103  0.17788  1.0000
  Fe  Fe76      1.0  0.78175  0.91755  0.56790  1.0000
  S   S147      1.0  0.79976  0.03344  0.25350  1.0000
  H   H555      1.0  0.99040  0.86522  0.49183  1.0000
  C   C340      1.0  0.07771  0.96222  0.15650  1.0000
  H   H556      1.0  0.65655  0.06790  0.52459  1.0000
  H   H557      1.0  0.93706  0.98347  0.51704  1.0000
  H   H558      1.0  0.72512  0.90509  0.26608  1.0000
  H   H559      1.0  0.70415  0.91611  0.13702  1.0000
  H   H560      1.0  0.86996  0.01553  0.32478  1.0000
  N   N35       1.0  0.89986  0.07046  0.35183  1.0000
  Fe  Fe77      1.0  0.92400  0.97817  0.15010  1.0000
  C   C341      1.0  0.72114  0.91247  0.17191  1.0000
  S   S148      1.0  0.10069  0.06556  0.56563  1.0000
  C   C342      1.0  0.89874  0.02562  0.34716  1.0000
  H   H561      1.0  0.76518  0.94323  0.24834  1.0000
  C   C343      1.0  0.14846  0.90569  0.47485  1.0000
  H   H562      1.0  0.00542  0.01162  0.58445  1.0000
  S   S149      1.0  0.90773  0.04306  0.16886  1.0000
  S   S150      1.0  0.81115  0.06519  0.58747  1.0000
  N   N36       1.0  0.70396  0.94221  0.20761  1.0000
  H   H563      1.0  0.96162  0.89732  0.26125  1.0000
  H   H564      1.0  0.71526  0.95758  0.28126  1.0000
  H   H565      1.0  0.93357  0.88838  0.55124  1.0000
  C   C344      1.0  0.65938  0.86917  0.32600  1.0000
  C   C345      1.0  0.04429  0.85617  0.38798  1.0000
  C   C346      1.0  0.98208  0.95773  0.40878  1.0000
  H   H566      1.0  0.08283  0.96258  0.19462  1.0000
  H   H567      1.0  0.97212  0.87887  0.59863  1.0000
  H   H568      1.0  0.12105  0.99170  0.41475  1.0000
  H   H569      1.0  0.04111  0.88849  0.38205  1.0000
  C   C347      1.0  0.95484  0.95536  0.44976  1.0000
  C   C348      1.0  0.96705  0.86713  0.27819  1.0000
  H   H570      1.0  0.06784  0.94315  0.48896  1.0000
  C   C349      1.0  0.01723  0.01884  0.43967  1.0000
  C   C350      1.0  0.98974  0.01653  0.48046  1.0000
  C   C351      1.0  0.95815  0.98510  0.48531  1.0000
  C   C352      1.0  0.72843  0.93675  0.25277  1.0000
  C   C353      1.0  0.01295  0.98970  0.40349  1.0000
  C   C354      1.0  0.03018  0.95251  0.60443  1.0000
  H   H571      1.0  0.03386  0.99155  0.37163  1.0000
  C   C355      1.0  0.94592  0.86455  0.57597  1.0000
  H   H572      1.0  0.97877  0.93517  0.38084  1.0000
  H   H573      1.0  0.83124  0.84440  0.59381  1.0000
  S   S151      1.0  0.91695  0.91505  0.45635  1.0000
  H   H574      1.0  0.99270  0.03893  0.50834  1.0000
  C   C356      1.0  0.71135  0.98396  0.19001  1.0000
  H   H575      1.0  0.05850  0.86277  0.27617  1.0000
  C   C357      1.0  0.11442  0.96900  0.12543  1.0000
  H   H576      1.0  0.93043  0.01359  0.33037  1.0000
  H   H577      1.0  0.03826  0.89008  0.22549  1.0000
  H   H578      1.0  0.71545  0.88060  0.18392  1.0000
  C   C358      1.0  0.12831  0.95875  0.41980  1.0000
  C   C359      1.0  0.04084  0.85933  0.24155  1.0000
  C   C360      1.0  0.90517  0.08891  0.30418  1.0000
  S   S152      1.0  0.13198  0.86444  0.35820  1.0000
  C   C361      1.0  0.68902  0.06361  0.50459  1.0000
  H   H579      1.0  0.98278  0.87283  0.31329  1.0000
  H   H580      1.0  0.97129  0.07228  0.36589  1.0000
  H   H581      1.0  0.97037  0.86500  0.18255  1.0000
  H   H582      1.0  0.70025  0.00717  0.21689  1.0000
  H   H583      1.0  0.09845  0.94148  0.40715  1.0000
  H   H584      1.0  0.09040  0.99303  0.49838  1.0000
  H   H585      1.0  0.74324  0.07859  0.31871  1.0000
  H   H586      1.0  0.93579  0.06853  0.41784  1.0000
  H   H587      1.0  0.82743  0.07616  0.35242  1.0000
  H   H588      1.0  0.87667  0.08057  0.28056  1.0000
  H   H589      1.0  0.88920  0.07069  0.52569  1.0000
  C   C362      1.0  0.73518  0.08447  0.43730  1.0000
  H   H590      1.0  0.71717  0.07048  0.52939  1.0000
  H   H591      1.0  0.93327  0.85335  0.28504  1.0000
  C   C363      1.0  0.93838  0.08239  0.38183  1.0000
  H   H592      1.0  0.85222  0.07201  0.41036  1.0000
  C   C364      1.0  0.78020  0.08376  0.25243  1.0000
  H   H593      1.0  0.69273  0.98959  0.15650  1.0000
  C   C365      1.0  0.85713  0.08499  0.37415  1.0000
  N   N37       1.0  0.69101  0.08964  0.46191  1.0000
  C   C366      1.0  0.65504  0.93560  0.21578  1.0000
  C   C367      1.0  0.00203  0.84238  0.51817  1.0000
  C   C368      1.0  0.83720  0.07703  0.89731  1.0000
  S   S153      1.0  0.78708  0.92494  0.06111  1.0000
  H   H594      1.0  0.97448  0.90878  0.81548  1.0000
  N   N38       1.0  0.74174  0.01777  0.70958  1.0000
  C   C369      1.0  0.67492  0.87250  0.78581  1.0000
  H   H595      1.0  0.69269  0.08620  0.92308  1.0000
  C   C370      1.0  0.75631  0.98261  0.68008  1.0000
  S   S154      1.0  0.11615  0.86101  0.76068  1.0000
  H   H596      1.0  0.72687  0.96469  0.66750  1.0000
  H   H597      1.0  0.77843  0.96153  0.70024  1.0000
  C   C371      1.0  0.85743  0.05154  0.97537  1.0000
  H   H598      1.0  0.77584  0.99270  0.64813  1.0000
  H   H599      1.0  0.03772  0.04184  0.02064  1.0000
  S   S155      1.0  0.81091  0.06922  0.84212  1.0000
  H   H600      1.0  0.86734  0.86656  0.76944  1.0000
  C   C372      1.0  0.81827  0.89382  0.02183  1.0000
  C   C373      1.0  0.79686  0.87435  0.98387  1.0000
  H   H601      1.0  0.92675  0.86374  0.99861  1.0000
  S   S156      1.0  0.15270  0.98054  0.03695  1.0000
  C   C374      1.0  0.86931  0.84796  0.95596  1.0000
  C   C375      1.0  0.86494  0.88926  0.02759  1.0000
  H   H602      1.0  0.76070  0.87756  0.97951  1.0000
  H   H603      1.0  0.72548  0.98433  0.01080  1.0000
  H   H604      1.0  0.66486  0.03287  0.03559  1.0000
  C   C376      1.0  0.66733  0.00924  0.94374  1.0000
  C   C377      1.0  0.83964  0.04499  0.92983  1.0000
  C   C378      1.0  0.71124  0.04404  0.68179  1.0000
  H   H605      1.0  0.77214  0.06809  0.74596  1.0000
  S   S157      1.0  0.74727  0.88227  0.62576  1.0000
  C   C379      1.0  0.67935  0.05510  0.00991  1.0000
  C   C380      1.0  0.89056  0.86679  0.99434  1.0000
  C   C381      1.0  0.71761  0.00325  0.75268  1.0000
  C   C382      1.0  0.01789  0.99308  0.61309  1.0000
  C   C383      1.0  0.01484  0.06220  0.04180  1.0000
  H   H606      1.0  0.68077  0.02730  0.66980  1.0000
  C   C384      1.0  0.78190  0.04138  0.72368  1.0000
  C   C385      1.0  0.13912  0.84649  0.08420  1.0000
  H   H607      1.0  0.70389  0.07451  0.02937  1.0000
  H   H608      1.0  0.70620  0.02912  0.77572  1.0000
  H   H609      1.0  0.82725  0.01522  0.92005  1.0000
  H   H610      1.0  0.11909  0.87528  0.08326  1.0000
  H   H611      1.0  0.76442  0.02578  0.00458  1.0000
  H   H612      1.0  0.88132  0.90274  0.05790  1.0000
  H   H613      1.0  0.75534  0.99158  0.95560  1.0000
  H   H614      1.0  0.99420  0.04272  0.06596  1.0000
  N   N39       1.0  0.70113  0.03432  0.96873  1.0000
  H   H615      1.0  0.85825  0.02684  0.00048  1.0000
  H   H616      1.0  0.65593  0.85677  0.65685  1.0000
  H   H617      1.0  0.96800  0.86220  0.84823  1.0000
  H   H618      1.0  0.68707  0.98529  0.74333  1.0000
  H   H619      1.0  0.69566  0.88967  0.76116  1.0000
  C   C386      1.0  0.07199  0.07189  0.10143  1.0000
  C   C387      1.0  0.71958  0.06509  0.93563  1.0000
  Fe  Fe78      1.0  0.83526  0.96562  0.09937  1.0000
  C   C388      1.0  0.97405  0.87505  0.81198  1.0000
  S   S158      1.0  0.90451  0.98368  0.07351  1.0000
  C   C389      1.0  0.06493  0.96136  0.05800  1.0000
  H   H620      1.0  0.04050  0.99842  0.73138  1.0000
  S   S159      1.0  0.01058  0.06180  0.66766  1.0000
  C   C390      1.0  0.02186  0.00981  0.65870  1.0000
  C   C391      1.0  0.10792  0.96915  0.07616  1.0000
  H   H621      1.0  0.80575  0.02276  0.74496  1.0000
  H   H622      1.0  0.06454  0.92693  0.71549  1.0000
  C   C392      1.0  0.95031  0.87682  0.73003  1.0000
  H   H623      1.0  0.99483  0.95008  0.07484  1.0000
  H   H624      1.0  0.00852  0.86511  0.80042  1.0000
  H   H625      1.0  0.89387  0.91061  0.79527  1.0000
  C   C393      1.0  0.82239  0.85125  0.95098  1.0000
  H   H626      1.0  0.09778  0.05376  0.08128  1.0000
  H   H627      1.0  0.05989  0.96091  0.01987  1.0000
  H   H628      1.0  0.95164  0.91071  0.72984  1.0000
  H   H629      1.0  0.80076  0.05308  0.69202  1.0000
  C   C394      1.0  0.05093  0.94505  0.68705  1.0000
  H   H630      1.0  0.73967  0.98349  0.77466  1.0000
  N   N40       1.0  0.93934  0.86122  0.77811  1.0000
  H   H631      1.0  0.72865  0.05645  0.64956  1.0000
  C   C395      1.0  0.03722  0.98546  0.69606  1.0000
  C   C396      1.0  0.73816  0.00790  0.98565  1.0000
  C   C397      1.0  0.04826  0.92887  0.64092  1.0000
  C   C398      1.0  0.89454  0.87676  0.79381  1.0000
  H   H632      1.0  0.98403  0.86561  0.71726  1.0000
  S   S160      1.0  0.06789  0.87965  0.62694  1.0000
  H   H633      1.0  0.68280  0.99235  0.91309  1.0000
  H   H634      1.0  0.73532  0.05053  0.90358  1.0000
  H   H635      1.0  0.92471  0.86703  0.70364  1.0000
  H   H636      1.0  0.88565  0.86569  0.83019  1.0000
  H   H637      1.0  0.99101  0.07694  0.01669  1.0000
  C   C399      1.0  0.02801  0.95562  0.08910  1.0000
  H   H638      1.0  0.69924  0.07059  0.70331  1.0000
  H   H639      1.0  0.65665  0.90777  0.67971  1.0000
  Fe  Fe79      1.0  0.88220  0.04651  0.09394  1.0000
  H   H640      1.0  0.74613  0.08397  0.95278  1.0000
  C   C400      1.0  0.87427  0.08983  0.98803  1.0000
  Fe  Fe80      1.0  0.10132  0.84350  0.68474  1.0000
