data_image0
_chemical_formula_structural       HC2H5NHCH5CH2NH2CH2C2SHCHC2HCHFeCSHCH2SCH2FeCH3NCSH5C3H2CHFeSHSH5CH2CSH3CHC3HC2HCSC2NCHSH3C2H5C3HFeCH2CSC4HSH5CNH4CH2C2HCH4SC2HFeHFeHSHFeHCSHCHC3SHCSH2FeCSC2SH2CH2FeSCHSHCHFeHSNH2SHC2H4C2HCNH2FeH3CH5CHNH2CHCHSHSH4CH2CSH2CH2CFeCH2SHCHSH3CNH2SH4C2HC2FeHFeHS2HC2SHFe2SCSCNCH2CHCH3CHCHCH2CHCH4CHC2H2SHFeS2HFeC3HCH2CSFeHSCS2FeSCSCH2SCHSHC2NCH2CH2CH2C2H3SC2H4CSC2H2SNC2H2SFeHFeHC2H2CH2CH2NCHFeH3SCSCH8SNSC2H2FeSC2SCH3C2H4C2HCH5NCHCHSHCHSCHCH6C2H3C2SFeSFeCH4CSHSFeHCHCHNHCSFeCFeCH2C2NH4CH4SCHCH2CH2CSCFeHCHCFeSCSC3HCNH2CHNH3CHCSCH2CSH2SC3FeH3C2H5FeHCH4FeCHSFeS2NHCSFeH2CHCSH3FeHS2HCHS2HFeCSC3HSH4CHCH2C2HSHNHCH3CH2C2HC2H2CHC3SHS2FeSC2SFeSCFeH2CH3SH2CHC2HSHSCHFeCH2C2H3CH6CNCHCSC2H2CH5CNHSH2CFeC2H6CHCH2CH2CHCNH2CNH2FeSFe2S2C5H2S3FeHC2H2C2H3CH3CHC2H3SC2HCH3C2SCHCH2SCH2CH2CSHC2HCH3FeHS2FeS2N2SHCHFeH3SFeSCSFeC2H2SC2H4CH2C3SFeHCH3SH2C2HCHC3SHSC3H6SH2CH3CH5CNCH2SFe2SH3C2H2C2HCH3C2H2CHC2HSH3C2HSH2CHC2HFeHS2C2SCHFeS2Fe2HC2SCHC2H4C2HCHNH2CHCHCH4NC2HCSH4S2HCHCHSCSFeH2CHCH5CSFeNCHCH3S2HCHCHCH3SFe3SHCH5CHC2HCHNHC2H5CH5CH3CHSCS3Fe2C2HSHSCFeSFeCNCH3CH2C2H2SFeCSCH2NH2C2S2CHC2H3CH3CH3NCH5CH2CNHCHCH5CHCH7CHC2H2NHFe2S2C3FeSFeS3CH3SC2SCH3CHC2HCH2C2HC2H2CH2S2H2SHCHCSFe3S3H6CHCH3FeS2C3HC3H2C3H4CH2SHC2NHFeC2SCH2C2HCHCH4C2H3NFe2SHCH9SCHC2HCHSH2NFeSFeH2CSCHCNH2SC2NC4H3SH5SC3HCH2SCHCHCSH2CH2CH2NHFe2SCSCHFeSCH2CH3CFeCHC2SHCSFeC3H2NCH10C2H4CHSFeSC2FeCHSHC2SCHCH5CFeC2HCS2FeSNCHCH3CHC3H4FeSH3SH2C3NH6CH6CHCNCHFeH2CH3C3FeS2FeSC2HSCHSH4CHCSH3CH4SNFeCFeCSCSHC3HCSC3H3CHCHFeSFeS2H2FeHC2SHCH3CNCHCH2CH2CHCH2CHSNFeCH2CHCH5CH4NC2H3CSC3Fe2SC2HS2H3C2H5CHC2NH9C2FeNCHCHCHCH6SNCS2H2CHCFeSH2CHCHFeHCH4C2SCHC2HSFeHCH2C2SFe2H2CHC2H2FeSNCHCH5SH3SFeC2H2C2SH2CSHC4H2C2H5CH3NCSHC2H11CHSFeH2C2H3SCH3CSH3C
_chemical_formula_sum              "H896 C560 N56 S224 Fe112"
_cell_length_a       35.9908
_cell_length_b       35.9452
_cell_length_c       87.2692
_cell_angle_alpha    79.06
_cell_angle_beta     79.1192
_cell_angle_gamma    101.044

_space_group_name_H-M_alt    "P 1"
_space_group_IT_number       1

loop_
  _space_group_symop_operation_xyz
  'x, y, z'

loop_
  _atom_site_type_symbol
  _atom_site_label
  _atom_site_symmetry_multiplicity
  _atom_site_fract_x
  _atom_site_fract_y
  _atom_site_fract_z
  _atom_site_occupancy
  H   H1        1.0  0.10628  0.48859  0.15927  1.0000
  C   C1        1.0  0.48631  0.03488  0.19293  1.0000
  C   C2        1.0  0.38851  0.05824  0.19312  1.0000
  H   H2        1.0  0.40935  0.03961  0.19487  1.0000
  H   H3        1.0  0.35984  0.03822  0.19429  1.0000
  H   H4        1.0  0.46152  0.01238  0.19994  1.0000
  H   H5        1.0  0.42879  0.04782  0.16569  1.0000
  H   H6        1.0  0.48866  0.06521  0.21195  1.0000
  N   N1        1.0  0.06150  0.48980  0.22171  1.0000
  H   H7        1.0  0.37920  0.04515  0.16454  1.0000
  C   C3        1.0  0.40683  0.06553  0.16442  1.0000
  H   H8        1.0  0.41715  0.08596  0.15237  1.0000
  H   H9        1.0  0.08594  0.48157  0.19847  1.0000
  H   H10       1.0  0.35429  0.04345  0.23774  1.0000
  H   H11       1.0  0.34333  0.08995  0.17589  1.0000
  H   H12       1.0  0.38543  0.07292  0.20327  1.0000
  C   C4        1.0  0.43900  0.11342  0.17660  1.0000
  H   H13       1.0  0.46250  0.09759  0.17725  1.0000
  H   H14       1.0  0.43692  0.12848  0.18665  1.0000
  N   N2        1.0  0.40159  0.08662  0.17738  1.0000
  H   H15       1.0  0.44894  0.13617  0.16514  1.0000
  H   H16       1.0  0.36743  0.12563  0.18492  1.0000
  C   C5        1.0  0.37195  0.10930  0.17534  1.0000
  H   H17       1.0  0.38073  0.13090  0.16356  1.0000
  H   H18       1.0  0.06006  0.43741  0.21305  1.0000
  C   C6        1.0  0.02696  0.47174  0.23508  1.0000
  C   C7        1.0  0.01131  0.48846  0.17295  1.0000
  S   S1        1.0  0.03770  0.42996  0.16158  1.0000
  H   H19       1.0  0.03378  0.46968  0.20402  1.0000
  C   C8        1.0  0.04372  0.47532  0.16661  1.0000
  H   H20       1.0  0.02579  0.44058  0.24015  1.0000
  C   C9        1.0  0.06029  0.46866  0.20877  1.0000
  C   C10       1.0  0.09722  0.48795  0.22756  1.0000
  H   H21       1.0  0.09843  0.45733  0.23231  1.0000
  C   C11       1.0  0.08118  0.49858  0.16431  1.0000
  H   H22       1.0  0.12392  0.50189  0.21782  1.0000
  Fe  Fe1       1.0  0.01171  0.46897  0.30125  1.0000
  C   C12       1.0  0.41787  0.00654  0.25707  1.0000
  S   S2        1.0  0.45224  0.02109  0.26787  1.0000
  H   H23       1.0  0.40120  0.06145  0.25409  1.0000
  C   C13       1.0  0.39676  0.03294  0.25143  1.0000
  H   H24       1.0  0.48578  0.09952  0.24993  1.0000
  H   H25       1.0  0.02680  0.48687  0.24510  1.0000
  S   S3        1.0  0.07651  0.48578  0.29713  1.0000
  C   C14       1.0  0.37015  0.02274  0.24223  1.0000
  H   H26       1.0  0.11332  0.01967  0.68067  1.0000
  H   H27       1.0  0.05864  0.08652  0.57416  1.0000
  Fe  Fe2       1.0  0.04491  0.09176  0.61415  1.0000
  C   C15       1.0  0.08215  0.10191  0.56327  1.0000
  H   H28       1.0  0.07561  0.08906  0.55317  1.0000
  H   H29       1.0  0.10953  0.09481  0.56583  1.0000
  H   H30       1.0  0.11105  0.15277  0.53458  1.0000
  N   N3        1.0  0.08534  0.14447  0.55966  1.0000
  C   C16       1.0  0.11686  0.16368  0.54521  1.0000
  S   S4        1.0  0.09697  0.07243  0.60314  1.0000
  H   H31       1.0  0.16218  0.04160  0.60939  1.0000
  H   H32       1.0  0.07124  0.14548  0.58442  1.0000
  H   H33       1.0  0.12212  0.15431  0.57603  1.0000
  H   H34       1.0  0.14536  0.15823  0.54701  1.0000
  H   H35       1.0  0.12003  0.19584  0.54226  1.0000
  C   C17       1.0  0.09429  0.15987  0.57341  1.0000
  C   C18       1.0  0.09972  0.03092  0.61663  1.0000
  C   C19       1.0  0.13595  0.02343  0.61772  1.0000
  H   H36       1.0  0.04031  0.14158  0.54648  1.0000
  H   H37       1.0  0.02371  0.13825  0.56752  1.0000
  C   C20       1.0  0.04807  0.15245  0.55684  1.0000
  H   H38       1.0  0.04907  0.18426  0.55449  1.0000
  Fe  Fe3       1.0  0.00269  0.15371  0.60513  1.0000
  S   S5        1.0  0.00446  0.20353  0.58511  1.0000
  H   H39       1.0  0.00391  0.33665  0.60912  1.0000
  S   S6        1.0  0.05470  0.15407  0.61568  1.0000
  H   H40       1.0  0.09604  0.19176  0.57140  1.0000
  H   H41       1.0  0.00690  0.39180  0.57706  1.0000
  H   H42       1.0  0.04615  0.39091  0.58706  1.0000
  H   H43       1.0  0.28285  0.49592  0.67130  1.0000
  H   H44       1.0  0.03622  0.39632  0.61556  1.0000
  C   C21       1.0  0.01084  0.40881  0.61381  1.0000
  H   H45       1.0  0.02118  0.44109  0.61013  1.0000
  H   H46       1.0  0.03085  0.43549  0.58172  1.0000
  C   C22       1.0  0.02032  0.40333  0.58624  1.0000
  S   S7        1.0  0.00656  0.06876  0.63901  1.0000
  H   H47       1.0  0.03770  0.01169  0.62604  1.0000
  H   H48       1.0  0.03414  0.06230  0.66959  1.0000
  H   H49       1.0  0.04616  0.02348  0.68254  1.0000
  C   C23       1.0  0.05529  0.04350  0.67038  1.0000
  H   H50       1.0  0.05271  0.02514  0.66152  1.0000
  C   C24       1.0  0.06586  0.00706  0.62728  1.0000
  C   C25       1.0  0.16743  0.02495  0.70140  1.0000
  C   C26       1.0  0.13534  0.03655  0.70911  1.0000
  H   H51       1.0  0.08729  0.07334  0.69179  1.0000
  C   C27       1.0  0.09728  0.09149  0.67928  1.0000
  C   C28       1.0  0.10656  0.09268  0.65102  1.0000
  H   H52       1.0  0.13683  0.11073  0.64832  1.0000
  C   C29       1.0  0.12240  0.04115  0.66888  1.0000
  S   S8        1.0  0.24534  0.03285  0.68976  1.0000
  C   C30       1.0  0.21062  0.08224  0.70437  1.0000
  C   C31       1.0  0.20507  0.04763  0.69909  1.0000
  N   N4        1.0  0.09543  0.06722  0.66739  1.0000
  C   C32       1.0  0.14088  0.07104  0.71442  1.0000
  H   H53       1.0  0.10506  0.07529  0.64176  1.0000
  S   S9        1.0  0.10094  0.08441  0.72473  1.0000
  H   H54       1.0  0.12748  0.10848  0.67795  1.0000
  H   H55       1.0  0.28221  0.07287  0.71784  1.0000
  H   H56       1.0  0.08688  0.11288  0.64950  1.0000
  C   C33       1.0  0.17850  0.09390  0.71208  1.0000
  C   C34       1.0  0.27184  0.12770  0.73467  1.0000
  H   H57       1.0  0.15270  0.05775  0.66767  1.0000
  H   H58       1.0  0.07844  0.11261  0.67801  1.0000
  H   H59       1.0  0.33142  0.02673  0.64203  1.0000
  H   H60       1.0  0.38169  0.02985  0.65796  1.0000
  H   H61       1.0  0.32353  0.06223  0.72492  1.0000
  C   C35       1.0  0.30683  0.08505  0.72288  1.0000
  C   C36       1.0  0.35023  0.00656  0.64184  1.0000
  C   C37       1.0  0.37851  0.00821  0.65091  1.0000
  H   H62       1.0  0.01238  0.28013  0.67369  1.0000
  Fe  Fe4       1.0  0.01143  0.13162  0.63922  1.0000
  C   C38       1.0  0.01306  0.26360  0.66453  1.0000
  H   H63       1.0  0.00974  0.27299  0.62531  1.0000
  H   H64       1.0  0.01626  0.20521  0.63147  1.0000
  C   C39       1.0  0.01559  0.22126  0.64073  1.0000
  S   S10       1.0  0.02107  0.15485  0.66054  1.0000
  C   C40       1.0  0.01870  0.20391  0.65605  1.0000
  C   C41       1.0  0.01186  0.25979  0.63722  1.0000
  C   C42       1.0  0.01003  0.28081  0.64916  1.0000
  C   C43       1.0  0.01838  0.22542  0.66785  1.0000
  H   H65       1.0  0.02218  0.21256  0.67952  1.0000
  S   S11       1.0  0.00432  0.32862  0.64458  1.0000
  H   H66       1.0  0.23963  0.10025  0.70230  1.0000
  H   H67       1.0  0.24675  0.11801  0.72945  1.0000
  H   H68       1.0  0.18272  0.12069  0.71615  1.0000
  H   H69       1.0  0.29123  0.15427  0.72608  1.0000
  H   H70       1.0  0.32630  0.11027  0.71355  1.0000
  C   C44       1.0  0.00264  0.48975  0.69795  1.0000
  N   N5        1.0  0.29273  0.09653  0.73792  1.0000
  H   H71       1.0  0.08448  0.45214  0.73797  1.0000
  H   H72       1.0  0.45305  0.01351  0.73884  1.0000
  H   H73       1.0  0.12328  0.02406  0.65951  1.0000
  H   H74       1.0  0.07465  0.48860  0.72316  1.0000
  C   C45       1.0  0.07326  0.47901  0.73618  1.0000
  H   H75       1.0  0.10631  0.01837  0.71129  1.0000
  H   H76       1.0  0.08079  0.43781  0.68127  1.0000
  C   C46       1.0  0.05905  0.45247  0.68587  1.0000
  C   C47       1.0  0.01934  0.43567  0.68768  1.0000
  H   H77       1.0  0.01065  0.40824  0.68446  1.0000
  C   C48       1.0  0.07062  0.48795  0.69008  1.0000
  H   H78       1.0  0.00730  0.44766  0.72878  1.0000
  H   H79       1.0  0.34712  0.13653  0.73600  1.0000
  H   H80       1.0  0.21340  0.49865  0.67966  1.0000
  H   H81       1.0  0.09358  0.50203  0.73944  1.0000
  S   S12       1.0  0.08703  0.11513  0.76643  1.0000
  C   C49       1.0  0.03812  0.08308  0.83816  1.0000
  C   C50       1.0  0.04085  0.06346  0.82571  1.0000
  H   H82       1.0  0.07545  0.16049  0.82312  1.0000
  Fe  Fe5       1.0  0.07273  0.05816  0.78474  1.0000
  H   H83       1.0  0.06188  0.08783  0.84409  1.0000
  Fe  Fe6       1.0  0.11030  0.08083  0.74952  1.0000
  H   H84       1.0  0.06653  0.05287  0.82211  1.0000
  S   S13       1.0  0.12927  0.06944  0.79216  1.0000
  H   H85       1.0  0.10884  0.16466  0.79542  1.0000
  Fe  Fe7       1.0  0.14610  0.12291  0.77201  1.0000
  H   H86       1.0  0.03896  0.13593  0.80380  1.0000
  C   C51       1.0  0.03317  0.16539  0.80065  1.0000
  S   S14       1.0  0.09177  0.02316  0.76736  1.0000
  H   H87       1.0  0.02922  0.16986  0.78814  1.0000
  C   C52       1.0  0.00544  0.09789  0.84248  1.0000
  H   H88       1.0  0.28055  0.03797  0.75235  1.0000
  C   C53       1.0  0.22827  0.16979  0.77719  1.0000
  C   C54       1.0  0.26753  0.12424  0.78435  1.0000
  C   C55       1.0  0.29896  0.15519  0.78306  1.0000
  S   S15       1.0  0.18425  0.17882  0.77330  1.0000
  H   H89       1.0  0.20880  0.10729  0.78201  1.0000
  C   C56       1.0  0.23253  0.13151  0.78118  1.0000
  S   S16       1.0  0.17069  0.09402  0.75331  1.0000
  H   H90       1.0  0.26985  0.09461  0.78794  1.0000
  H   H91       1.0  0.25500  0.06972  0.76124  1.0000
  Fe  Fe8       1.0  0.15001  0.03999  0.77289  1.0000
  C   C57       1.0  0.29481  0.19355  0.77905  1.0000
  S   S17       1.0  0.30558  0.03510  0.78418  1.0000
  C   C58       1.0  0.26601  0.06234  0.74965  1.0000
  C   C59       1.0  0.25943  0.20084  0.77621  1.0000
  S   S18       1.0  0.34400  0.14657  0.78584  1.0000
  H   H92       1.0  0.31647  0.11989  0.75589  1.0000
  H   H93       1.0  0.26015  0.13640  0.74589  1.0000
  C   C60       1.0  0.32613  0.11091  0.74456  1.0000
  H   H94       1.0  0.34224  0.08799  0.74740  1.0000
  H   H95       1.0  0.24011  0.05092  0.74518  1.0000
  Fe  Fe9       1.0  0.34832  0.08411  0.78837  1.0000
  S   S19       1.0  0.36369  0.01684  0.74470  1.0000
  C   C61       1.0  0.45886  0.01154  0.75102  1.0000
  H   H96       1.0  0.37986  0.18090  0.81149  1.0000
  S   S20       1.0  0.35826  0.04885  0.81062  1.0000
  H   H97       1.0  0.37592  0.12960  0.81510  1.0000
  C   C62       1.0  0.00729  0.44067  0.74177  1.0000
  H   H98       1.0  0.42500  0.13931  0.78930  1.0000
  Fe  Fe10      1.0  0.40625  0.03411  0.79430  1.0000
  H   H99       1.0  0.47968  0.09559  0.77316  1.0000
  S   S21       1.0  0.40002  0.07397  0.77245  1.0000
  N   N6        1.0  0.43466  0.16426  0.80913  1.0000
  H   H100      1.0  0.44614  0.12773  0.82944  1.0000
  H   H101      1.0  0.42632  0.19024  0.78608  1.0000
  S   S22       1.0  0.46325  0.03163  0.80100  1.0000
  H   H102      1.0  0.43582  0.10348  0.81400  1.0000
  C   C63       1.0  0.43950  0.16714  0.79172  1.0000
  C   C64       1.0  0.45029  0.13162  0.81623  1.0000
  H   H103      1.0  0.01636  0.41269  0.74444  1.0000
  H   H104      1.0  0.48202  0.13667  0.81103  1.0000
  H   H105      1.0  0.47075  0.17408  0.78543  1.0000
  H   H106      1.0  0.38797  0.15518  0.82993  1.0000
  C   C65       1.0  0.39285  0.15724  0.81680  1.0000
  C   C66       1.0  0.06878  0.18923  0.81907  1.0000
  H   H107      1.0  0.10090  0.19815  0.77903  1.0000
  C   C67       1.0  0.10212  0.19366  0.79189  1.0000
  N   N7        1.0  0.06537  0.19577  0.80220  1.0000
  H   H108      1.0  0.04129  0.18955  0.82734  1.0000
  H   H109      1.0  0.02993  0.23707  0.80471  1.0000
  Fe  Fe11      1.0  0.35816  0.02204  0.77008  1.0000
  H   H110      1.0  0.12737  0.21598  0.79269  1.0000
  H   H111      1.0  0.09244  0.21194  0.82072  1.0000
  H   H112      1.0  0.05506  0.24052  0.78447  1.0000
  C   C68       1.0  0.05759  0.23462  0.79717  1.0000
  H   H113      1.0  0.08135  0.25820  0.79823  1.0000
  H   H114      1.0  0.31898  0.21767  0.77807  1.0000
  H   H115      1.0  0.25633  0.23051  0.77312  1.0000
  H   H116      1.0  0.44512  0.22632  0.80648  1.0000
  H   H117      1.0  0.45325  0.19993  0.82475  1.0000
  C   C69       1.0  0.45611  0.20106  0.81173  1.0000
  H   H118      1.0  0.48782  0.20717  0.80606  1.0000
  N   N8        1.0  0.03331  0.47234  0.74596  1.0000
  H   H119      1.0  0.05292  0.48457  0.76669  1.0000
  H   H120      1.0  0.04350  0.43392  0.76606  1.0000
  C   C70       1.0  0.03352  0.46130  0.76313  1.0000
  H   H121      1.0  0.00402  0.45644  0.77086  1.0000
  C   C71       1.0  0.01020  0.05736  0.81803  1.0000
  H   H122      1.0  0.47465  0.04098  0.75149  1.0000
  S   S23       1.0  0.01415  0.03548  0.80175  1.0000
  H   H123      1.0  0.00503  0.16494  0.80870  1.0000
  S   S24       1.0  0.00405  0.12585  0.85685  1.0000
  H   H124      1.0  0.43013  0.00442  0.75969  1.0000
  H   H125      1.0  0.44439  0.61501  0.11250  1.0000
  H   H126      1.0  0.36030  0.57948  0.11303  1.0000
  H   H127      1.0  0.35280  0.64745  0.11196  1.0000
  C   C72       1.0  0.42369  0.63438  0.11192  1.0000
  H   H128      1.0  0.41635  0.63701  0.09999  1.0000
  H   H129      1.0  0.43986  0.66370  0.11241  1.0000
  C   C73       1.0  0.05389  0.54831  0.17445  1.0000
  S   S25       1.0  0.05922  0.59443  0.17888  1.0000
  H   H130      1.0  0.03274  0.59102  0.12712  1.0000
  H   H131      1.0  0.02639  0.58468  0.14840  1.0000
  C   C74       1.0  0.01304  0.57483  0.13890  1.0000
  H   H132      1.0  0.03479  0.53363  0.21105  1.0000
  H   H133      1.0  0.01290  0.54335  0.14018  1.0000
  C   C75       1.0  0.01646  0.52462  0.17711  1.0000
  Fe  Fe12      1.0  0.43052  0.95241  0.18327  1.0000
  C   C76       1.0  0.08625  0.53527  0.16801  1.0000
  H   H134      1.0  0.08684  0.54529  0.20514  1.0000
  H   H135      1.0  0.11514  0.55373  0.16550  1.0000
  S   S26       1.0  0.16629  0.58815  0.18263  1.0000
  H   H136      1.0  0.29965  0.58605  0.19691  1.0000
  C   C77       1.0  0.06152  0.53097  0.21543  1.0000
  H   H137      1.0  0.06310  0.54801  0.22478  1.0000
  S   S27       1.0  0.17245  0.56670  0.22858  1.0000
  H   H138      1.0  0.25351  0.59901  0.17999  1.0000
  H   H139      1.0  0.38883  0.55918  0.12578  1.0000
  H   H140      1.0  0.34247  0.56723  0.13447  1.0000
  C   C78       1.0  0.36918  0.57948  0.12458  1.0000
  N   N9        1.0  0.38852  0.61915  0.12521  1.0000
  H   H141      1.0  0.42063  0.59871  0.14220  1.0000
  H   H142      1.0  0.37406  0.60620  0.15105  1.0000
  S   S28       1.0  0.46857  0.60081  0.17271  1.0000
  H   H143      1.0  0.36376  0.57287  0.22984  1.0000
  H   H144      1.0  0.44248  0.56439  0.23639  1.0000
  H   H145      1.0  0.33403  0.63388  0.13326  1.0000
  H   H146      1.0  0.10776  0.67684  0.23154  1.0000
  C   C79       1.0  0.30883  0.60985  0.18631  1.0000
  C   C80       1.0  0.21329  0.58619  0.23527  1.0000
  H   H147      1.0  0.17275  0.66022  0.22672  1.0000
  C   C81       1.0  0.28277  0.61717  0.17674  1.0000
  C   C82       1.0  0.27837  0.62750  0.22977  1.0000
  Fe  Fe13      1.0  0.11838  0.62008  0.18252  1.0000
  H   H148      1.0  0.24951  0.61167  0.21165  1.0000
  Fe  Fe14      1.0  0.17013  0.60570  0.20564  1.0000
  H   H149      1.0  0.34086  0.69603  0.14871  1.0000
  S   S29       1.0  0.26048  0.65890  0.15214  1.0000
  S   S30       1.0  0.21349  0.66205  0.19406  1.0000
  H   H150      1.0  0.22144  0.74981  0.17398  1.0000
  C   C83       1.0  0.29436  0.64810  0.16315  1.0000
  C   C84       1.0  0.20872  0.77592  0.19405  1.0000
  S   S31       1.0  0.11892  0.63246  0.20670  1.0000
  H   H151      1.0  0.31432  0.73166  0.17991  1.0000
  Fe  Fe15      1.0  0.20520  0.64756  0.17092  1.0000
  Fe  Fe16      1.0  0.16223  0.68794  0.19339  1.0000
  S   S32       1.0  0.16497  0.74112  0.20348  1.0000
  C   C85       1.0  0.33224  0.67146  0.15899  1.0000
  S   S33       1.0  0.15716  0.67871  0.16904  1.0000
  C   C86       1.0  0.23105  0.77330  0.17951  1.0000
  N   N10       1.0  0.34711  0.74655  0.19705  1.0000
  C   C87       1.0  0.31373  0.72279  0.19291  1.0000
  H   H152      1.0  0.28544  0.72593  0.19967  1.0000
  H   H153      1.0  0.31374  0.69127  0.19567  1.0000
  C   C88       1.0  0.34522  0.73370  0.21437  1.0000
  H   H154      1.0  0.34869  0.70330  0.21752  1.0000
  C   C89       1.0  0.24721  0.60885  0.22433  1.0000
  H   H155      1.0  0.36870  0.75249  0.21803  1.0000
  H   H156      1.0  0.31692  0.73473  0.22187  1.0000
  H   H157      1.0  0.31811  0.79262  0.20000  1.0000
  C   C90       1.0  0.26522  0.80194  0.17174  1.0000
  H   H158      1.0  0.28187  0.80031  0.16028  1.0000
  C   C91       1.0  0.34566  0.78798  0.19325  1.0000
  H   H159      1.0  0.34749  0.79881  0.18022  1.0000
  C   C92       1.0  0.22137  0.80654  0.20109  1.0000
  H   H160      1.0  0.19149  0.70490  0.23183  1.0000
  H   H161      1.0  0.49648  0.89730  0.21740  1.0000
  C   C93       1.0  0.39983  0.61768  0.14071  1.0000
  H   H162      1.0  0.30464  0.64439  0.22119  1.0000
  C   C94       1.0  0.36137  0.64501  0.12365  1.0000
  H   H163      1.0  0.38671  0.71124  0.19059  1.0000
  H   H164      1.0  0.41458  0.64713  0.14160  1.0000
  H   H165      1.0  0.37021  0.80675  0.19632  1.0000
  H   H166      1.0  0.37465  0.67499  0.12446  1.0000
  C   C95       1.0  0.38396  0.74196  0.18763  1.0000
  H   H167      1.0  0.38586  0.75036  0.17450  1.0000
  C   C96       1.0  0.35837  0.66403  0.16858  1.0000
  C   C97       1.0  0.34644  0.63347  0.18235  1.0000
  H   H168      1.0  0.40968  0.76056  0.19005  1.0000
  H   H169      1.0  0.40836  0.60976  0.22353  1.0000
  S   S34       1.0  0.37716  0.62570  0.19529  1.0000
  H   H170      1.0  0.48657  0.72745  0.20590  1.0000
  Fe  Fe17      1.0  0.40234  0.87478  0.20770  1.0000
  S   S35       1.0  0.46774  0.69371  0.16142  1.0000
  S   S36       1.0  0.48344  0.65840  0.19691  1.0000
  H   H171      1.0  0.38713  0.68282  0.16559  1.0000
  Fe  Fe18      1.0  0.43984  0.64371  0.18263  1.0000
  C   C98       1.0  0.17802  0.67328  0.23689  1.0000
  C   C99       1.0  0.48455  0.75727  0.20285  1.0000
  C   C100      1.0  0.45752  0.77030  0.21299  1.0000
  H   H172      1.0  0.43812  0.75006  0.22350  1.0000
  C   C101      1.0  0.38227  0.59646  0.23358  1.0000
  H   H173      1.0  0.36552  0.61917  0.23475  1.0000
  H   H174      1.0  0.20410  0.80869  0.21231  1.0000
  C   C102      1.0  0.27774  0.83276  0.17867  1.0000
  S   S37       1.0  0.33447  0.97520  0.22570  1.0000
  Fe  Fe19      1.0  0.36084  0.93946  0.21030  1.0000
  H   H175      1.0  0.26542  0.85868  0.19879  1.0000
  S   S38       1.0  0.32060  0.86823  0.16859  1.0000
  C   C103      1.0  0.25610  0.83473  0.19349  1.0000
  S   S39       1.0  0.37008  0.95993  0.18369  1.0000
  S   S40       1.0  0.33941  0.87619  0.21101  1.0000
  Fe  Fe20      1.0  0.35454  0.89612  0.18418  1.0000
  S   S41       1.0  0.41634  0.89057  0.18088  1.0000
  C   C104      1.0  0.45487  0.80910  0.20925  1.0000
  S   S42       1.0  0.48285  0.99813  0.16805  1.0000
  C   C105      1.0  0.36502  0.98631  0.23846  1.0000
  H   H176      1.0  0.09899  0.50348  0.23740  1.0000
  H   H177      1.0  0.12696  0.71919  0.23800  1.0000
  S   S43       1.0  0.42233  0.93574  0.20987  1.0000
  C   C106      1.0  0.48006  0.83515  0.19566  1.0000
  H   H178      1.0  0.47844  0.86525  0.19286  1.0000
  S   S44       1.0  0.41927  0.82425  0.22150  1.0000
  H   H179      1.0  0.06601  0.60982  0.31115  1.0000
  C   C107      1.0  0.06944  0.55557  0.30442  1.0000
  C   C108      1.0  0.09417  0.53400  0.29790  1.0000
  N   N11       1.0  0.14149  0.66688  0.24913  1.0000
  C   C109      1.0  0.12339  0.62465  0.25470  1.0000
  H   H180      1.0  0.14321  0.60850  0.25990  1.0000
  H   H181      1.0  0.09606  0.61859  0.26416  1.0000
  C   C110      1.0  0.08496  0.59352  0.30569  1.0000
  H   H182      1.0  0.11638  0.61179  0.24464  1.0000
  H   H183      1.0  0.03857  0.54270  0.30883  1.0000
  C   C111      1.0  0.11434  0.68718  0.24218  1.0000
  H   H184      1.0  0.08628  0.68251  0.25104  1.0000
  H   H185      1.0  0.12347  0.67827  0.27236  1.0000
  C   C112      1.0  0.15032  0.68253  0.26283  1.0000
  C   C113      1.0  0.12498  0.60998  0.30016  1.0000
  H   H186      1.0  0.17055  0.66762  0.26840  1.0000
  H   H187      1.0  0.44395  0.62881  0.24345  1.0000
  H   H188      1.0  0.33872  0.53943  0.25853  1.0000
  S   S45       1.0  0.14494  0.65602  0.30289  1.0000
  C   C114      1.0  0.13395  0.55080  0.29213  1.0000
  C   C115      1.0  0.14914  0.58903  0.29292  1.0000
  H   H189      1.0  0.18536  0.56269  0.26019  1.0000
  H   H190      1.0  0.22697  0.57411  0.33237  1.0000
  H   H191      1.0  0.21634  0.57873  0.35266  1.0000
  H   H192      1.0  0.15298  0.53408  0.28707  1.0000
  C   C116      1.0  0.27496  0.62493  0.24619  1.0000
  S   S46       1.0  0.31163  0.65283  0.25285  1.0000
  C   C117      1.0  0.24157  0.60107  0.25717  1.0000
  C   C118      1.0  0.21113  0.58109  0.25172  1.0000
  H   H193      1.0  0.23925  0.59765  0.26986  1.0000
  H   H194      1.0  0.17954  0.60212  0.28793  1.0000
  S   S47       1.0  0.24627  0.62547  0.29741  1.0000
  N   N12       1.0  0.16588  0.56446  0.34302  1.0000
  C   C119      1.0  0.20581  0.56188  0.34420  1.0000
  C   C120      1.0  0.16502  0.60581  0.33781  1.0000
  H   H195      1.0  0.17417  0.62314  0.34633  1.0000
  H   H196      1.0  0.18505  0.61960  0.32589  1.0000
  S   S48       1.0  0.29636  0.63167  0.33288  1.0000
  Fe  Fe21      1.0  0.28555  0.66832  0.27561  1.0000
  H   H197      1.0  0.19981  0.65985  0.24194  1.0000
  Fe  Fe22      1.0  0.21036  0.67017  0.29744  1.0000
  H   H198      1.0  0.13542  0.60904  0.33666  1.0000
  C   C121      1.0  0.34698  0.64800  0.32904  1.0000
  C   C122      1.0  0.15400  0.54297  0.33120  1.0000
  H   H199      1.0  0.17452  0.55459  0.31922  1.0000
  H   H200      1.0  0.35774  0.62725  0.30741  1.0000
  C   C123      1.0  0.37064  0.64291  0.31527  1.0000
  H   H201      1.0  0.34014  0.58550  0.26368  1.0000
  H   H202      1.0  0.36508  0.55228  0.27312  1.0000
  C   C124      1.0  0.35777  0.56386  0.26158  1.0000
  H   H203      1.0  0.12448  0.54535  0.32958  1.0000
  H   H204      1.0  0.15328  0.51142  0.33491  1.0000
  N   N13       1.0  0.39328  0.58165  0.24865  1.0000
  C   C125      1.0  0.41729  0.61428  0.25311  1.0000
  H   H205      1.0  0.40075  0.63676  0.25525  1.0000
  Fe  Fe23      1.0  0.27958  0.66018  0.31113  1.0000
  H   H206      1.0  0.42697  0.60398  0.26424  1.0000
  H   H207      1.0  0.42544  0.54077  0.25733  1.0000
  H   H208      1.0  0.42924  0.65300  0.30134  1.0000
  S   S49       1.0  0.49323  0.67669  0.27395  1.0000
  C   C126      1.0  0.41106  0.65771  0.31177  1.0000
  S   S50       1.0  0.49703  0.56814  0.27191  1.0000
  C   C127      1.0  0.41585  0.55205  0.24629  1.0000
  H   H209      1.0  0.13857  0.51605  0.36319  1.0000
  H   H210      1.0  0.39845  0.52677  0.24311  1.0000
  H   H211      1.0  0.16429  0.71425  0.25909  1.0000
  H   H212      1.0  0.22684  0.91132  0.24738  1.0000
  H   H213      1.0  0.26751  0.86489  0.24378  1.0000
  H   H214      1.0  0.20742  0.84459  0.26591  1.0000
  H   H215      1.0  0.20565  0.86536  0.28319  1.0000
  H   H216      1.0  0.40220  0.80298  0.25433  1.0000
  S   S51       1.0  0.24701  0.71045  0.27451  1.0000
  N   N14       1.0  0.25792  0.88933  0.26450  1.0000
  S   S52       1.0  0.32288  0.69895  0.28941  1.0000
  C   C128      1.0  0.34756  0.78658  0.30665  1.0000
  C   C129      1.0  0.38102  0.79580  0.31254  1.0000
  H   H217      1.0  0.32950  0.75722  0.31039  1.0000
  H   H218      1.0  0.35531  0.87504  0.28225  1.0000
  Fe  Fe24      1.0  0.28080  0.73747  0.29034  1.0000
  S   S53       1.0  0.30077  0.80230  0.28601  1.0000
  C   C130      1.0  0.36173  0.85301  0.29097  1.0000
  C   C131      1.0  0.33845  0.81498  0.29556  1.0000
  S   S54       1.0  0.24048  0.70127  0.31324  1.0000
  C   C132      1.0  0.39486  0.86229  0.29700  1.0000
  H   H219      1.0  0.29119  0.88075  0.28233  1.0000
  H   H220      1.0  0.37845  0.78127  0.27474  1.0000
  H   H221      1.0  0.23585  0.83199  0.28004  1.0000
  C   C133      1.0  0.22520  0.85642  0.27380  1.0000
  C   C134      1.0  0.39901  0.77744  0.26429  1.0000
  H   H222      1.0  0.38495  0.75096  0.26082  1.0000
  H   H223      1.0  0.41309  0.89153  0.29317  1.0000
  H   H224      1.0  0.34534  0.67260  0.34974  1.0000
  H   H225      1.0  0.29535  0.85186  0.25813  1.0000
  C   C135      1.0  0.28338  0.87582  0.25241  1.0000
  C   C136      1.0  0.40527  0.83338  0.30734  1.0000
  H   H226      1.0  0.38896  0.77335  0.32057  1.0000
  C   C137      1.0  0.36364  0.66822  0.33920  1.0000
  H   H227      1.0  0.30870  0.89967  0.24536  1.0000
  H   H228      1.0  0.20762  0.53120  0.34836  1.0000
  H   H229      1.0  0.43765  0.82262  0.27924  1.0000
  H   H230      1.0  0.41222  0.75102  0.29330  1.0000
  H   H231      1.0  0.46475  0.83551  0.25887  1.0000
  N   N15       1.0  0.43690  0.77454  0.26802  1.0000
  C   C138      1.0  0.45670  0.81247  0.27022  1.0000
  H   H232      1.0  0.49805  0.81328  0.33207  1.0000
  C   C139      1.0  0.46135  0.76422  0.25461  1.0000
  H   H233      1.0  0.48354  0.81064  0.27454  1.0000
  S   S55       1.0  0.47762  0.70025  0.31695  1.0000
  H   H234      1.0  0.41545  0.71517  0.28170  1.0000
  C   C140      1.0  0.43049  0.74416  0.28291  1.0000
  H   H235      1.0  0.45839  0.74130  0.28621  1.0000
  S   S56       1.0  0.45145  0.84233  0.31152  1.0000
  C   C141      1.0  0.40389  0.68407  0.33542  1.0000
  H   H236      1.0  0.41657  0.70049  0.34311  1.0000
  C   C142      1.0  0.42761  0.67885  0.32171  1.0000
  H   H237      1.0  0.44701  0.73621  0.25234  1.0000
  H   H238      1.0  0.48973  0.76092  0.25717  1.0000
  H   H239      1.0  0.49161  0.76269  0.33219  1.0000
  H   H240      1.0  0.14684  0.56292  0.36805  1.0000
  H   H241      1.0  0.22202  0.93074  0.26503  1.0000
  H   H242      1.0  0.26280  0.91605  0.28435  1.0000
  C   C143      1.0  0.28060  0.90423  0.27544  1.0000
  C   C144      1.0  0.24250  0.92086  0.25632  1.0000
  H   H243      1.0  0.42730  0.94880  0.25835  1.0000
  H   H244      1.0  0.26634  0.94679  0.24978  1.0000
  H   H245      1.0  0.30659  0.92795  0.26872  1.0000
  C   C145      1.0  0.41169  0.96955  0.25379  1.0000
  C   C146      1.0  0.38528  0.95944  0.24447  1.0000
  S   S57       1.0  0.48035  0.95646  0.30279  1.0000
  Fe  Fe25      1.0  0.48739  0.90032  0.29650  1.0000
  S   S58       1.0  0.48755  0.92007  0.27047  1.0000
  Fe  Fe26      1.0  0.48585  0.97786  0.27644  1.0000
  C   C147      1.0  0.13870  0.54728  0.35887  1.0000
  H   H246      1.0  0.10832  0.54882  0.35833  1.0000
  H   H247      1.0  0.46761  0.78711  0.24330  1.0000
  H   H248      1.0  0.38055  0.93075  0.24203  1.0000
  H   H249      1.0  0.01859  0.51775  0.72995  1.0000
  C   C148      1.0  0.24233  0.77614  0.73647  1.0000
  S   S59       1.0  0.12046  0.50761  0.68844  1.0000
  H   H250      1.0  0.05075  0.53466  0.69863  1.0000
  S   S60       1.0  0.16751  0.55040  0.71917  1.0000
  Fe  Fe27      1.0  0.13498  0.55854  0.69971  1.0000
  H   H251      1.0  0.27430  0.59766  0.65775  1.0000
  C   C149      1.0  0.27445  0.58875  0.67066  1.0000
  H   H252      1.0  0.25403  0.60289  0.67737  1.0000
  C   C150      1.0  0.04226  0.50675  0.69590  1.0000
  H   H253      1.0  0.24374  0.54733  0.70130  1.0000
  N   N16       1.0  0.26326  0.54587  0.67664  1.0000
  H   H254      1.0  0.30394  0.60138  0.67217  1.0000
  C   C151      1.0  0.26487  0.53559  0.69369  1.0000
  S   S61       1.0  0.09152  0.58510  0.71310  1.0000
  Fe  Fe28      1.0  0.12706  0.58109  0.73152  1.0000
  C   C152      1.0  0.22321  0.53088  0.67514  1.0000
  Fe  Fe29      1.0  0.40522  0.85899  0.70808  1.0000
  C   C153      1.0  0.29049  0.52828  0.66710  1.0000
  H   H255      1.0  0.32095  0.53905  0.66803  1.0000
  H   H256      1.0  0.29413  0.54805  0.69547  1.0000
  C   C154      1.0  0.03591  0.73084  0.73232  1.0000
  C   C155      1.0  0.08266  0.78995  0.71705  1.0000
  N   N17       1.0  0.07328  0.75771  0.73152  1.0000
  H   H257      1.0  0.03777  0.71718  0.72183  1.0000
  H   H258      1.0  0.28999  0.53543  0.65417  1.0000
  H   H259      1.0  0.01184  0.74619  0.73254  1.0000
  H   H260      1.0  0.08331  0.77863  0.70603  1.0000
  C   C156      1.0  0.10449  0.73622  0.73066  1.0000
  H   H261      1.0  0.13332  0.75569  0.72971  1.0000
  H   H262      1.0  0.29962  0.71552  0.72625  1.0000
  H   H263      1.0  0.11689  0.77540  0.67837  1.0000
  H   H264      1.0  0.30021  0.80032  0.62581  1.0000
  S   S62       1.0  0.17583  0.61584  0.68621  1.0000
  C   C157      1.0  0.30842  0.81317  0.63567  1.0000
  H   H265      1.0  0.30749  0.78867  0.64574  1.0000
  C   C158      1.0  0.24217  0.81369  0.64735  1.0000
  H   H266      1.0  0.23102  0.79954  0.63831  1.0000
  H   H267      1.0  0.24054  0.79028  0.65800  1.0000
  C   C159      1.0  0.27290  0.69425  0.68691  1.0000
  H   H268      1.0  0.19115  0.70797  0.69732  1.0000
  H   H269      1.0  0.24401  0.68204  0.68574  1.0000
  C   C160      1.0  0.14287  0.77385  0.68276  1.0000
  S   S63       1.0  0.16577  0.64072  0.72116  1.0000
  C   C161      1.0  0.15046  0.73754  0.68829  1.0000
  Fe  Fe30      1.0  0.13468  0.64188  0.70115  1.0000
  H   H270      1.0  0.23576  0.76800  0.69846  1.0000
  C   C162      1.0  0.20964  0.76977  0.69430  1.0000
  H   H271      1.0  0.27762  0.74948  0.67120  1.0000
  C   C163      1.0  0.18440  0.73568  0.69362  1.0000
  Fe  Fe31      1.0  0.20388  0.61042  0.70719  1.0000
  S   S64       1.0  0.26817  0.62316  0.70606  1.0000
  C   C164      1.0  0.29216  0.73243  0.67857  1.0000
  S   S65       1.0  0.11605  0.69462  0.68978  1.0000
  C   C165      1.0  0.16812  0.80812  0.68349  1.0000
  C   C166      1.0  0.20117  0.80590  0.68953  1.0000
  C   C167      1.0  0.29143  0.67168  0.69638  1.0000
  H   H272      1.0  0.33929  0.83007  0.63146  1.0000
  C   C168      1.0  0.27214  0.72526  0.72922  1.0000
  N   N18       1.0  0.27970  0.76497  0.73209  1.0000
  H   H273      1.0  0.25761  0.72373  0.71910  1.0000
  H   H274      1.0  0.10711  0.72311  0.72005  1.0000
  C   C169      1.0  0.30455  0.79288  0.71740  1.0000
  H   H275      1.0  0.29027  0.79402  0.70713  1.0000
  N   N19       1.0  0.28230  0.83788  0.64078  1.0000
  H   H276      1.0  0.22176  0.83140  0.65138  1.0000
  H   H277      1.0  0.22637  0.77627  0.72672  1.0000
  H   H278      1.0  0.27280  0.85622  0.61716  1.0000
  C   C170      1.0  0.39635  0.95214  0.64266  1.0000
  H   H279      1.0  0.33269  0.78484  0.71364  1.0000
  C   C171      1.0  0.32986  0.74842  0.67978  1.0000
  S   S66       1.0  0.35437  0.79503  0.66797  1.0000
  C   C172      1.0  0.32896  0.68770  0.69781  1.0000
  H   H280      1.0  0.34337  0.67022  0.70515  1.0000
  H   H281      1.0  0.37730  0.73826  0.69052  1.0000
  C   C173      1.0  0.34804  0.72626  0.68965  1.0000
  S   S67       1.0  0.37302  0.87552  0.68933  1.0000
  H   H282      1.0  0.06072  0.80795  0.71757  1.0000
  H   H283      1.0  0.04217  0.95943  0.64814  1.0000
  S   S68       1.0  0.10776  0.93845  0.65839  1.0000
  C   C174      1.0  0.10471  0.97107  0.64130  1.0000
  C   C175      1.0  0.06835  0.97715  0.63963  1.0000
  C   C176      1.0  0.13843  0.99340  0.63007  1.0000
  Fe  Fe32      1.0  0.42928  0.91694  0.67581  1.0000
  H   H284      1.0  0.20202  0.54360  0.68223  1.0000
  H   H285      1.0  0.11168  0.80974  0.71562  1.0000
  H   H286      1.0  0.29274  0.83365  0.66448  1.0000
  C   C177      1.0  0.30013  0.97635  0.71032  1.0000
  C   C178      1.0  0.29561  0.85593  0.65329  1.0000
  H   H287      1.0  0.16293  0.99813  0.69750  1.0000
  H   H288      1.0  0.30240  0.98416  0.69714  1.0000
  H   H289      1.0  0.31284  0.88744  0.62151  1.0000
  H   H290      1.0  0.29345  0.91410  0.69747  1.0000
  H   H291      1.0  0.16151  0.83607  0.67971  1.0000
  Fe  Fe33      1.0  0.22754  0.98701  0.67654  1.0000
  H   H292      1.0  0.32670  0.87203  0.64928  1.0000
  C   C179      1.0  0.28303  0.86868  0.62677  1.0000
  H   H293      1.0  0.36554  0.92946  0.62629  1.0000
  H   H294      1.0  0.27085  0.87809  0.71572  1.0000
  H   H295      1.0  0.31953  0.90657  0.71296  1.0000
  H   H296      1.0  0.26412  0.88832  0.63010  1.0000
  Fe  Fe34      1.0  0.25429  0.96182  0.64577  1.0000
  C   C180      1.0  0.36912  0.95148  0.63309  1.0000
  H   H297      1.0  0.27837  0.87695  0.65661  1.0000
  S   S69       1.0  0.20674  0.90721  0.65291  1.0000
  Fe  Fe35      1.0  0.16900  0.94563  0.66126  1.0000
  S   S70       1.0  0.23221  0.84789  0.69118  1.0000
  S   S71       1.0  0.17769  0.93424  0.68632  1.0000
  N   N20       1.0  0.27453  0.93721  0.71783  1.0000
  H   H298      1.0  0.21555  0.90725  0.71959  1.0000
  C   C181      1.0  0.23530  0.93682  0.71508  1.0000
  S   S72       1.0  0.27073  0.95285  0.66934  1.0000
  Fe  Fe36      1.0  0.22031  0.90135  0.67710  1.0000
  H   H299      1.0  0.22171  0.95744  0.72095  1.0000
  H   H300      1.0  0.23668  0.94594  0.70215  1.0000
  C   C182      1.0  0.29035  0.90772  0.71069  1.0000
  H   H301      1.0  0.16646  0.98792  0.63099  1.0000
  C   C183      1.0  0.34511  0.97784  0.63312  1.0000
  S   S73       1.0  0.30435  0.97051  0.62482  1.0000
  H   H302      1.0  0.33004  0.97797  0.71203  1.0000
  H   H303      1.0  0.28877  0.99917  0.71542  1.0000
  H   H304      1.0  0.22053  0.53814  0.66248  1.0000
  Fe  Fe37      1.0  0.39696  0.83123  0.67822  1.0000
  H   H305      1.0  0.39858  0.92739  0.71262  1.0000
  S   S74       1.0  0.45095  0.87448  0.66284  1.0000
  S   S75       1.0  0.37709  0.85152  0.73397  1.0000
  H   H306      1.0  0.39583  0.99235  0.71713  1.0000
  C   C184      1.0  0.40072  0.98027  0.65170  1.0000
  H   H307      1.0  0.31151  0.82288  0.71935  1.0000
  S   S76       1.0  0.43215  0.97917  0.66474  1.0000
  S   S77       1.0  0.42487  0.81098  0.69823  1.0000
  H   H308      1.0  0.41365  0.93066  0.64317  1.0000
  Fe  Fe38      1.0  0.47684  0.85855  0.68395  1.0000
  C   C185      1.0  0.38574  0.96707  0.72713  1.0000
  S   S78       1.0  0.45948  0.90477  0.69560  1.0000
  C   C186      1.0  0.38779  0.93026  0.72460  1.0000
  C   C187      1.0  0.27209  0.92792  0.73526  1.0000
  C   C188      1.0  0.37477  0.89742  0.73741  1.0000
  H   H309      1.0  0.25293  0.70362  0.74003  1.0000
  S   S79       1.0  0.21558  0.00144  0.65210  1.0000
  H   H310      1.0  0.24682  0.80579  0.73889  1.0000
  H   H311      1.0  0.14445  0.92977  0.73946  1.0000
  H   H312      1.0  0.30106  0.92792  0.73779  1.0000
  H   H313      1.0  0.25772  0.50347  0.69852  1.0000
  C   C189      1.0  0.04668  0.66622  0.77174  1.0000
  H   H314      1.0  0.08884  0.60691  0.78111  1.0000
  C   C190      1.0  0.03512  0.63873  0.76302  1.0000
  H   H315      1.0  0.07723  0.67802  0.77061  1.0000
  H   H316      1.0  0.05686  0.62975  0.75508  1.0000
  C   C191      1.0  0.01867  0.67722  0.78226  1.0000
  C   C192      1.0  0.05951  0.61756  0.81607  1.0000
  H   H317      1.0  0.06617  0.63148  0.82590  1.0000
  S   S80       1.0  0.10251  0.56143  0.75796  1.0000
  H   H318      1.0  0.06105  0.64149  0.80561  1.0000
  N   N21       1.0  0.02086  0.58999  0.82101  1.0000
  H   H319      1.0  0.08314  0.60279  0.81247  1.0000
  C   C193      1.0  0.02014  0.55832  0.83470  1.0000
  H   H320      1.0  0.04251  0.54184  0.83147  1.0000
  H   H321      1.0  0.01365  0.59605  0.79685  1.0000
  H   H322      1.0  0.03498  0.55670  0.80356  1.0000
  C   C194      1.0  0.01303  0.57310  0.80745  1.0000
  H   H323      1.0  0.02583  0.56994  0.84520  1.0000
  H   H324      1.0  0.45185  0.94317  0.74251  1.0000
  C   C195      1.0  0.11985  0.61256  0.77637  1.0000
  C   C196      1.0  0.13448  0.59203  0.76550  1.0000
  H   H325      1.0  0.13360  0.65961  0.78787  1.0000
  C   C197      1.0  0.48822  0.98072  0.77106  1.0000
  C   C198      1.0  0.45847  0.94322  0.75447  1.0000
  H   H326      1.0  0.03809  0.53311  0.74579  1.0000
  H   H327      1.0  0.18596  0.58408  0.75055  1.0000
  C   C199      1.0  0.14515  0.64250  0.78009  1.0000
  H   H328      1.0  0.23098  0.63527  0.75797  1.0000
  C   C200      1.0  0.17460  0.59980  0.75905  1.0000
  C   C201      1.0  0.20005  0.62887  0.76319  1.0000
  C   C202      1.0  0.18518  0.65097  0.77334  1.0000
  S   S81       1.0  0.21600  0.69143  0.77638  1.0000
  H   H329      1.0  0.09865  0.71186  0.74143  1.0000
  S   S82       1.0  0.03192  0.71004  0.79393  1.0000
  S   S83       1.0  0.11212  0.80165  0.78998  1.0000
  Fe  Fe39      1.0  0.09545  0.73867  0.78955  1.0000
  S   S84       1.0  0.16572  0.85580  0.74736  1.0000
  C   C203      1.0  0.16021  0.93030  0.74886  1.0000
  C   C204      1.0  0.17374  0.89775  0.75484  1.0000
  S   S85       1.0  0.13877  0.74498  0.76665  1.0000
  Fe  Fe40      1.0  0.15876  0.80642  0.76831  1.0000
  S   S86       1.0  0.13391  0.72049  0.80553  1.0000
  C   C205      1.0  0.19417  0.89860  0.76693  1.0000
  Fe  Fe41      1.0  0.15521  0.78453  0.80369  1.0000
  H   H330      1.0  0.06298  0.75045  0.75714  1.0000
  H   H331      1.0  0.07967  0.86599  0.82226  1.0000
  C   C206      1.0  0.07007  0.77388  0.74595  1.0000
  H   H332      1.0  0.09776  0.79444  0.74567  1.0000
  H   H333      1.0  0.04673  0.79017  0.74699  1.0000
  H   H334      1.0  0.20533  0.87398  0.77140  1.0000
  S   S87       1.0  0.15862  0.80485  0.82625  1.0000
  H   H335      1.0  0.12908  0.87168  0.81177  1.0000
  H   H336      1.0  0.12226  0.92662  0.79208  1.0000
  C   C207      1.0  0.11029  0.88134  0.82120  1.0000
  H   H337      1.0  0.11822  0.87082  0.83272  1.0000
  C   C208      1.0  0.24486  0.91661  0.82571  1.0000
  C   C209      1.0  0.29986  0.76561  0.74535  1.0000
  H   H338      1.0  0.25311  0.89842  0.74114  1.0000
  S   S88       1.0  0.27423  0.96076  0.82666  1.0000
  H   H339      1.0  0.28301  0.74360  0.75645  1.0000
  S   S89       1.0  0.20387  0.79459  0.78196  1.0000
  C   C210      1.0  0.21912  0.86981  0.81122  1.0000
  H   H340      1.0  0.21885  0.86071  0.80013  1.0000
  Fe  Fe42      1.0  0.17898  0.73210  0.78257  1.0000
  C   C211      1.0  0.19344  0.84714  0.82555  1.0000
  H   H341      1.0  0.34886  0.87600  0.76273  1.0000
  H   H342      1.0  0.17418  0.84172  0.85094  1.0000
  C   C212      1.0  0.19385  0.85914  0.83984  1.0000
  C   C213      1.0  0.35935  0.90145  0.75281  1.0000
  H   H343      1.0  0.22304  0.75544  0.74751  1.0000
  H   H344      1.0  0.32911  0.75938  0.74217  1.0000
  H   H345      1.0  0.30420  0.79454  0.74844  1.0000
  C   C214      1.0  0.24506  0.90460  0.81131  1.0000
  H   H346      1.0  0.46039  0.97337  0.78038  1.0000
  H   H347      1.0  0.43015  0.93445  0.76353  1.0000
  H   H348      1.0  0.07373  0.92414  0.80262  1.0000
  H   H349      1.0  0.05938  0.92221  0.83147  1.0000
  H   H350      1.0  0.11050  0.96880  0.79806  1.0000
  H   H351      1.0  0.09408  0.96815  0.82727  1.0000
  C   C215      1.0  0.09068  0.93594  0.83004  1.0000
  N   N22       1.0  0.11570  0.92416  0.81725  1.0000
  C   C216      1.0  0.16609  0.96317  0.75541  1.0000
  H   H352      1.0  0.15478  0.98795  0.75108  1.0000
  C   C217      1.0  0.18637  0.96363  0.76760  1.0000
  S   S90       1.0  0.19103  0.00206  0.77722  1.0000
  C   C218      1.0  0.10501  0.93648  0.80185  1.0000
  C   C219      1.0  0.20135  0.93183  0.77298  1.0000
  H   H353      1.0  0.09820  0.92726  0.84181  1.0000
  H   H354      1.0  0.16249  0.97527  0.81261  1.0000
  C   C220      1.0  0.15689  0.94289  0.81589  1.0000
  H   H355      1.0  0.16595  0.93444  0.82731  1.0000
  H   H356      1.0  0.17668  0.93437  0.80648  1.0000
  H   H357      1.0  0.21778  0.93248  0.78214  1.0000
  H   H358      1.0  0.47452  0.92010  0.75709  1.0000
  H   H359      1.0  0.34311  0.94118  0.76706  1.0000
  C   C221      1.0  0.01927  0.50846  0.74277  1.0000
  N   N23       1.0  0.48109  0.98185  0.75486  1.0000
  H   H360      1.0  0.02744  0.70671  0.74330  1.0000
  S   S91       1.0  0.36851  0.98065  0.79071  1.0000
  H   H361      1.0  0.26013  0.94939  0.74115  1.0000
  H   H362      1.0  0.26477  0.92232  0.80029  1.0000
  C   C222      1.0  0.36946  0.97106  0.74238  1.0000
  Fe  Fe43      1.0  0.31940  0.99853  0.80524  1.0000
  C   C223      1.0  0.21935  0.89367  0.83992  1.0000
  C   C224      1.0  0.35657  0.93837  0.75530  1.0000
  H   H363      1.0  0.21919  0.90276  0.85106  1.0000
  H   H364      1.0  0.66537  0.19974  0.01424  1.0000
  H   H365      1.0  0.61502  0.32374  0.09085  1.0000
  H   H366      1.0  0.63556  0.23645  0.09309  1.0000
  H   H367      1.0  0.64678  0.27172  0.02454  1.0000
  H   H368      1.0  0.64474  0.23491  0.00325  1.0000
  C   C225      1.0  0.67260  0.22787  0.00511  1.0000
  H   H369      1.0  0.67828  0.30507  0.99584  1.0000
  C   C226      1.0  0.62654  0.32195  0.10188  1.0000
  H   H370      1.0  0.63022  0.29184  0.10566  1.0000
  H   H371      1.0  0.60372  0.32610  0.11152  1.0000
  C   C227      1.0  0.70524  0.29608  0.99781  1.0000
  H   H372      1.0  0.72802  0.22133  0.02163  1.0000
  H   H373      1.0  0.66904  0.23785  0.03540  1.0000
  C   C228      1.0  0.67506  0.26455  0.02557  1.0000
  H   H374      1.0  0.67987  0.34871  0.07436  1.0000
  C   C229      1.0  0.73330  0.24890  0.01237  1.0000
  N   N24       1.0  0.69653  0.25934  0.01022  1.0000
  H   H375      1.0  0.75203  0.27191  0.01626  1.0000
  H   H376      1.0  0.69207  0.28868  0.02955  1.0000
  C   C230      1.0  0.69189  0.34723  0.08526  1.0000
  N   N25       1.0  0.66352  0.35124  0.09914  1.0000
  H   H377      1.0  0.70024  0.31893  0.08777  1.0000
  H   H378      1.0  0.72354  0.32045  0.00119  1.0000
  Fe  Fe44      1.0  0.81866  0.31777  0.02023  1.0000
  S   S92       1.0  0.80197  0.27215  0.04338  1.0000
  Fe  Fe45      1.0  0.83931  0.31605  0.05266  1.0000
  Fe  Fe46      1.0  0.75507  0.30269  0.05033  1.0000
  S   S93       1.0  0.69453  0.27007  0.06376  1.0000
  S   S94       1.0  0.76843  0.34519  0.02651  1.0000
  C   C231      1.0  0.66645  0.22084  0.11137  1.0000
  C   C232      1.0  0.66358  0.23458  0.09556  1.0000
  C   C233      1.0  0.69709  0.24701  0.08303  1.0000
  C   C234      1.0  0.73318  0.24410  0.08624  1.0000
  C   C235      1.0  0.73582  0.22888  0.10190  1.0000
  H   H379      1.0  0.75920  0.25348  0.07668  1.0000
  H   H380      1.0  0.76374  0.22617  0.10421  1.0000
  S   S95       1.0  0.79066  0.34285  0.06159  1.0000
  S   S96       1.0  0.87952  0.29901  0.06820  1.0000
  S   S97       1.0  0.86085  0.35896  0.02881  1.0000
  Fe  Fe47      1.0  0.80917  0.38259  0.03704  1.0000
  H   H381      1.0  0.85658  0.36994  0.07233  1.0000
  C   C236      1.0  0.70264  0.21794  0.11453  1.0000
  C   C237      1.0  0.89760  0.33573  0.07742  1.0000
  H   H382      1.0  0.83518  0.26515  0.10051  1.0000
  H   H383      1.0  0.83687  0.21634  0.10913  1.0000
  C   C238      1.0  0.84952  0.24755  0.10845  1.0000
  C   C239      1.0  0.88049  0.36739  0.07792  1.0000
  H   H384      1.0  0.84958  0.31713  0.11455  1.0000
  H   H385      1.0  0.71913  0.37064  0.08211  1.0000
  H   H386      1.0  0.68535  0.31563  0.11634  1.0000
  C   C240      1.0  0.67942  0.34521  0.11359  1.0000
  H   H387      1.0  0.75070  0.24532  0.00097  1.0000
  H   H388      1.0  0.88090  0.25427  0.10229  1.0000
  H   H389      1.0  0.94229  0.30851  0.08426  1.0000
  C   C241      1.0  0.92878  0.33283  0.08471  1.0000
  H   H390      1.0  0.89355  0.30491  0.11833  1.0000
  C   C242      1.0  0.86143  0.29788  0.12297  1.0000
  C   C243      1.0  0.94330  0.36199  0.09219  1.0000
  H   H391      1.0  0.64165  0.39525  0.08570  1.0000
  H   H392      1.0  0.63715  0.39607  0.10630  1.0000
  H   H393      1.0  0.67615  0.41575  0.05877  1.0000
  S   S98       1.0  0.66452  0.47994  0.07321  1.0000
  C   C244      1.0  0.70346  0.43717  0.05589  1.0000
  C   C245      1.0  0.70512  0.47253  0.06057  1.0000
  H   H394      1.0  0.83080  0.49256  0.06485  1.0000
  C   C246      1.0  0.65626  0.39071  0.09582  1.0000
  H   H395      1.0  0.68378  0.41373  0.09265  1.0000
  H   H396      1.0  0.70707  0.36712  0.11196  1.0000
  H   H397      1.0  0.73649  0.40119  0.04477  1.0000
  C   C247      1.0  0.73753  0.42904  0.04786  1.0000
  C   C248      1.0  0.89460  0.39610  0.08559  1.0000
  S   S99       1.0  0.81617  0.44676  0.03481  1.0000
  C   C249      1.0  0.77276  0.45717  0.04374  1.0000
  H   H398      1.0  0.88099  0.42018  0.08616  1.0000
  C   C250      1.0  0.85614  0.48110  0.06736  1.0000
  H   H399      1.0  0.85416  0.47771  0.08045  1.0000
  H   H400      1.0  0.85241  0.45173  0.06464  1.0000
  S   S100      1.0  0.71742  0.48308  0.10690  1.0000
  C   C251      1.0  0.92623  0.49231  0.06206  1.0000
  H   H401      1.0  0.92561  0.46300  0.05952  1.0000
  H   H402      1.0  0.98232  0.47036  0.17494  1.0000
  C   C252      1.0  0.77370  0.49354  0.04736  1.0000
  H   H403      1.0  0.92551  0.48930  0.07507  1.0000
  H   H404      1.0  0.96816  0.36034  0.09737  1.0000
  C   C253      1.0  0.92644  0.39389  0.09243  1.0000
  S   S101      1.0  0.94640  0.43267  0.10013  1.0000
  H   H405      1.0  0.68822  0.22323  0.99358  1.0000
  C   C254      1.0  0.55029  0.09441  0.17495  1.0000
  C   C255      1.0  0.53486  0.06425  0.16818  1.0000
  H   H406      1.0  0.54782  0.06413  0.15594  1.0000
  C   C256      1.0  0.53345  0.09509  0.19067  1.0000
  H   H407      1.0  0.57527  0.11707  0.16798  1.0000
  H   H408      1.0  0.54687  0.00306  0.20353  1.0000
  H   H409      1.0  0.89368  0.48106  0.03760  1.0000
  Fe  Fe48      1.0  0.98038  0.41364  0.15503  1.0000
  H   H410      1.0  0.51353  0.13200  0.23137  1.0000
  S   S102      1.0  0.55070  0.13366  0.19910  1.0000
  S   S103      1.0  0.57394  0.30271  0.14545  1.0000
  Fe  Fe49      1.0  0.60262  0.26112  0.15859  1.0000
  S   S104      1.0  0.59386  0.24455  0.18530  1.0000
  S   S105      1.0  0.96316  0.46036  0.13905  1.0000
  N   N26       1.0  0.84404  0.25621  0.12451  1.0000
  N   N27       1.0  0.73044  0.26887  0.23879  1.0000
  S   S106      1.0  0.59766  0.20039  0.15512  1.0000
  H   H411      1.0  0.78634  0.26431  0.12444  1.0000
  C   C257      1.0  0.80198  0.24737  0.13197  1.0000
  H   H412      1.0  0.64062  0.21189  0.12106  1.0000
  Fe  Fe50      1.0  0.59428  0.18447  0.18160  1.0000
  H   H413      1.0  0.78819  0.21592  0.13365  1.0000
  H   H414      1.0  0.79646  0.25421  0.14397  1.0000
  H   H415      1.0  0.55486  0.08502  0.22731  1.0000
  S   S107      1.0  0.70739  0.20159  0.13416  1.0000
  Fe  Fe51      1.0  0.66222  0.21365  0.15278  1.0000
  S   S108      1.0  0.66760  0.27606  0.15377  1.0000
  C   C258      1.0  0.74531  0.28972  0.18617  1.0000
  S   S109      1.0  0.69627  0.29024  0.19258  1.0000
  Fe  Fe52      1.0  0.65886  0.25409  0.18024  1.0000
  C   C259      1.0  0.75546  0.25729  0.18144  1.0000
  C   C260      1.0  0.79470  0.25750  0.17596  1.0000
  H   H416      1.0  0.73317  0.23177  0.18219  1.0000
  H   H417      1.0  0.80245  0.23210  0.17253  1.0000
  S   S110      1.0  0.65871  0.19233  0.17903  1.0000
  C   C261      1.0  0.82378  0.29075  0.17456  1.0000
  C   C262      1.0  0.71564  0.23885  0.23054  1.0000
  H   H418      1.0  0.70197  0.21025  0.23922  1.0000
  H   H419      1.0  0.69330  0.24729  0.22423  1.0000
  H   H420      1.0  0.73943  0.23449  0.22135  1.0000
  H   H421      1.0  0.58531  0.15301  0.22658  1.0000
  C   C263      1.0  0.74985  0.30590  0.22689  1.0000
  H   H422      1.0  0.77530  0.30248  0.21826  1.0000
  H   H423      1.0  0.59224  0.50080  0.14469  1.0000
  C   C264      1.0  0.55209  0.07783  0.24049  1.0000
  C   C265      1.0  0.85819  0.50078  0.14245  1.0000
  C   C266      1.0  0.58211  0.14432  0.23981  1.0000
  S   S111      1.0  0.83177  0.29680  0.99747  1.0000
  Fe  Fe53      1.0  0.90780  0.35338  0.15756  1.0000
  H   H424      1.0  0.85083  0.20028  0.13604  1.0000
  C   C267      1.0  0.86311  0.23191  0.13467  1.0000
  H   H425      1.0  0.85602  0.30585  0.13477  1.0000
  H   H426      1.0  0.85924  0.23753  0.14691  1.0000
  H   H427      1.0  0.89500  0.23813  0.12947  1.0000
  S   S112      1.0  0.87234  0.29181  0.16633  1.0000
  H   H428      1.0  0.78366  0.25034  0.23926  1.0000
  H   H429      1.0  0.60795  0.32786  0.17020  1.0000
  C   C268      1.0  0.59177  0.34913  0.14821  1.0000
  C   C269      1.0  0.60854  0.35325  0.16118  1.0000
  H   H430      1.0  0.57851  0.37906  0.12686  1.0000
  C   C270      1.0  0.59222  0.38219  0.13670  1.0000
  H   H431      1.0  0.61404  0.44440  0.12814  1.0000
  C   C271      1.0  0.61208  0.41912  0.13749  1.0000
  C   C272      1.0  0.62932  0.42309  0.15035  1.0000
  C   C273      1.0  0.62625  0.39036  0.16251  1.0000
  S   S113      1.0  0.65726  0.46819  0.15078  1.0000
  H   H432      1.0  0.63906  0.39343  0.17260  1.0000
  S   S114      1.0  0.88338  0.39430  0.14196  1.0000
  C   C274      1.0  0.87702  0.49408  0.12803  1.0000
  C   C275      1.0  0.77451  0.32239  0.18542  1.0000
  C   C276      1.0  0.81369  0.32324  0.17931  1.0000
  H   H433      1.0  0.72955  0.31629  0.21982  1.0000
  H   H434      1.0  0.74201  0.34189  0.15813  1.0000
  H   H435      1.0  0.65842  0.34751  0.12432  1.0000
  H   H436      1.0  0.89863  0.47710  0.12786  1.0000
  H   H437      1.0  0.77943  0.41358  0.11903  1.0000
  H   H438      1.0  0.79169  0.35342  0.14696  1.0000
  S   S115      1.0  0.86797  0.47969  0.16063  1.0000
  H   H439      1.0  0.78070  0.44699  0.15674  1.0000
  H   H440      1.0  0.75954  0.39989  0.16987  1.0000
  C   C277      1.0  0.72422  0.40764  0.14567  1.0000
  H   H441      1.0  0.81998  0.42086  0.12831  1.0000
  H   H442      1.0  0.78990  0.45522  0.12730  1.0000
  H   H443      1.0  0.75251  0.34825  0.13680  1.0000
  C   C278      1.0  0.76254  0.35943  0.14672  1.0000
  H   H444      1.0  0.80849  0.41062  0.15799  1.0000
  H   H445      1.0  0.70425  0.39149  0.15740  1.0000
  H   H446      1.0  0.71148  0.39780  0.13607  1.0000
  H   H447      1.0  0.76681  0.34730  0.18931  1.0000
  H   H448      1.0  0.83612  0.34885  0.17844  1.0000
  C   C279      1.0  0.77883  0.41526  0.15792  1.0000
  N   N28       1.0  0.76384  0.40143  0.14484  1.0000
  C   C280      1.0  0.78943  0.42362  0.12918  1.0000
  H   H449      1.0  0.72427  0.43907  0.14439  1.0000
  H   H450      1.0  0.76067  0.32927  0.23284  1.0000
  S   S116      1.0  0.92282  0.39460  0.17306  1.0000
  Fe  Fe54      1.0  0.90432  0.43747  0.15559  1.0000
  Fe  Fe55      1.0  0.94354  0.41432  0.12640  1.0000
  S   S117      1.0  0.96679  0.36910  0.14063  1.0000
  H   H451      1.0  0.89528  0.42362  0.23846  1.0000
  H   H452      1.0  0.88164  0.50259  0.10262  1.0000
  H   H453      1.0  0.99940  0.47264  0.23112  1.0000
  C   C281      1.0  0.74018  0.50082  0.05611  1.0000
  C   C282      1.0  0.50259  0.03461  0.17709  1.0000
  H   H454      1.0  0.60712  0.50257  0.17116  1.0000
  H   H455      1.0  0.80440  0.36765  0.99149  1.0000
  C   C283      1.0  0.50176  0.06495  0.19974  1.0000
  C   C284      1.0  0.61914  0.06143  0.28701  1.0000
  H   H456      1.0  0.61380  0.04080  0.27972  1.0000
  C   C285      1.0  0.54467  0.10084  0.26492  1.0000
  H   H457      1.0  0.57073  0.09110  0.26763  1.0000
  H   H458      1.0  0.51885  0.07644  0.27106  1.0000
  H   H459      1.0  0.54183  0.12574  0.27056  1.0000
  C   C286      1.0  0.60516  0.04986  0.30367  1.0000
  C   C287      1.0  0.61426  0.07623  0.31311  1.0000
  H   H460      1.0  0.60376  0.06728  0.32602  1.0000
  H   H461      1.0  0.65200  0.10821  0.26688  1.0000
  C   C288      1.0  0.64115  0.09949  0.27977  1.0000
  H   H462      1.0  0.50788  0.14897  0.24957  1.0000
  C   C289      1.0  0.64972  0.12602  0.28919  1.0000
  C   C290      1.0  0.63647  0.11433  0.30589  1.0000
  H   H463      1.0  0.64300  0.13464  0.31322  1.0000
  S   S118      1.0  0.67657  0.17367  0.27968  1.0000
  H   H464      1.0  0.84475  0.18037  0.34662  1.0000
  H   H465      1.0  0.74488  0.22796  0.25676  1.0000
  H   H466      1.0  0.61010  0.33514  0.35284  1.0000
  C   C291      1.0  0.62907  0.35044  0.34129  1.0000
  C   C292      1.0  0.64676  0.32979  0.33117  1.0000
  H   H467      1.0  0.59045  0.21553  0.36464  1.0000
  S   S119      1.0  0.64137  0.27945  0.33784  1.0000
  H   H468      1.0  0.63739  0.20468  0.36203  1.0000
  H   H469      1.0  0.68220  0.24775  0.25939  1.0000
  C   C293      1.0  0.67822  0.39063  0.31148  1.0000
  H   H470      1.0  0.72868  0.49601  0.42233  1.0000
  C   C294      1.0  0.67079  0.34990  0.31614  1.0000
  C   C295      1.0  0.75869  0.25566  0.24753  1.0000
  H   H471      1.0  0.77070  0.27781  0.25378  1.0000
  Fe  Fe56      1.0  0.69698  0.21113  0.29583  1.0000
  H   H472      1.0  0.68406  0.33425  0.30812  1.0000
  S   S120      1.0  0.67883  0.26764  0.29418  1.0000
  S   S121      1.0  0.69376  0.20071  0.32242  1.0000
  C   C296      1.0  0.83810  0.38930  0.25135  1.0000
  C   C297      1.0  0.81522  0.36604  0.26606  1.0000
  S   S122      1.0  0.76599  0.34613  0.26782  1.0000
  C   C298      1.0  0.83155  0.35968  0.27936  1.0000
  H   H473      1.0  0.81395  0.34175  0.29074  1.0000
  Fe  Fe57      1.0  0.74235  0.29505  0.28889  1.0000
  S   S123      1.0  0.74463  0.29303  0.31448  1.0000
  S   S124      1.0  0.76078  0.23929  0.28873  1.0000
  Fe  Fe58      1.0  0.75625  0.23398  0.31502  1.0000
  Fe  Fe59      1.0  0.68221  0.26060  0.31987  1.0000
  H   H474      1.0  0.74922  0.23629  0.34991  1.0000
  C   C299      1.0  0.76877  0.22227  0.35559  1.0000
  C   C300      1.0  0.79771  0.20933  0.34632  1.0000
  S   S125      1.0  0.80425  0.21643  0.32543  1.0000
  C   C301      1.0  0.82254  0.19060  0.35372  1.0000
  H   H475      1.0  0.88709  0.33143  0.31261  1.0000
  C   C302      1.0  0.87894  0.29990  0.31281  1.0000
  C   C303      1.0  0.87057  0.37745  0.27803  1.0000
  H   H476      1.0  0.86744  0.28395  0.32563  1.0000
  H   H477      1.0  0.85456  0.29511  0.30668  1.0000
  H   H478      1.0  0.80724  0.37508  0.33155  1.0000
  H   H479      1.0  0.88300  0.37307  0.28833  1.0000
  C   C304      1.0  0.87750  0.40592  0.24989  1.0000
  C   C305      1.0  0.89361  0.40033  0.26328  1.0000
  H   H480      1.0  0.77008  0.30902  0.34614  1.0000
  C   C306      1.0  0.76328  0.32024  0.35713  1.0000
  H   H481      1.0  0.73544  0.35510  0.33329  1.0000
  N   N29       1.0  0.76181  0.36169  0.35310  1.0000
  H   H482      1.0  0.67586  0.28529  0.24398  1.0000
  H   H483      1.0  0.87628  0.23916  0.29911  1.0000
  C   C307      1.0  0.88865  0.35823  0.35757  1.0000
  H   H484      1.0  0.70774  0.29735  0.25675  1.0000
  C   C308      1.0  0.73069  0.36588  0.34447  1.0000
  H   H485      1.0  0.70159  0.34909  0.35200  1.0000
  C   C309      1.0  0.69758  0.27508  0.25023  1.0000
  H   H486      1.0  0.79112  0.47649  0.42117  1.0000
  H   H487      1.0  0.90467  0.30606  0.28136  1.0000
  H   H488      1.0  0.93775  0.34084  0.28765  1.0000
  H   H489      1.0  0.88880  0.22677  0.31800  1.0000
  N   N30       1.0  0.91257  0.28649  0.30515  1.0000
  C   C310      1.0  0.92757  0.30915  0.28833  1.0000
  C   C311      1.0  0.90018  0.24465  0.30546  1.0000
  H   H490      1.0  0.93266  0.27652  0.32694  1.0000
  C   C312      1.0  0.94351  0.29216  0.31406  1.0000
  S   S126      1.0  0.91361  0.35310  0.33912  1.0000
  H   H491      1.0  0.95401  0.32348  0.31385  1.0000
  H   H492      1.0  0.96905  0.28158  0.30889  1.0000
  H   H493      1.0  0.95264  0.29948  0.28211  1.0000
  H   H494      1.0  0.92462  0.23343  0.29968  1.0000
  S   S127      1.0  0.94237  0.42239  0.26156  1.0000
  S   S128      1.0  0.98558  0.40860  0.29955  1.0000
  H   H495      1.0  0.59832  0.47526  0.30434  1.0000
  C   C313      1.0  0.58512  0.48984  0.31343  1.0000
  H   H496      1.0  0.72915  0.48500  0.40316  1.0000
  C   C314      1.0  0.63668  0.39119  0.33666  1.0000
  H   H497      1.0  0.62313  0.40698  0.34462  1.0000
  S   S129      1.0  0.61533  0.48624  0.35551  1.0000
  C   C315      1.0  0.66194  0.41133  0.32192  1.0000
  S   S130      1.0  0.67632  0.46228  0.31737  1.0000
  Fe  Fe60      1.0  0.67016  0.47777  0.34123  1.0000
  H   H498      1.0  0.59546  0.48043  0.32445  1.0000
  H   H499      1.0  0.55298  0.47844  0.31634  1.0000
  C   C316      1.0  0.51219  0.12364  0.24444  1.0000
  H   H500      1.0  0.57979  0.17045  0.24468  1.0000
  C   C317      1.0  0.79967  0.38508  0.34280  1.0000
  H   H501      1.0  0.79954  0.41647  0.33950  1.0000
  H   H502      1.0  0.82363  0.38297  0.34909  1.0000
  H   H503      1.0  0.69725  0.40599  0.29996  1.0000
  H   H504      1.0  0.77099  0.42010  0.29391  1.0000
  H   H505      1.0  0.80668  0.44076  0.27537  1.0000
  C   C318      1.0  0.80779  0.49903  0.35520  1.0000
  S   S131      1.0  0.57626  0.00271  0.31286  1.0000
  Fe  Fe61      1.0  0.71427  0.48933  0.36677  1.0000
  N   N31       1.0  0.80077  0.47990  0.29106  1.0000
  C   C319      1.0  0.79210  0.47804  0.30848  1.0000
  H   H506      1.0  0.72903  0.39685  0.34102  1.0000
  C   C320      1.0  0.83511  0.47693  0.35216  1.0000
  H   H507      1.0  0.81450  0.46736  0.31413  1.0000
  H   H508      1.0  0.76298  0.45866  0.31470  1.0000
  H   H509      1.0  0.88474  0.47107  0.33548  1.0000
  S   S132      1.0  0.90133  0.43252  0.30533  1.0000
  S   S133      1.0  0.68060  0.43617  0.36158  1.0000
  H   H510      1.0  0.82202  0.42760  0.29361  1.0000
  C   C321      1.0  0.80004  0.44036  0.28841  1.0000
  H   H511      1.0  0.83345  0.45050  0.36078  1.0000
  C   C322      1.0  0.86392  0.48851  0.33782  1.0000
  H   H512      1.0  0.74140  0.47692  0.28953  1.0000
  C   C323      1.0  0.77118  0.49566  0.28397  1.0000
  H   H513      1.0  0.86294  0.49395  0.28815  1.0000
  H   H514      1.0  0.77675  0.49749  0.27083  1.0000
  H   H515      1.0  0.91114  0.42033  0.35295  1.0000
  S   S134      1.0  0.98075  0.49804  0.28428  1.0000
  Fe  Fe62      1.0  0.93447  0.49091  0.30644  1.0000
  Fe  Fe63      1.0  0.95062  0.43740  0.28460  1.0000
  Fe  Fe64      1.0  0.93913  0.40914  0.32052  1.0000
  S   S135      1.0  0.96828  0.46735  0.32367  1.0000
  H   H516      1.0  0.83165  0.10100  0.44231  1.0000
  C   C324      1.0  0.84134  0.12359  0.44878  1.0000
  H   H517      1.0  0.82680  0.11198  0.46175  1.0000
  H   H518      1.0  0.87326  0.12731  0.44760  1.0000
  H   H519      1.0  0.55899  0.22727  0.39068  1.0000
  H   H520      1.0  0.58303  0.22373  0.40692  1.0000
  H   H521      1.0  0.56381  0.18053  0.40083  1.0000
  C   C325      1.0  0.57889  0.21190  0.39630  1.0000
  H   H522      1.0  0.55542  0.27052  0.42644  1.0000
  C   C326      1.0  0.57775  0.29574  0.41934  1.0000
  C   C327      1.0  0.61702  0.29564  0.41798  1.0000
  H   H523      1.0  0.62892  0.16539  0.39753  1.0000
  C   C328      1.0  0.56714  0.32860  0.41170  1.0000
  H   H524      1.0  0.61600  0.27559  0.37334  1.0000
  N   N32       1.0  0.61649  0.21727  0.38483  1.0000
  H   H525      1.0  0.59567  0.16907  0.37486  1.0000
  C   C329      1.0  0.60965  0.20080  0.37103  1.0000
  C   C330      1.0  0.64227  0.19714  0.39287  1.0000
  H   H526      1.0  0.53666  0.32871  0.41292  1.0000
  H   H527      1.0  0.78616  0.31594  0.36381  1.0000
  H   H528      1.0  0.78123  0.18181  0.43947  1.0000
  H   H529      1.0  0.77327  0.14392  0.45701  1.0000
  H   H530      1.0  0.77816  0.13294  0.43744  1.0000
  C   C331      1.0  0.78925  0.15434  0.44418  1.0000
  H   H531      1.0  0.84161  0.15430  0.41796  1.0000
  H   H532      1.0  0.73511  0.30161  0.36476  1.0000
  H   H533      1.0  0.83696  0.16869  0.37600  1.0000
  H   H534      1.0  0.64829  0.20910  0.40327  1.0000
  H   H535      1.0  0.64157  0.27245  0.38914  1.0000
  C   C332      1.0  0.63513  0.25934  0.37910  1.0000
  H   H536      1.0  0.83019  0.18024  0.46428  1.0000
  H   H537      1.0  0.86138  0.29688  0.36570  1.0000
  H   H538      1.0  0.67075  0.20030  0.38450  1.0000
  C   C333      1.0  0.86373  0.32527  0.36845  1.0000
  H   H539      1.0  0.66288  0.26454  0.36999  1.0000
  S   S136      1.0  0.62915  0.25355  0.42727  1.0000
  C   C334      1.0  0.81813  0.18397  0.37035  1.0000
  S   S137      1.0  0.72678  0.29919  0.43872  1.0000
  S   S138      1.0  0.73649  0.27847  0.40261  1.0000
  S   S139      1.0  0.80065  0.26428  0.42434  1.0000
  Fe  Fe65      1.0  0.77295  0.31225  0.41586  1.0000
  Fe  Fe66      1.0  0.76036  0.22896  0.41305  1.0000
  C   C335      1.0  0.76511  0.21666  0.37229  1.0000
  C   C336      1.0  0.78960  0.19705  0.37968  1.0000
  H   H540      1.0  0.74279  0.22640  0.37949  1.0000
  S   S140      1.0  0.76365  0.21971  0.46940  1.0000
  H   H541      1.0  0.82110  0.30345  0.39076  1.0000
  S   S141      1.0  0.78447  0.18689  0.40058  1.0000
  C   C337      1.0  0.77019  0.24920  0.48307  1.0000
  Fe  Fe67      1.0  0.69263  0.26088  0.42614  1.0000
  S   S142      1.0  0.71284  0.20777  0.43538  1.0000
  Fe  Fe68      1.0  0.75125  0.24720  0.44605  1.0000
  C   C338      1.0  0.84084  0.32900  0.38268  1.0000
  N   N33       1.0  0.83181  0.16077  0.44234  1.0000
  C   C339      1.0  0.76352  0.28670  0.48036  1.0000
  H   H542      1.0  0.75461  0.29818  0.46963  1.0000
  H   H543      1.0  0.83808  0.21829  0.44677  1.0000
  H   H544      1.0  0.84496  0.20327  0.41990  1.0000
  C   C340      1.0  0.64586  0.32834  0.40879  1.0000
  H   H545      1.0  0.72509  0.35906  0.37603  1.0000
  H   H546      1.0  0.67625  0.32822  0.40769  1.0000
  C   C341      1.0  0.85151  0.17519  0.42513  1.0000
  C   C342      1.0  0.84498  0.18989  0.45128  1.0000
  H   H547      1.0  0.87694  0.19552  0.45024  1.0000
  H   H548      1.0  0.88368  0.18015  0.42320  1.0000
  S   S143      1.0  0.66352  0.49869  0.38364  1.0000
  Fe  Fe69      1.0  0.62901  0.44903  0.37636  1.0000
  C   C343      1.0  0.59573  0.36133  0.40252  1.0000
  S   S144      1.0  0.58115  0.40195  0.39329  1.0000
  C   C344      1.0  0.63517  0.36120  0.40098  1.0000
  H   H549      1.0  0.73698  0.39801  0.44245  1.0000
  H   H550      1.0  0.68732  0.46341  0.41940  1.0000
  N   N34       1.0  0.73694  0.43884  0.42100  1.0000
  H   H551      1.0  0.76267  0.33821  0.48959  1.0000
  H   H552      1.0  0.87145  0.42669  0.37844  1.0000
  C   C345      1.0  0.86918  0.39839  0.37564  1.0000
  C   C346      1.0  0.84308  0.36564  0.38620  1.0000
  S   S145      1.0  0.77061  0.48272  0.37272  1.0000
  S   S146      1.0  0.81100  0.37086  0.40307  1.0000
  C   C347      1.0  0.72469  0.42350  0.43859  1.0000
  H   H553      1.0  0.73472  0.44603  0.44503  1.0000
  C   C348      1.0  0.77989  0.45165  0.41610  1.0000
  C   C349      1.0  0.89168  0.39480  0.36122  1.0000
  H   H554      1.0  0.69241  0.41367  0.44270  1.0000
  H   H555      1.0  0.79037  0.46113  0.40280  1.0000
  H   H556      1.0  0.77640  0.37265  0.37488  1.0000
  C   C350      1.0  0.75366  0.37561  0.36800  1.0000
  H   H557      1.0  0.65725  0.38657  0.39397  1.0000
  H   H558      1.0  0.69107  0.39764  0.41644  1.0000
  H   H559      1.0  0.79386  0.42763  0.42012  1.0000
  C   C351      1.0  0.72334  0.40780  0.41303  1.0000
  H   H560      1.0  0.75320  0.40702  0.36535  1.0000
  H   H561      1.0  0.73566  0.38211  0.41631  1.0000
  H   H562      1.0  0.73236  0.41818  0.39973  1.0000
  N   N35       1.0  0.54776  0.11166  0.24742  1.0000
  C   C352      1.0  0.71972  0.47225  0.41632  1.0000
  H   H563      1.0  0.57844  0.06778  0.24264  1.0000
  H   H564      1.0  0.52638  0.05287  0.24575  1.0000
  H   H565      1.0  0.60941  0.13622  0.24191  1.0000
  H   H566      1.0  0.82549  0.39421  0.24104  1.0000
  H   H567      1.0  0.73197  0.11198  0.60368  1.0000
  C   C353      1.0  0.71592  0.13068  0.60902  1.0000
  H   H568      1.0  0.78716  0.20562  0.49913  1.0000
  H   H569      1.0  0.77780  0.08774  0.61707  1.0000
  C   C354      1.0  0.79256  0.09956  0.62583  1.0000
  N   N36       1.0  0.83212  0.12361  0.61794  1.0000
  H   H570      1.0  0.84322  0.09380  0.59897  1.0000
  C   C355      1.0  0.85469  0.10033  0.60940  1.0000
  H   H571      1.0  0.89576  0.12327  0.57091  1.0000
  C   C356      1.0  0.90966  0.15222  0.57158  1.0000
  H   H572      1.0  0.95600  0.13373  0.58092  1.0000
  H   H573      1.0  0.65604  0.31670  0.53059  1.0000
  H   H574      1.0  0.65642  0.28041  0.51890  1.0000
  H   H575      1.0  0.61120  0.26702  0.55380  1.0000
  H   H576      1.0  0.61158  0.23053  0.54227  1.0000
  C   C357      1.0  0.62702  0.24510  0.55025  1.0000
  H   H577      1.0  0.62453  0.22263  0.56136  1.0000
  C   C358      1.0  0.67042  0.29335  0.52762  1.0000
  H   H578      1.0  0.70122  0.30770  0.52130  1.0000
  H   H579      1.0  0.67336  0.30460  0.55714  1.0000
  H   H580      1.0  0.81502  0.14977  0.59688  1.0000
  H   H581      1.0  0.81250  0.17641  0.61230  1.0000
  H   H582      1.0  0.67470  0.21927  0.52896  1.0000
  H   H583      1.0  0.71861  0.29648  0.54751  1.0000
  H   H584      1.0  0.73760  0.17889  0.58838  1.0000
  C   C359      1.0  0.71891  0.16853  0.60031  1.0000
  H   H585      1.0  0.71918  0.24623  0.53170  1.0000
  C   C360      1.0  0.68792  0.23335  0.53760  1.0000
  C   C361      1.0  0.68758  0.28195  0.55328  1.0000
  H   H586      1.0  0.68667  0.21009  0.54825  1.0000
  H   H587      1.0  0.68709  0.26017  0.56430  1.0000
  N   N37       1.0  0.66821  0.26345  0.54218  1.0000
  H   H588      1.0  0.79608  0.24593  0.51888  1.0000
  Fe  Fe70      1.0  0.84112  0.30832  0.56844  1.0000
  Fe  Fe71      1.0  0.75891  0.25796  0.57769  1.0000
  S   S147      1.0  0.70288  0.24062  0.59645  1.0000
  S   S148      1.0  0.78446  0.31990  0.56419  1.0000
  C   C362      1.0  0.78686  0.25734  0.50821  1.0000
  C   C363      1.0  0.77971  0.29465  0.50560  1.0000
  C   C364      1.0  0.69745  0.19256  0.60696  1.0000
  Fe  Fe72      1.0  0.82538  0.22912  0.56109  1.0000
  S   S149      1.0  0.78274  0.32256  0.52003  1.0000
  Fe  Fe73      1.0  0.79731  0.29416  0.54275  1.0000
  S   S150      1.0  0.76720  0.23276  0.55609  1.0000
  S   S151      1.0  0.81425  0.24860  0.58405  1.0000
  S   S152      1.0  0.85671  0.28837  0.54569  1.0000
  C   C365      1.0  0.78186  0.23458  0.49700  1.0000
  H   H589      1.0  0.76087  0.27348  0.61137  1.0000
  H   H590      1.0  0.80390  0.28504  0.61865  1.0000
  H   H591      1.0  0.77211  0.31787  0.61782  1.0000
  S   S153      1.0  0.88510  0.34807  0.57676  1.0000
  C   C366      1.0  0.86757  0.35154  0.59643  1.0000
  C   C367      1.0  0.87963  0.33062  0.60904  1.0000
  S   S154      1.0  0.84815  0.17525  0.56179  1.0000
  C   C368      1.0  0.82953  0.15824  0.60633  1.0000
  H   H592      1.0  0.88588  0.11578  0.60486  1.0000
  H   H593      1.0  0.85894  0.17697  0.60010  1.0000
  H   H594      1.0  0.89664  0.30963  0.60680  1.0000
  C   C369      1.0  0.89294  0.18350  0.56720  1.0000
  H   H595      1.0  0.89818  0.24518  0.56483  1.0000
  C   C370      1.0  0.91097  0.22089  0.56808  1.0000
  C   C371      1.0  0.94577  0.22706  0.57321  1.0000
  H   H596      1.0  0.95755  0.34124  0.61921  1.0000
  C   C372      1.0  0.94377  0.15816  0.57725  1.0000
  H   H597      1.0  0.95965  0.25609  0.57381  1.0000
  H   H598      1.0  0.96548  0.33714  0.59864  1.0000
  C   C373      1.0  0.97913  0.35014  0.60743  1.0000
  C   C374      1.0  0.96192  0.19564  0.57801  1.0000
  H   H599      1.0  0.81802  0.40534  0.61709  1.0000
  C   C375      1.0  0.83507  0.38433  0.61489  1.0000
  C   C376      1.0  0.84493  0.37811  0.59938  1.0000
  H   H600      1.0  0.83588  0.39462  0.58961  1.0000
  H   H601      1.0  0.94351  0.39865  0.59138  1.0000
  C   C377      1.0  0.95823  0.40979  0.60031  1.0000
  H   H602      1.0  0.93620  0.40234  0.61193  1.0000
  H   H603      1.0  0.96689  0.44213  0.59628  1.0000
  S   S155      1.0  0.94754  0.32910  0.68893  1.0000
  S   S156      1.0  0.94109  0.43306  0.69710  1.0000
  H   H604      1.0  0.54793  0.06292  0.64665  1.0000
  H   H605      1.0  0.54762  0.02990  0.67470  1.0000
  S   S157      1.0  0.93839  0.39413  0.65805  1.0000
  H   H606      1.0  0.50538  0.02707  0.64697  1.0000
  C   C378      1.0  0.53777  0.03361  0.64442  1.0000
  H   H607      1.0  0.54848  0.03549  0.63141  1.0000
  C   C379      1.0  0.69304  0.11752  0.62471  1.0000
  S   S158      1.0  0.69284  0.07185  0.63616  1.0000
  Fe  Fe74      1.0  0.69217  0.07608  0.66142  1.0000
  Fe  Fe75      1.0  0.73912  0.06988  0.68697  1.0000
  Fe  Fe76      1.0  0.65135  0.04102  0.69596  1.0000
  S   S159      1.0  0.69851  0.02573  0.67933  1.0000
  S   S160      1.0  0.69266  0.08122  0.70522  1.0000
  S   S161      1.0  0.64225  0.08900  0.67745  1.0000
  H   H608      1.0  0.77678  0.02350  0.66846  1.0000
  H   H609      1.0  0.77394  0.11665  0.63169  1.0000
  H   H610      1.0  0.60636  0.04194  0.65318  1.0000
  H   H611      1.0  0.99026  0.40135  0.62580  1.0000
  H   H612      1.0  0.60694  0.01576  0.63764  1.0000
  H   H613      1.0  0.85939  0.42877  0.70806  1.0000
  C   C380      1.0  0.59449  0.01347  0.65056  1.0000
  H   H614      1.0  0.89452  0.49474  0.73299  1.0000
  C   C381      1.0  0.86995  0.41690  0.73806  1.0000
  H   H615      1.0  0.85362  0.07195  0.61741  1.0000
  H   H616      1.0  0.79315  0.07417  0.63523  1.0000
  H   H617      1.0  0.85537  0.11080  0.63875  1.0000
  Fe  Fe77      1.0  0.95821  0.07590  0.62674  1.0000
  S   S162      1.0  0.90109  0.03276  0.63269  1.0000
  S   S163      1.0  0.79496  0.06170  0.69326  1.0000
  C   C382      1.0  0.80794  0.03273  0.66644  1.0000
  C   C383      1.0  0.83169  0.02527  0.65325  1.0000
  C   C384      1.0  0.87214  0.03798  0.65025  1.0000
  H   H618      1.0  0.92025  0.06670  0.65848  1.0000
  C   C385      1.0  0.88894  0.05700  0.66074  1.0000
  C   C386      1.0  0.86515  0.06326  0.67425  1.0000
  C   C387      1.0  0.82463  0.05162  0.67696  1.0000
  H   H619      1.0  0.87809  0.07777  0.68239  1.0000
  H   H620      1.0  0.81872  0.01052  0.64515  1.0000
  C   C388      1.0  0.67305  0.17869  0.62236  1.0000
  C   C389      1.0  0.77289  0.28654  0.62049  1.0000
  C   C390      1.0  0.87035  0.33734  0.62446  1.0000
  H   H621      1.0  0.78404  0.25508  0.73069  1.0000
  H   H622      1.0  0.83462  0.15257  0.63727  1.0000
  H   H623      1.0  0.65590  0.19688  0.62747  1.0000
  H   H624      1.0  0.74178  0.21004  0.63125  1.0000
  C   C391      1.0  0.75320  0.22494  0.64006  1.0000
  H   H625      1.0  0.73595  0.20852  0.65228  1.0000
  H   H626      1.0  0.78379  0.22242  0.63925  1.0000
  S   S164      1.0  0.73844  0.11887  0.66704  1.0000
  H   H627      1.0  0.65365  0.13141  0.64346  1.0000
  C   C392      1.0  0.67167  0.14157  0.63140  1.0000
  C   C393      1.0  0.71506  0.20398  0.73469  1.0000
  N   N38       1.0  0.75072  0.26617  0.63696  1.0000
  H   H628      1.0  0.73992  0.19417  0.72838  1.0000
  Fe  Fe78      1.0  0.68925  0.12786  0.68478  1.0000
  C   C394      1.0  0.79522  0.19030  0.70035  1.0000
  C   C395      1.0  0.76063  0.17873  0.69563  1.0000
  S   S165      1.0  0.69434  0.19013  0.68643  1.0000
  C   C396      1.0  0.78663  0.25624  0.69677  1.0000
  H   H629      1.0  0.73379  0.26504  0.68993  1.0000
  H   H630      1.0  0.75140  0.14891  0.69499  1.0000
  C   C397      1.0  0.75113  0.24425  0.69263  1.0000
  C   C398      1.0  0.73825  0.20545  0.69191  1.0000
  H   H631      1.0  0.79660  0.28627  0.69719  1.0000
  C   C399      1.0  0.76717  0.28508  0.64861  1.0000
  H   H632      1.0  0.70344  0.22076  0.72536  1.0000
  C   C400      1.0  0.75747  0.26283  0.73676  1.0000
  H   H633      1.0  0.79818  0.28403  0.64780  1.0000
  H   H634      1.0  0.74699  0.28074  0.72737  1.0000
  H   H635      1.0  0.75073  0.27059  0.66110  1.0000
  H   H636      1.0  0.76612  0.31637  0.64658  1.0000
  C   C401      1.0  0.70954  0.26815  0.63873  1.0000
  C   C402      1.0  0.80841  0.22908  0.70087  1.0000
  H   H637      1.0  0.69165  0.25177  0.65086  1.0000
  H   H638      1.0  0.69666  0.25559  0.62967  1.0000
  H   H639      1.0  0.70657  0.29883  0.63700  1.0000
  N   N39       1.0  0.99213  0.39304  0.60195  1.0000
  Fe  Fe79      1.0  0.87772  0.35828  0.66205  1.0000
  Fe  Fe80      1.0  0.95462  0.33656  0.66234  1.0000
  S   S166      1.0  0.99597  0.09283  0.60185  1.0000
  H   H640      1.0  0.97181  0.15030  0.69016  1.0000
  C   C403      1.0  0.85164  0.13623  0.63018  1.0000
  H   H641      1.0  0.88118  0.15542  0.62455  1.0000
  H   H642      1.0  0.81185  0.16912  0.70332  1.0000
  H   H643      1.0  0.88027  0.32151  0.63402  1.0000
  H   H644      1.0  0.88648  0.12587  0.72420  1.0000
  H   H645      1.0  0.89409  0.15537  0.68053  1.0000
  H   H646      1.0  0.93012  0.11115  0.69328  1.0000
  H   H647      1.0  0.86424  0.11754  0.70793  1.0000
  H   H648      1.0  0.93651  0.19453  0.67641  1.0000
  H   H649      1.0  0.89050  0.19943  0.68696  1.0000
  S   S167      1.0  0.89487  0.30134  0.66422  1.0000
  C   C404      1.0  0.94341  0.13484  0.69853  1.0000
  H   H650      1.0  0.94980  0.12104  0.70997  1.0000
  C   C405      1.0  0.88103  0.14040  0.71267  1.0000
  C   C406      1.0  0.93751  0.19365  0.70732  1.0000
  H   H651      1.0  0.96492  0.21104  0.69871  1.0000
  C   C407      1.0  0.90934  0.17850  0.68556  1.0000
  H   H652      1.0  0.91884  0.21434  0.70954  1.0000
  S   S168      1.0  0.85155  0.24308  0.70701  1.0000
  H   H653      1.0  0.86212  0.16048  0.71552  1.0000
  H   H654      1.0  0.94490  0.18214  0.71884  1.0000
  N   N40       1.0  0.91782  0.16185  0.70101  1.0000
  Fe  Fe81      1.0  0.88552  0.29983  0.69038  1.0000
  S   S169      1.0  0.95971  0.13723  0.62888  1.0000
  Fe  Fe82      1.0  0.92647  0.38433  0.68484  1.0000
  H   H655      1.0  0.81362  0.40570  0.72201  1.0000
  H   H656      1.0  0.82254  0.45559  0.71112  1.0000
  C   C408      1.0  0.84843  0.36454  0.62738  1.0000
  S   S170      1.0  0.83711  0.37390  0.64653  1.0000
  C   C409      1.0  0.83609  0.43365  0.71733  1.0000
  H   H657      1.0  0.89428  0.41188  0.72933  1.0000
  C   C410      1.0  0.88163  0.48400  0.72356  1.0000
  N   N41       1.0  0.85197  0.44686  0.73034  1.0000
  H   H658      1.0  0.80529  0.47458  0.73693  1.0000
  H   H659      1.0  0.90596  0.48068  0.71435  1.0000
  S   S171      1.0  0.86357  0.35429  0.68854  1.0000
  C   C411      1.0  0.99106  0.45416  0.69388  1.0000
  C   C412      1.0  0.76812  0.30932  0.49165  1.0000
  N   N42       1.0  0.55144  0.00350  0.65444  1.0000
  C   C413      1.0  0.55516  0.11910  0.79845  1.0000
  C   C414      1.0  0.52741  0.08330  0.80317  1.0000
  C   C415      1.0  0.55556  0.14624  0.78459  1.0000
  C   C416      1.0  0.52869  0.13734  0.77536  1.0000
  H   H660      1.0  0.52930  0.15814  0.76453  1.0000
  H   H661      1.0  0.52694  0.06237  0.81395  1.0000
  H   H662      1.0  0.57610  0.12570  0.80554  1.0000
  S   S172      1.0  0.58848  0.19191  0.77867  1.0000
  H   H663      1.0  0.53638  0.02115  0.74272  1.0000
  H   H664      1.0  0.72092  0.17740  0.76481  1.0000
  H   H665      1.0  0.88201  0.42557  0.74803  1.0000
  H   H666      1.0  0.91235  0.34133  0.91081  1.0000
  H   H667      1.0  0.90747  0.03082  0.92095  1.0000
  S   S173      1.0  0.68658  0.14998  0.84061  1.0000
  C   C417      1.0  0.73740  0.15747  0.83454  1.0000
  C   C418      1.0  0.75619  0.17299  0.81838  1.0000
  C   C419      1.0  0.79668  0.18001  0.81340  1.0000
  H   H668      1.0  0.73962  0.17910  0.80959  1.0000
  C   C420      1.0  0.81881  0.17221  0.82462  1.0000
  H   H669      1.0  0.81090  0.19183  0.80084  1.0000
  H   H670      1.0  0.76888  0.19525  0.75184  1.0000
  S   S174      1.0  0.68167  0.19527  0.79569  1.0000
  C   C421      1.0  0.75951  0.14936  0.84582  1.0000
  H   H671      1.0  0.74521  0.13749  0.85836  1.0000
  C   C422      1.0  0.80030  0.15703  0.84088  1.0000
  H   H672      1.0  0.81733  0.15103  0.84962  1.0000
  C   C423      1.0  0.74295  0.20429  0.75774  1.0000
  S   S175      1.0  0.86959  0.18356  0.81812  1.0000
  H   H673      1.0  0.75225  0.22123  0.76637  1.0000
  H   H674      1.0  0.94961  0.10323  0.83798  1.0000
  C   C424      1.0  0.97478  0.09166  0.83483  1.0000
  H   H675      1.0  0.95321  0.06621  0.81681  1.0000
  H   H676      1.0  0.84843  0.38843  0.74318  1.0000
  C   C425      1.0  0.97684  0.07073  0.82283  1.0000
  H   H677      1.0  0.68013  0.25670  0.74548  1.0000
  H   H678      1.0  0.76656  0.28155  0.74486  1.0000
  N   N43       1.0  0.72711  0.22762  0.74582  1.0000
  H   H679      1.0  0.50501  0.00947  0.77186  1.0000
  Fe  Fe83      1.0  0.95938  0.16105  0.85518  1.0000
  Fe  Fe84      1.0  0.62308  0.20818  0.79630  1.0000
  S   S176      1.0  0.60544  0.19580  0.82322  1.0000
  C   C426      1.0  0.62120  0.31896  0.84609  1.0000
  S   S177      1.0  0.59871  0.29408  0.83354  1.0000
  C   C427      1.0  0.60016  0.33961  0.85510  1.0000
  H   H680      1.0  0.57096  0.34081  0.85394  1.0000
  Fe  Fe85      1.0  0.63191  0.25949  0.81976  1.0000
  S   S178      1.0  0.64470  0.27262  0.79290  1.0000
  C   C428      1.0  0.65379  0.35625  0.86761  1.0000
  H   H681      1.0  0.62700  0.23583  0.85684  1.0000
  H   H682      1.0  0.63188  0.18735  0.85626  1.0000
  C   C429      1.0  0.65909  0.31787  0.84753  1.0000
  H   H683      1.0  0.70099  0.25738  0.76258  1.0000
  H   H684      1.0  0.67585  0.30292  0.84033  1.0000
  H   H685      1.0  0.66960  0.21347  0.76117  1.0000
  C   C430      1.0  0.69302  0.23933  0.75412  1.0000
  Fe  Fe86      1.0  0.66668  0.18933  0.82232  1.0000
  C   C431      1.0  0.67528  0.33622  0.85839  1.0000
  H   H686      1.0  0.70910  0.34071  0.78863  1.0000
  C   C432      1.0  0.76953  0.34005  0.78112  1.0000
  C   C433      1.0  0.73893  0.35705  0.78618  1.0000
  S   S179      1.0  0.76015  0.29204  0.77889  1.0000
  H   H687      1.0  0.83178  0.34799  0.77448  1.0000
  C   C434      1.0  0.80802  0.36129  0.77811  1.0000
  S   S180      1.0  0.69158  0.25204  0.82099  1.0000
  Fe  Fe87      1.0  0.70199  0.25878  0.79448  1.0000
  C   C435      1.0  0.84179  0.28690  0.80872  1.0000
  C   C436      1.0  0.85262  0.31604  0.83073  1.0000
  C   C437      1.0  0.79690  0.32239  0.81972  1.0000
  H   H688      1.0  0.77462  0.30881  0.81387  1.0000
  H   H689      1.0  0.81814  0.23961  0.83810  1.0000
  N   N44       1.0  0.82269  0.29633  0.82357  1.0000
  C   C438      1.0  0.79947  0.26000  0.83512  1.0000
  H   H690      1.0  0.85989  0.31365  0.79977  1.0000
  H   H691      1.0  0.81377  0.35044  0.81132  1.0000
  H   H692      1.0  0.78129  0.32933  0.83070  1.0000
  H   H693      1.0  0.83925  0.32397  0.84186  1.0000
  H   H694      1.0  0.87125  0.34328  0.82226  1.0000
  H   H695      1.0  0.87223  0.29700  0.83406  1.0000
  H   H696      1.0  0.82001  0.27215  0.80293  1.0000
  H   H697      1.0  0.86126  0.26695  0.81122  1.0000
  H   H698      1.0  0.77645  0.24440  0.83014  1.0000
  H   H699      1.0  0.70452  0.33541  0.85941  1.0000
  C   C439      1.0  0.74683  0.39576  0.78771  1.0000
  C   C440      1.0  0.81589  0.39945  0.78020  1.0000
  H   H700      1.0  0.78517  0.26586  0.84659  1.0000
  H   H701      1.0  0.90122  0.37000  0.84381  1.0000
  H   H702      1.0  0.84569  0.41529  0.77812  1.0000
  H   H703      1.0  0.72307  0.40913  0.79126  1.0000
  C   C441      1.0  0.78533  0.41705  0.78467  1.0000
  H   H704      1.0  0.72143  0.29321  0.98605  1.0000
  S   S181      1.0  0.88143  0.22172  0.85552  1.0000
  Fe  Fe88      1.0  0.89782  0.18464  0.83871  1.0000
  S   S182      1.0  0.97154  0.30633  0.84728  1.0000
  C   C442      1.0  0.96529  0.33014  0.82874  1.0000
  C   C443      1.0  0.94518  0.32766  0.80381  1.0000
  Fe  Fe89      1.0  0.94584  0.24238  0.85192  1.0000
  C   C444      1.0  0.95231  0.36831  0.79972  1.0000
  H   H705      1.0  0.93409  0.31081  0.79591  1.0000
  S   S183      1.0  0.96224  0.20810  0.83388  1.0000
  H   H706      1.0  0.94378  0.27725  0.82175  1.0000
  C   C445      1.0  0.95100  0.30861  0.81842  1.0000
  C   C446      1.0  0.97374  0.37090  0.82434  1.0000
  S   S184      1.0  0.94102  0.39168  0.78228  1.0000
  C   C447      1.0  0.96675  0.38995  0.80995  1.0000
  H   H707      1.0  0.98470  0.38771  0.83228  1.0000
  C   C448      1.0  0.61657  0.35855  0.86570  1.0000
  H   H708      1.0  0.60002  0.37435  0.87268  1.0000
  H   H709      1.0  0.74149  0.47651  0.85960  1.0000
  H   H710      1.0  0.81176  0.49693  0.84495  1.0000
  H   H711      1.0  0.86736  0.47936  0.86615  1.0000
  H   H712      1.0  0.78392  0.42054  0.82312  1.0000
  C   C449      1.0  0.73600  0.46437  0.84919  1.0000
  Fe  Fe90      1.0  0.91099  0.49987  0.80864  1.0000
  C   C450      1.0  0.80402  0.48192  0.83554  1.0000
  C   C451      1.0  0.77708  0.42005  0.85461  1.0000
  H   H713      1.0  0.73339  0.40611  0.83369  1.0000
  C   C452      1.0  0.75925  0.43121  0.82909  1.0000
  S   S185      1.0  0.90665  0.48349  0.76641  1.0000
  S   S186      1.0  0.79529  0.46579  0.78611  1.0000
  Fe  Fe91      1.0  0.85792  0.48392  0.78649  1.0000
  S   S187      1.0  0.87575  0.44472  0.80531  1.0000
  N   N45       1.0  0.76910  0.44939  0.84210  1.0000
  C   C453      1.0  0.89825  0.46291  0.84581  1.0000
  H   H714      1.0  0.80167  0.40780  0.84969  1.0000
  C   C454      1.0  0.89365  0.39376  0.84867  1.0000
  H   H715      1.0  0.75114  0.39545  0.86009  1.0000
  H   H716      1.0  0.78494  0.43298  0.86453  1.0000
  H   H717      1.0  0.75225  0.45240  0.81960  1.0000
  C   C455      1.0  0.50043  0.10204  0.78029  1.0000
  H   H718      1.0  0.83134  0.46392  0.75213  1.0000
  C   C456      1.0  0.90844  0.43215  0.83969  1.0000
  C   C457      1.0  0.87491  0.45551  0.86131  1.0000
  C   C458      1.0  0.86812  0.38602  0.86368  1.0000
  H   H719      1.0  0.82984  0.47144  0.83062  1.0000
  H   H720      1.0  0.70877  0.44085  0.85366  1.0000
  H   H721      1.0  0.73014  0.48771  0.84025  1.0000
  H   H722      1.0  0.92736  0.43794  0.82790  1.0000
  Fe  Fe92      1.0  0.92679  0.44791  0.78571  1.0000
  S   S188      1.0  0.96438  0.49918  0.79087  1.0000
  H   H723      1.0  0.97268  0.42138  0.80678  1.0000
  H   H724      1.0  0.97675  0.43548  0.74873  1.0000
  H   H725      1.0  0.85420  0.02036  0.89789  1.0000
  S   S189      1.0  0.89644  0.13355  0.85807  1.0000
  H   H726      1.0  0.96045  0.04518  0.87843  1.0000
  H   H727      1.0  0.96494  0.09552  0.89409  1.0000
  C   C459      1.0  0.93294  0.09236  0.89572  1.0000
  C   C460      1.0  0.87058  0.05010  0.89767  1.0000
  C   C461      1.0  0.92852  0.04302  0.88040  1.0000
  N   N46       1.0  0.91275  0.05247  0.89574  1.0000
  H   H728      1.0  0.92431  0.06360  0.86998  1.0000
  H   H729      1.0  0.85789  0.05793  0.90896  1.0000
  H   H730      1.0  0.92872  0.11407  0.88574  1.0000
  H   H731      1.0  0.86473  0.07078  0.88768  1.0000
  H   H732      1.0  0.92160  0.10077  0.90703  1.0000
  H   H733      1.0  0.91417  0.01308  0.87996  1.0000
  C   C462      1.0  0.62294  0.20607  0.86439  1.0000
  H   H734      1.0  0.59120  0.19473  0.86976  1.0000
  H   H735      1.0  0.60845  0.15310  0.89233  1.0000
  H   H736      1.0  0.60097  0.21974  0.89371  1.0000
  H   H737      1.0  0.69818  0.20437  0.86099  1.0000
  H   H738      1.0  0.87208  0.33311  0.90159  1.0000
  H   H739      1.0  0.77739  0.10927  0.92304  1.0000
  C   C463      1.0  0.91905  0.02446  0.90920  1.0000
  H   H740      1.0  0.63588  0.26158  0.88069  1.0000
  C   C464      1.0  0.63226  0.23111  0.88752  1.0000
  N   N47       1.0  0.64554  0.20638  0.87689  1.0000
  C   C465      1.0  0.63966  0.16613  0.88638  1.0000
  H   H741      1.0  0.69310  0.25262  0.86216  1.0000
  Fe  Fe93      1.0  0.70911  0.34692  0.89452  1.0000
  H   H742      1.0  0.64900  0.23247  0.89698  1.0000
  H   H743      1.0  0.64974  0.14691  0.87865  1.0000
  C   C466      1.0  0.77465  0.13625  0.91588  1.0000
  H   H744      1.0  0.71715  0.13286  0.92973  1.0000
  H   H745      1.0  0.65626  0.16531  0.89596  1.0000
  H   H746      1.0  0.70512  0.22186  0.87842  1.0000
  C   C467      1.0  0.74058  0.14950  0.91965  1.0000
  C   C468      1.0  0.80524  0.15809  0.90299  1.0000
  C   C469      1.0  0.68738  0.22211  0.86924  1.0000
  Fe  Fe94      1.0  0.71965  0.26886  0.91057  1.0000
  S   S190      1.0  0.73565  0.30226  0.88500  1.0000
  S   S191      1.0  0.69730  0.20417  0.91651  1.0000
  Fe  Fe95      1.0  0.78941  0.33161  0.89123  1.0000
  S   S192      1.0  0.77613  0.29421  0.91610  1.0000
  C   C470      1.0  0.76816  0.20678  0.89786  1.0000
  C   C471      1.0  0.73769  0.18519  0.91083  1.0000
  H   H747      1.0  0.76624  0.23436  0.89101  1.0000
  S   S193      1.0  0.68769  0.31081  0.91980  1.0000
  C   C472      1.0  0.80152  0.19286  0.89377  1.0000
  H   H748      1.0  0.82485  0.20983  0.88383  1.0000
  S   S194      1.0  0.84478  0.33763  0.87331  1.0000
  H   H749      1.0  0.78382  0.29856  0.94855  1.0000
  H   H750      1.0  0.81641  0.27214  0.96943  1.0000
  H   H751      1.0  0.84758  0.24447  0.91454  1.0000
  H   H752      1.0  0.85214  0.26973  0.89427  1.0000
  C   C473      1.0  0.86855  0.25705  0.90270  1.0000
  H   H753      1.0  0.86740  0.30741  0.92182  1.0000
  C   C474      1.0  0.88789  0.31848  0.90979  1.0000
  S   S195      1.0  0.84872  0.14278  0.89903  1.0000
  H   H754      1.0  0.95402  0.32544  0.88791  1.0000
  H   H755      1.0  0.90384  0.25609  0.92720  1.0000
  H   H756      1.0  0.94863  0.28989  0.91601  1.0000
  C   C475      1.0  0.92306  0.26839  0.91495  1.0000
  H   H757      1.0  0.93391  0.24414  0.91080  1.0000
  H   H758      1.0  0.93986  0.27952  0.88281  1.0000
  H   H759      1.0  0.91362  0.31628  0.87884  1.0000
  H   H760      1.0  0.87811  0.23249  0.89830  1.0000
  S   S196      1.0  0.94960  0.19773  0.87292  1.0000
  N   N48       1.0  0.90201  0.28669  0.90378  1.0000
  Fe  Fe96      1.0  0.88657  0.17288  0.87468  1.0000
  C   C476      1.0  0.92854  0.30265  0.88770  1.0000
  Fe  Fe97      1.0  0.74578  0.33949  0.92323  1.0000
  C   C477      1.0  0.79984  0.35241  0.98220  1.0000
  S   S197      1.0  0.67304  0.37942  0.88131  1.0000
  C   C478      1.0  0.80695  0.29890  0.96962  1.0000
  S   S198      1.0  0.75008  0.36619  0.94436  1.0000
  H   H761      1.0  0.77181  0.39396  0.97068  1.0000
  C   C479      1.0  0.49952  0.07512  0.79427  1.0000
  C   C480      1.0  0.77567  0.34803  0.95821  1.0000
  C   C481      1.0  0.78160  0.36739  0.97036  1.0000
  H   H762      1.0  0.84150  0.41121  0.88215  1.0000
  C   C482      1.0  0.85978  0.41692  0.87026  1.0000
  S   S199      1.0  0.76430  0.37955  0.89864  1.0000
  C   C483      1.0  0.78863  0.31386  0.95778  1.0000
  C   C484      1.0  0.81210  0.31789  0.98197  1.0000
  C   C485      1.0  0.82018  0.45286  0.74238  1.0000
  H   H763      1.0  0.95062  0.02567  0.90812  1.0000
  H   H764      1.0  0.79773  0.42524  0.74813  1.0000
  H   H765      1.0  0.69177  0.17747  0.74115  1.0000
  C   C486      1.0  0.60541  0.61661  0.10667  1.0000
  H   H766      1.0  0.54388  0.59456  0.10922  1.0000
  C   C487      1.0  0.56590  0.61651  0.11150  1.0000
  H   H767      1.0  0.61383  0.59537  0.10032  1.0000
  Fe  Fe98      1.0  0.75888  0.54149  0.10133  1.0000
  S   S200      1.0  0.73042  0.57044  0.08323  1.0000
  Fe  Fe99      1.0  0.69373  0.58418  0.10425  1.0000
  S   S201      1.0  0.82272  0.54240  0.09597  1.0000
  S   S202      1.0  0.64662  0.52936  0.10987  1.0000
  H   H768      1.0  0.80048  0.51590  0.04372  1.0000
  H   H769      1.0  0.74139  0.52863  0.05918  1.0000
  Fe  Fe100     1.0  0.68613  0.51323  0.09033  1.0000
  H   H770      1.0  0.87034  0.52079  0.03682  1.0000
  C   C488      1.0  0.50750  0.82219  0.18561  1.0000
  C   C489      1.0  0.63392  0.64451  0.10988  1.0000
  S   S203      1.0  0.68314  0.64322  0.10533  1.0000
  H   H771      1.0  0.87041  0.55844  0.05844  1.0000
  C   C490      1.0  0.83828  0.52938  0.11364  1.0000
  H   H772      1.0  0.92257  0.53017  0.03280  1.0000
  H   H773      1.0  0.92276  0.56787  0.05364  1.0000
  H   H774      1.0  0.89531  0.54587  0.07386  1.0000
  C   C491      1.0  0.89568  0.54671  0.06101  1.0000
  N   N49       1.0  0.89331  0.50757  0.05773  1.0000
  C   C492      1.0  0.86746  0.50873  0.11363  1.0000
  H   H775      1.0  0.97562  0.58689  0.11504  1.0000
  C   C493      1.0  0.89517  0.51015  0.04048  1.0000
  H   H776      1.0  0.52660  0.84220  0.17494  1.0000
  H   H777      1.0  0.95474  0.51181  0.05519  1.0000
  C   C494      1.0  0.62295  0.67280  0.11760  1.0000
  H   H778      1.0  0.54094  0.56755  0.16319  1.0000
  H   H779      1.0  0.57744  0.54098  0.13386  1.0000
  C   C495      1.0  0.52301  0.53837  0.22952  1.0000
  H   H780      1.0  0.54544  0.50964  0.15195  1.0000
  C   C496      1.0  0.57209  0.58028  0.15703  1.0000
  H   H781      1.0  0.57319  0.59838  0.14506  1.0000
  H   H782      1.0  0.52438  0.51205  0.22535  1.0000
  C   C497      1.0  0.57643  0.52414  0.14611  1.0000
  H   H783      1.0  0.56080  0.51273  0.17839  1.0000
  S   S204      1.0  0.72641  0.56055  0.12180  1.0000
  N   N50       1.0  0.59374  0.54969  0.15561  1.0000
  Fe  Fe101     1.0  0.68224  0.50468  0.12576  1.0000
  C   C498      1.0  0.59152  0.52636  0.17179  1.0000
  H   H784      1.0  0.60470  0.54475  0.17921  1.0000
  H   H785      1.0  0.63773  0.58495  0.13507  1.0000
  C   C499      1.0  0.63487  0.56820  0.14750  1.0000
  H   H786      1.0  0.79837  0.55383  0.12801  1.0000
  C   C500      1.0  0.82016  0.53704  0.12798  1.0000
  H   H787      1.0  0.64844  0.58881  0.15401  1.0000
  H   H788      1.0  0.65245  0.54615  0.14669  1.0000
  H   H789      1.0  0.60369  0.97839  0.19209  1.0000
  H   H790      1.0  0.50234  0.93865  0.19081  1.0000
  H   H791      1.0  0.81585  0.52858  0.15346  1.0000
  C   C501      1.0  0.83035  0.52305  0.14236  1.0000
  H   H792      1.0  0.95596  0.53844  0.12727  1.0000
  H   H793      1.0  0.95793  0.56744  0.16602  1.0000
  H   H794      1.0  0.94766  0.52644  0.15723  1.0000
  H   H795      1.0  0.99144  0.53414  0.18248  1.0000
  N   N51       1.0  0.97334  0.58142  0.14022  1.0000
  C   C502      1.0  0.94798  0.55799  0.15575  1.0000
  C   C503      1.0  0.95740  0.56974  0.12696  1.0000
  H   H796      1.0  0.92724  0.57385  0.12772  1.0000
  H   H797      1.0  0.91726  0.56047  0.15684  1.0000
  H   H798      1.0  0.50177  0.96910  0.21425  1.0000
  C   C504      1.0  0.97488  0.62319  0.13932  1.0000
  S   S205      1.0  0.54202  0.57636  0.19784  1.0000
  C   C505      1.0  0.53082  0.57416  0.21844  1.0000
  C   C506      1.0  0.51944  0.60638  0.24032  1.0000
  C   C507      1.0  0.55495  0.64395  0.11977  1.0000
  Fe  Fe102     1.0  0.51442  0.70525  0.17484  1.0000
  Fe  Fe103     1.0  0.51552  0.62047  0.18487  1.0000
  S   S206      1.0  0.54133  0.76615  0.17579  1.0000
  C   C508      1.0  0.52897  0.60808  0.22386  1.0000
  C   C509      1.0  0.58350  0.67236  0.12264  1.0000
  H   H799      1.0  0.57521  0.69411  0.12871  1.0000
  S   S207      1.0  0.55046  0.66838  0.16391  1.0000
  S   S208      1.0  0.56544  0.75852  0.23894  1.0000
  H   H800      1.0  0.56867  0.74815  0.20658  1.0000
  H   H801      1.0  0.56220  0.70118  0.21961  1.0000
  H   H802      1.0  0.55546  0.70517  0.19950  1.0000
  C   C510      1.0  0.57351  0.71830  0.20697  1.0000
  C   C511      1.0  0.50920  0.78301  0.18903  1.0000
  H   H803      1.0  0.53541  0.63567  0.21534  1.0000
  H   H804      1.0  0.58459  0.60014  0.16406  1.0000
  H   H805      1.0  0.62422  0.77301  0.18336  1.0000
  H   H806      1.0  0.61166  0.72990  0.17628  1.0000
  H   H807      1.0  0.64497  0.69463  0.11996  1.0000
  C   C512      1.0  0.61993  0.67936  0.20169  1.0000
  H   H808      1.0  0.62816  0.72097  0.22400  1.0000
  C   C513      1.0  0.62845  0.74281  0.18428  1.0000
  C   C514      1.0  0.63796  0.73762  0.21122  1.0000
  N   N52       1.0  0.61503  0.71951  0.20104  1.0000
  H   H809      1.0  0.63449  0.76782  0.21109  1.0000
  H   H810      1.0  0.66953  0.73913  0.20715  1.0000
  H   H811      1.0  0.65982  0.74490  0.17936  1.0000
  H   H812      1.0  0.65091  0.67914  0.19715  1.0000
  H   H813      1.0  0.61020  0.66112  0.21421  1.0000
  H   H814      1.0  0.60250  0.66465  0.19431  1.0000
  H   H815      1.0  0.98697  0.63295  0.14915  1.0000
  H   H816      1.0  0.94535  0.62912  0.14040  1.0000
  H   H817      1.0  0.99373  0.64178  0.12774  1.0000
  C   C515      1.0  0.53448  0.94370  0.18895  1.0000
  C   C516      1.0  0.59837  0.83618  0.22896  1.0000
  Fe  Fe104     1.0  0.50056  0.65200  0.15256  1.0000
  N   N53       1.0  0.54666  0.94292  0.20423  1.0000
  C   C517      1.0  0.60565  0.87460  0.23069  1.0000
  H   H818      1.0  0.60026  0.92671  0.19621  1.0000
  C   C518      1.0  0.58955  0.95027  0.20100  1.0000
  H   H819      1.0  0.60003  0.95218  0.21208  1.0000
  C   C519      1.0  0.53397  0.97356  0.21159  1.0000
  H   H820      1.0  0.54298  0.97367  0.22313  1.0000
  C   C520      1.0  0.52881  0.90434  0.21533  1.0000
  H   H821      1.0  0.62409  0.89761  0.22086  1.0000
  H   H822      1.0  0.61053  0.82984  0.21770  1.0000
  H   H823      1.0  0.53584  0.90338  0.22724  1.0000
  H   H824      1.0  0.54732  0.97238  0.18024  1.0000
  H   H825      1.0  0.53922  0.88057  0.21059  1.0000
  H   H826      1.0  0.54359  0.92085  0.18312  1.0000
  S   S209      1.0  0.50574  0.63996  0.12812  1.0000
  N   N54       1.0  0.59614  0.53273  0.30760  1.0000
  C   C521      1.0  0.57858  0.55076  0.32015  1.0000
  S   S210      1.0  0.53614  0.63040  0.29959  1.0000
  S   S211      1.0  0.57993  0.66149  0.26124  1.0000
  H   H827      1.0  0.58977  0.54433  0.33119  1.0000
  H   H828      1.0  0.58542  0.58296  0.31590  1.0000
  C   C522      1.0  0.51247  0.53645  0.24602  1.0000
  H   H829      1.0  0.58820  0.63580  0.34574  1.0000
  C   C523      1.0  0.61715  0.65281  0.32058  1.0000
  Fe  Fe105     1.0  0.59216  0.67026  0.28462  1.0000
  S   S212      1.0  0.65064  0.66530  0.28856  1.0000
  H   H830      1.0  0.54631  0.54038  0.32364  1.0000
  H   H831      1.0  0.59462  0.66604  0.31699  1.0000
  C   C524      1.0  0.61355  0.63579  0.33681  1.0000
  H   H832      1.0  0.54960  0.53510  0.29536  1.0000
  C   C525      1.0  0.58195  0.54409  0.29295  1.0000
  H   H833      1.0  0.59414  0.53060  0.28327  1.0000
  Fe  Fe106     1.0  0.52175  0.62633  0.27604  1.0000
  H   H834      1.0  0.59046  0.57632  0.28811  1.0000
  C   C526      1.0  0.51090  0.57050  0.25140  1.0000
  H   H835      1.0  0.50585  0.50867  0.25458  1.0000
  H   H836      1.0  0.77083  0.52540  0.28584  1.0000
  H   H837      1.0  0.65340  0.53167  0.29515  1.0000
  H   H838      1.0  0.64842  0.57836  0.29856  1.0000
  C   C527      1.0  0.64914  0.65117  0.30900  1.0000
  C   C528      1.0  0.80955  0.53313  0.34400  1.0000
  S   S213      1.0  0.63443  0.59062  0.36116  1.0000
  C   C529      1.0  0.64177  0.61697  0.34137  1.0000
  H   H839      1.0  0.70362  0.63402  0.30479  1.0000
  C   C530      1.0  0.67853  0.63466  0.31370  1.0000
  C   C531      1.0  0.67464  0.61724  0.32986  1.0000
  H   H840      1.0  0.69722  0.60422  0.33341  1.0000
  S   S214      1.0  0.70867  0.53014  0.34499  1.0000
  Fe  Fe107     1.0  0.65458  0.53530  0.36134  1.0000
  H   H841      1.0  0.78909  0.55085  0.34649  1.0000
  C   C532      1.0  0.63899  0.54641  0.30386  1.0000
  H   H842      1.0  0.84204  0.53532  0.28568  1.0000
  H   H843      1.0  0.84029  0.57172  0.32116  1.0000
  C   C533      1.0  0.86583  0.52273  0.32664  1.0000
  C   C534      1.0  0.83873  0.54512  0.32975  1.0000
  S   S215      1.0  0.90071  0.53660  0.30844  1.0000
  Fe  Fe108     1.0  0.51273  0.68403  0.29637  1.0000
  Fe  Fe109     1.0  0.54560  0.97296  0.29670  1.0000
  H   H844      1.0  0.57524  0.75866  0.33537  1.0000
  H   H845      1.0  0.58300  0.82892  0.33447  1.0000
  C   C535      1.0  0.56604  0.85311  0.25787  1.0000
  H   H846      1.0  0.60351  0.84121  0.31318  1.0000
  C   C536      1.0  0.56058  0.81427  0.25643  1.0000
  C   C537      1.0  0.57571  0.83299  0.32251  1.0000
  H   H847      1.0  0.55296  0.85975  0.26892  1.0000
  H   H848      1.0  0.54377  0.79091  0.26648  1.0000
  Fe  Fe110     1.0  0.55314  0.71262  0.26157  1.0000
  S   S216      1.0  0.57047  0.72467  0.28373  1.0000
  N   N55       1.0  0.54958  0.79744  0.32099  1.0000
  C   C538      1.0  0.54146  0.80396  0.30483  1.0000
  H   H849      1.0  0.56860  0.81069  0.29522  1.0000
  C   C539      1.0  0.56847  0.76436  0.32334  1.0000
  H   H850      1.0  0.56189  0.85828  0.32116  1.0000
  H   H851      1.0  0.59617  0.76983  0.31414  1.0000
  H   H852      1.0  0.54931  0.73699  0.32244  1.0000
  H   H853      1.0  0.52710  0.82857  0.30272  1.0000
  H   H854      1.0  0.52147  0.77788  0.30335  1.0000
  S   S217      1.0  0.59251  0.93224  0.24571  1.0000
  H   H855      1.0  0.65053  0.54046  0.31484  1.0000
  H   H856      1.0  0.51744  0.78245  0.34564  1.0000
  H   H857      1.0  0.51799  0.63272  0.24443  1.0000
  S   S218      1.0  0.55240  0.91453  0.29274  1.0000
  Fe  Fe111     1.0  0.55198  0.93931  0.26725  1.0000
  C   C540      1.0  0.58842  0.88331  0.24492  1.0000
  C   C541      1.0  0.51265  0.78857  0.33329  1.0000
  H   H858      1.0  0.84703  0.50861  0.27017  1.0000
  H   H859      1.0  0.79186  0.50737  0.31087  1.0000
  C   C542      1.0  0.83980  0.50558  0.28339  1.0000
  C   C543      1.0  0.57576  0.80599  0.24179  1.0000
  S   S219      1.0  0.55066  0.99906  0.27080  1.0000
  H   H860      1.0  0.76532  0.97303  0.71414  1.0000
  H   H861      1.0  0.50472  0.95709  0.65374  1.0000
  C   C544      1.0  0.55505  0.92427  0.71311  1.0000
  S   S220      1.0  0.54015  0.85898  0.68076  1.0000
  H   H862      1.0  0.53989  0.92498  0.72495  1.0000
  C   C545      1.0  0.54129  0.89390  0.70611  1.0000
  C   C546      1.0  0.59382  0.92177  0.68251  1.0000
  C   C547      1.0  0.58748  0.95416  0.70458  1.0000
  C   C548      1.0  0.56035  0.89297  0.69068  1.0000
  H   H863      1.0  0.60854  0.92115  0.67057  1.0000
  H   H864      1.0  0.51555  0.87138  0.71254  1.0000
  C   C549      1.0  0.60681  0.95268  0.68931  1.0000
  C   C550      1.0  0.53710  0.96507  0.65118  1.0000
  H   H865      1.0  0.54824  0.96483  0.63842  1.0000
  H   H866      1.0  0.54614  0.94143  0.65879  1.0000
  H   H867      1.0  0.70965  0.98849  0.73092  1.0000
  H   H868      1.0  0.64872  0.91157  0.71726  1.0000
  H   H869      1.0  0.72736  0.92549  0.73956  1.0000
  C   C551      1.0  0.69027  0.97342  0.72430  1.0000
  H   H870      1.0  0.63101  0.97583  0.68243  1.0000
  H   H871      1.0  0.66059  0.96229  0.73235  1.0000
  H   H872      1.0  0.68787  0.99586  0.71411  1.0000
  N   N56       1.0  0.70541  0.94178  0.71862  1.0000
  C   C552      1.0  0.67895  0.92320  0.70972  1.0000
  S   S221      1.0  0.60301  0.99348  0.71298  1.0000
  H   H873      1.0  0.75727  0.93513  0.70347  1.0000
  C   C553      1.0  0.70767  0.91240  0.73256  1.0000
  C   C554      1.0  0.74469  0.95812  0.70793  1.0000
  H   H874      1.0  0.68892  0.89863  0.70551  1.0000
  H   H875      1.0  0.71901  0.88806  0.72872  1.0000
  H   H876      1.0  0.67715  0.94435  0.69896  1.0000
  H   H877      1.0  0.98099  0.50453  0.70252  1.0000
  H   H878      1.0  0.54459  0.97838  0.67952  1.0000
  H   H879      1.0  0.60601  0.99106  0.65758  1.0000
  H   H880      1.0  0.74411  0.98028  0.69724  1.0000
  H   H881      1.0  0.50396  0.99581  0.67474  1.0000
  H   H882      1.0  0.86903  0.50725  0.71768  1.0000
  H   H883      1.0  0.51439  0.99267  0.73054  1.0000
  H   H884      1.0  0.67849  0.89950  0.74086  1.0000
  C   C555      1.0  0.53634  0.00194  0.67159  1.0000
  H   H885      1.0  0.99125  0.53704  0.83866  1.0000
  S   S222      1.0  0.88816  0.53924  0.79158  1.0000
  Fe  Fe112     1.0  0.93925  0.53486  0.77335  1.0000
  H   H886      1.0  0.93707  0.61969  0.77724  1.0000
  H   H887      1.0  0.95736  0.66894  0.79224  1.0000
  C   C556      1.0  0.96766  0.63255  0.77568  1.0000
  C   C557      1.0  0.97916  0.66057  0.78410  1.0000
  H   H888      1.0  0.96094  0.59082  0.82953  1.0000
  H   H889      1.0  0.99019  0.63486  0.81579  1.0000
  H   H890      1.0  0.98378  0.55283  0.81073  1.0000
  S   S223      1.0  0.98100  0.58512  0.75525  1.0000
  C   C558      1.0  0.99052  0.61079  0.82583  1.0000
  H   H891      1.0  0.50482  0.95860  0.77447  1.0000
  H   H892      1.0  0.53648  0.97044  0.74547  1.0000
  H   H893      1.0  0.90427  0.99400  0.90959  1.0000
  C   C559      1.0  0.51868  0.99198  0.74290  1.0000
  S   S224      1.0  0.91079  0.50959  0.83323  1.0000
  H   H894      1.0  0.98949  0.50476  0.75011  1.0000
  H   H895      1.0  0.79970  0.50406  0.82564  1.0000
  H   H896      1.0  0.99547  0.62400  0.83603  1.0000
  C   C560      1.0  0.99557  0.62158  0.76513  1.0000
