data_image0
_chemical_formula_structural       HSHFeS2FeS2FeSFeS3C2H3CH4CHCH2C7H5FeHC3HCH2CNHCHC3H3CH4C2HNHCSH3C2H4CH6NSHCHCSH2SHC2FeSHC2H3FeH3CHSH2CH3C2HCSH2SN2SH3CHSC2H2C3H3CH2CH3SH6NHC2H2CH3FeCHCFeSHC3HCNHCHC3HCS2FeSC2H5S2FeH3FeH3FeCH2CHNH3C2HCSCHCH2CHCH4CH2SCHCH2CS2HFeCH5C2HCNCHCH5C2H3SFeC2FeSH3SH4SCNCSHC2HSFeCSC9H3CH6FeCFeHS3CHSCHCFeH2CH4FeNCHC3H3SCHCH3C2H4NH4SFeHNC2S2CSFeH3CH7C4H3CH2C2HSFeSNCFeS2FeS2FeSFeS3HC3HCH2CH2CH2CH2C6H10C4H2C3H3NCH2CH5SCH3CH3CH2CH2FeCH2SC2H3SC2SFeHSH6CNHFeH2C2H3CH3SHC2FeS2HSFeH4NHCHSH5C2NHCH4CSC2SH2FeS2FeS2FeHFeS3H2CHC3H4C4H3C6H5FeHC2HC2H2NHNCH2SH4CH2CH3CSCHSC2HFeCSFeSH2C4HSCFeH2CHSH3CSH4CHC2HC2SHS2FeSCHCFeH3SH2NH4CHCHCSH3FeCH3C4HCHC2FeH2FeCH2SCH2CH3C3HC3H2CHSHSHNCHCH2CSHCHNC2H2FeCS2C2H3FeH2NH4CSCSCFeHCHSHFeH2CSNC2HCH2CHCH3CH2C2HSCFeSNSFeCHCSH2CHSFeH3S2C2H2CHCH2FeSHC2H2CFeSH3C2SH4C3NH4CH3C3H2CSC2H5CSH3C2FeSH2S2C4H2SHCFeH3SHFeH2SNCH2SH2CHNHCH3CHSHFeS2FeS2FeSFeS3H2CH3C2HC3HCHCH4C6H8NFeHC2HCH7C2SHCHN2CH2C2H2CHCH2CHC2H3FeCHCH2C2H2
_chemical_formula_sum              "H512 S128 Fe64 C320 N32"
_cell_length_a       27.987
_cell_length_b       55.5461
_cell_length_c       38.7382
_cell_angle_alpha    90.2427
_cell_angle_beta     105.645
_cell_angle_gamma    89.2737

_space_group_name_H-M_alt    "P 1"
_space_group_IT_number       1

loop_
  _space_group_symop_operation_xyz
  'x, y, z'

loop_
  _atom_site_type_symbol
  _atom_site_label
  _atom_site_symmetry_multiplicity
  _atom_site_fract_x
  _atom_site_fract_y
  _atom_site_fract_z
  _atom_site_occupancy
  H   H1        1.0  0.28890  0.25147  0.32702  1.0000
  S   S1        1.0  0.48562  0.23391  0.16395  1.0000
  H   H2        1.0  0.23726  0.23164  0.25294  1.0000
  Fe  Fe1       1.0  0.16760  0.17410  0.14541  1.0000
  S   S2        1.0  0.14313  0.14031  0.16678  1.0000
  S   S3        1.0  0.12832  0.19229  0.09348  1.0000
  Fe  Fe2       1.0  0.25872  0.18004  0.20939  1.0000
  S   S4        1.0  0.24208  0.14643  0.23594  1.0000
  S   S5        1.0  0.31883  0.20548  0.23872  1.0000
  Fe  Fe3       1.0  0.22403  0.12995  0.18090  1.0000
  S   S6        1.0  0.25240  0.09496  0.16314  1.0000
  Fe  Fe4       1.0  0.16289  0.15980  0.21974  1.0000
  S   S7        1.0  0.11751  0.15990  0.26004  1.0000
  S   S8        1.0  0.24708  0.16268  0.15551  1.0000
  S   S9        1.0  0.18094  0.19446  0.19708  1.0000
  C   C1        1.0  0.21648  0.06509  0.20716  1.0000
  C   C2        1.0  0.23674  0.06692  0.17801  1.0000
  H   H3        1.0  0.17641  0.22989  0.25939  1.0000
  H   H4        1.0  0.20910  0.08120  0.22077  1.0000
  H   H5        1.0  0.26191  0.04719  0.13806  1.0000
  C   C3        1.0  0.10807  0.17325  0.05640  1.0000
  H   H6        1.0  0.20387  0.24975  0.33584  1.0000
  H   H7        1.0  0.08725  0.17982  0.31997  1.0000
  H   H8        1.0  0.19746  0.19075  0.28915  1.0000
  H   H9        1.0  0.16639  0.22401  0.32036  1.0000
  C   C4        1.0  0.09223  0.18815  0.26674  1.0000
  H   H10       1.0  0.54760  0.27777  0.08688  1.0000
  C   C5        1.0  0.28365  0.11698  0.08830  1.0000
  H   H11       1.0  0.31117  0.22718  0.30452  1.0000
  H   H12       1.0  0.21964  0.22111  0.35805  1.0000
  C   C6        1.0  0.24620  0.04591  0.16061  1.0000
  C   C7        1.0  0.43914  0.22666  0.18492  1.0000
  C   C8        1.0  0.40276  0.21005  0.16834  1.0000
  C   C9        1.0  0.36550  0.20358  0.18449  1.0000
  C   C10       1.0  0.36466  0.21352  0.21751  1.0000
  C   C11       1.0  0.40109  0.23013  0.23419  1.0000
  C   C12       1.0  0.43817  0.23678  0.21787  1.0000
  H   H13       1.0  0.40349  0.20213  0.14293  1.0000
  H   H14       1.0  0.33780  0.19073  0.17151  1.0000
  H   H15       1.0  0.40097  0.23756  0.25998  1.0000
  H   H16       1.0  0.46664  0.24924  0.23105  1.0000
  H   H17       1.0  0.10711  0.14135  0.08757  1.0000
  Fe  Fe5       1.0  0.53636  0.26505  0.18442  1.0000
  H   H18       1.0  0.31322  0.12557  0.07852  1.0000
  C   C13       1.0  0.52498  0.28125  0.02939  1.0000
  C   C14       1.0  0.21498  0.23581  0.27212  1.0000
  C   C15       1.0  0.21960  0.14176  0.04992  1.0000
  H   H19       1.0  0.25010  0.18749  0.32724  1.0000
  C   C16       1.0  0.10009  0.14881  0.06093  1.0000
  H   H20       1.0  0.21028  0.08660  0.08521  1.0000
  H   H21       1.0  0.25864  0.19190  0.28347  1.0000
  C   C17       1.0  0.20672  0.04227  0.21924  1.0000
  N   N1        1.0  0.23581  0.22370  0.30695  1.0000
  H   H22       1.0  0.19057  0.11540  0.09743  1.0000
  C   C18       1.0  0.19797  0.10495  0.07477  1.0000
  H   H23       1.0  0.09036  0.20155  0.21442  1.0000
  C   C19       1.0  0.20526  0.22996  0.33149  1.0000
  C   C20       1.0  0.06969  0.22910  0.24703  1.0000
  C   C21       1.0  0.23556  0.19734  0.30154  1.0000
  H   H24       1.0  0.21359  0.15230  0.07298  1.0000
  H   H25       1.0  0.30426  0.22269  0.34871  1.0000
  H   H26       1.0  0.19174  0.04093  0.24215  1.0000
  C   C22       1.0  0.08467  0.20582  0.24024  1.0000
  H   H27       1.0  0.21383  0.25571  0.27516  1.0000
  H   H28       1.0  0.29636  0.09843  0.09753  1.0000
  H   H29       1.0  0.25304  0.08426  0.03589  1.0000
  H   H30       1.0  0.16221  0.10306  0.05389  1.0000
  C   C23       1.0  0.28732  0.23167  0.32257  1.0000
  C   C24       1.0  0.08204  0.19356  0.29952  1.0000
  H   H31       1.0  0.28066  0.12707  0.11249  1.0000
  N   N2        1.0  0.23566  0.11675  0.06046  1.0000
  H   H32       1.0  0.12462  0.27903  0.48869  1.0000
  C   C25       1.0  0.06679  0.21697  0.30634  1.0000
  S   S10       1.0  0.08919  0.28160  0.39522  1.0000
  H   H33       1.0  0.24767  0.15144  0.03984  1.0000
  H   H34       1.0  0.07462  0.11528  0.03437  1.0000
  H   H35       1.0  0.18179  0.27172  0.52136  1.0000
  C   C26       1.0  0.08175  0.13410  0.03087  1.0000
  C   C27       1.0  0.24135  0.10326  0.02882  1.0000
  H   H36       1.0  0.18404  0.14223  0.02836  1.0000
  H   H37       1.0  0.43539  0.27949  0.28821  1.0000
  H   H38       1.0  0.06508  0.24281  0.22657  1.0000
  H   H39       1.0  0.06016  0.22125  0.33195  1.0000
  C   C28       1.0  0.06179  0.23488  0.28028  1.0000
  H   H40       1.0  0.15961  0.21762  0.85262  1.0000
  H   H41       1.0  0.12633  0.23209  0.81166  1.0000
  H   H42       1.0  0.08014  0.17222  0.78345  1.0000
  H   H43       1.0  0.06492  0.25819  0.59533  1.0000
  H   H44       1.0  0.17270  0.25007  0.77197  1.0000
  H   H45       1.0  0.53134  0.23436  0.98193  1.0000
  N   N3        1.0  0.20582  0.23395  0.82303  1.0000
  S   S11       1.0  0.50255  0.25425  0.87071  1.0000
  H   H46       1.0  0.23881  0.24749  0.78289  1.0000
  C   C29       1.0  0.24982  0.21899  0.84008  1.0000
  H   H47       1.0  0.20967  0.25470  0.87078  1.0000
  C   C30       1.0  0.08003  0.16813  0.99171  1.0000
  S   S12       1.0  0.07954  0.27610  0.76572  1.0000
  H   H48       1.0  0.20068  0.22130  0.76951  1.0000
  H   H49       1.0  0.28475  0.22812  0.83926  1.0000
  S   S13       1.0  0.41966  0.28048  0.77774  1.0000
  H   H50       1.0  0.15658  0.20380  0.80998  1.0000
  C   C31       1.0  0.20467  0.23835  0.78523  1.0000
  C   C32       1.0  0.20856  0.25721  0.84212  1.0000
  Fe  Fe6       1.0  0.48523  0.28172  0.82693  1.0000
  S   S14       1.0  0.13715  0.27031  0.70162  1.0000
  H   H51       1.0  0.25194  0.21528  0.86866  1.0000
  C   C33       1.0  0.16025  0.22130  0.82456  1.0000
  C   C34       1.0  0.07181  0.14373  0.99628  1.0000
  H   H52       1.0  0.07246  0.17560  0.96499  1.0000
  H   H53       1.0  0.24213  0.26742  0.84105  1.0000
  H   H54       1.0  0.53636  0.21509  0.94547  1.0000
  Fe  Fe7       1.0  0.07815  0.25108  0.72023  1.0000
  H   H55       1.0  0.24885  0.20137  0.82609  1.0000
  H   H56       1.0  0.20575  0.10285  0.00722  1.0000
  H   H57       1.0  0.17589  0.26897  0.82979  1.0000
  C   C35       1.0  0.09813  0.18287  0.02179  1.0000
  H   H58       1.0  0.10428  0.20180  0.01824  1.0000
  S   S15       1.0  0.08700  0.21225  0.73755  1.0000
  H   H59       1.0  0.26969  0.11156  0.01739  1.0000
  H   H60       1.0  0.32448  0.27768  0.72678  1.0000
  C   C36       1.0  0.55521  0.22951  0.96406  1.0000
  H   H61       1.0  0.55650  0.24561  0.94743  1.0000
  H   H62       1.0  0.49035  0.27195  0.02652  1.0000
  H   H63       1.0  0.48806  0.52143  0.29651  1.0000
  C   C37       1.0  0.35988  0.50759  0.36268  1.0000
  C   C38       1.0  0.22279  0.36302  0.41150  1.0000
  H   H64       1.0  0.25406  0.45218  0.36250  1.0000
  C   C39       1.0  0.14413  0.43361  0.30772  1.0000
  S   S16       1.0  0.49054  0.35057  0.20022  1.0000
  H   H65       1.0  0.16494  0.42840  0.37918  1.0000
  H   H66       1.0  0.43269  0.29197  0.24512  1.0000
  S   S17       1.0  0.38046  0.41729  0.32812  1.0000
  N   N4        1.0  0.49856  0.49084  0.33167  1.0000
  N   N5        1.0  0.42038  0.31763  0.28370  1.0000
  S   S18       1.0  0.33314  0.48048  0.34314  1.0000
  H   H67       1.0  0.40804  0.49088  0.40953  1.0000
  H   H68       1.0  0.47233  0.34610  0.04356  1.0000
  H   H69       1.0  0.49372  0.31112  0.31831  1.0000
  C   C40       1.0  0.21689  0.45398  0.34295  1.0000
  H   H70       1.0  0.19391  0.46583  0.35549  1.0000
  S   S19       1.0  0.30269  0.36235  0.33852  1.0000
  C   C41       1.0  0.48458  0.36410  0.11019  1.0000
  C   C42       1.0  0.50270  0.36733  0.24007  1.0000
  H   H71       1.0  0.49438  0.37806  0.13159  1.0000
  H   H72       1.0  0.42037  0.49805  0.30999  1.0000
  C   C43       1.0  0.51677  0.39192  0.30554  1.0000
  C   C44       1.0  0.47288  0.39527  0.27830  1.0000
  C   C45       1.0  0.46619  0.38327  0.24545  1.0000
  H   H73       1.0  0.50610  0.32507  0.07638  1.0000
  H   H74       1.0  0.41230  0.33509  0.23297  1.0000
  H   H75       1.0  0.44439  0.40737  0.28229  1.0000
  C   C46       1.0  0.21484  0.34341  0.34369  1.0000
  H   H76       1.0  0.48109  0.34683  0.12375  1.0000
  H   H77       1.0  0.11933  0.44462  0.31988  1.0000
  C   C47       1.0  0.18871  0.41789  0.36556  1.0000
  H   H78       1.0  0.54033  0.51242  0.37553  1.0000
  H   H79       1.0  0.52156  0.41734  0.46242  1.0000
  H   H80       1.0  0.14391  0.33006  0.34690  1.0000
  S   S20       1.0  0.52366  0.29761  0.14916  1.0000
  H   H81       1.0  0.21140  0.33601  0.31726  1.0000
  H   H82       1.0  0.14654  0.44294  0.28286  1.0000
  H   H83       1.0  0.43213  0.38591  0.22446  1.0000
  H   H84       1.0  0.22544  0.41516  0.38534  1.0000
  H   H85       1.0  0.17178  0.39980  0.35910  1.0000
  H   H86       1.0  0.10097  0.32078  0.47329  1.0000
  N   N6        1.0  0.19374  0.43025  0.33301  1.0000
  H   H87       1.0  0.12572  0.41601  0.29969  1.0000
  C   C48       1.0  0.50881  0.34259  0.06324  1.0000
  C   C49       1.0  0.17662  0.34005  0.36041  1.0000
  H   H88       1.0  0.14087  0.34496  0.49297  1.0000
  H   H89       1.0  0.22990  0.42420  0.29114  1.0000
  C   C50       1.0  0.50204  0.50569  0.36400  1.0000
  H   H90       1.0  0.53697  0.34022  0.04790  1.0000
  H   H91       1.0  0.37647  0.28768  0.25804  1.0000
  H   H92       1.0  0.22259  0.46363  0.31924  1.0000
  Fe  Fe8       1.0  0.37152  0.44604  0.36681  1.0000
  C   C51       1.0  0.41932  0.52923  0.40948  1.0000
  H   H93       1.0  0.53477  0.40027  0.09088  1.0000
  C   C52       1.0  0.39686  0.50756  0.39520  1.0000
  Fe  Fe9       1.0  0.45616  0.41172  0.36532  1.0000
  S   S21       1.0  0.52534  0.40649  0.34706  1.0000
  H   H94       1.0  0.52966  0.45764  0.31774  1.0000
  C   C53       1.0  0.19739  0.30856  0.48144  1.0000
  C   C54       1.0  0.39710  0.31868  0.31372  1.0000
  C   C55       1.0  0.47344  0.32375  0.29700  1.0000
  H   H95       1.0  0.10823  0.32878  0.51934  1.0000
  C   C56       1.0  0.49859  0.42269  0.51073  1.0000
  N   N7        1.0  0.52234  0.36216  0.08995  1.0000
  H   H96       1.0  0.49181  0.49521  0.38534  1.0000
  C   C57       1.0  0.12827  0.32676  0.49833  1.0000
  H   H97       1.0  0.22941  0.29578  0.48871  1.0000
  C   C58       1.0  0.26110  0.36618  0.39496  1.0000
  C   C59       1.0  0.18033  0.35014  0.39416  1.0000
  C   C60       1.0  0.25686  0.35674  0.36078  1.0000
  H   H98       1.0  0.26286  0.41257  0.33403  1.0000
  C   C61       1.0  0.39517  0.33507  0.25581  1.0000
  S   S22       1.0  0.43227  0.38368  0.39854  1.0000
  S   S23       1.0  0.33959  0.42102  0.39977  1.0000
  Fe  Fe10      1.0  0.41870  0.41509  0.43139  1.0000
  S   S24       1.0  0.43694  0.41441  0.49141  1.0000
  C   C62       1.0  0.22515  0.41547  0.31578  1.0000
  C   C63       1.0  0.53305  0.42223  0.49046  1.0000
  H   H99       1.0  0.22595  0.37074  0.43771  1.0000
  H   H100      1.0  0.35518  0.33083  0.24483  1.0000
  H   H101      1.0  0.44285  0.47121  0.29292  1.0000
  H   H102      1.0  0.29388  0.37594  0.40872  1.0000
  H   H103      1.0  0.20920  0.39729  0.30829  1.0000
  S   S25       1.0  0.44961  0.44262  0.40140  1.0000
  S   S26       1.0  0.13206  0.34774  0.41495  1.0000
  Fe  Fe11      1.0  0.35554  0.39172  0.36421  1.0000
  H   H104      1.0  0.35680  0.31459  0.30462  1.0000
  H   H105      1.0  0.48842  0.38973  0.05218  1.0000
  H   H106      1.0  0.44728  0.36868  0.09238  1.0000
  Fe  Fe12      1.0  0.54127  0.31877  0.20024  1.0000
  H   H107      1.0  0.43485  0.47169  0.33720  1.0000
  H   H108      1.0  0.40023  0.33699  0.32605  1.0000
  H   H109      1.0  0.39737  0.35372  0.26675  1.0000
  Fe  Fe13      1.0  0.07188  0.32112  0.39114  1.0000
  C   C64       1.0  0.41594  0.29312  0.26816  1.0000
  H   H110      1.0  0.52312  0.45862  0.36236  1.0000
  H   H111      1.0  0.49223  0.32289  0.27507  1.0000
  C   C65       1.0  0.44698  0.48261  0.31722  1.0000
  H   H112      1.0  0.44806  0.52904  0.43457  1.0000
  N   N8        1.0  0.17028  0.30954  0.50932  1.0000
  H   H113      1.0  0.47662  0.52166  0.35790  1.0000
  H   H114      1.0  0.21165  0.32659  0.47696  1.0000
  H   H115      1.0  0.47836  0.34228  0.30841  1.0000
  C   C66       1.0  0.53223  0.46972  0.34119  1.0000
  C   C67       1.0  0.55418  0.37672  0.29964  1.0000
  H   H116      1.0  0.17270  0.30271  0.45520  1.0000
  C   C68       1.0  0.54693  0.36418  0.26708  1.0000
  S   S27       1.0  0.54718  0.28624  0.23538  1.0000
  C   C69       1.0  0.52471  0.38513  0.07143  1.0000
  H   H117      1.0  0.51078  0.49468  0.27954  1.0000
  C   C70       1.0  0.51290  0.50537  0.30428  1.0000
  H   H118      1.0  0.41496  0.30569  0.33526  1.0000
  H   H119      1.0  0.31612  0.52968  0.31978  1.0000
  C   C71       1.0  0.34486  0.52948  0.34488  1.0000
  H   H120      1.0  0.55157  0.51199  0.31432  1.0000
  C   C72       1.0  0.15135  0.28536  0.51385  1.0000
  H   H121      1.0  0.55304  0.38419  0.05602  1.0000
  H   H122      1.0  0.48714  0.42953  0.56268  1.0000
  H   H123      1.0  0.40700  0.35948  0.71200  1.0000
  H   H124      1.0  0.23612  0.30493  0.55285  1.0000
  C   C73       1.0  0.41602  0.34572  0.77985  1.0000
  H   H125      1.0  0.44754  0.31960  0.73244  1.0000
  H   H126      1.0  0.42103  0.38516  0.74126  1.0000
  S   S28       1.0  0.06511  0.30956  0.61363  1.0000
  C   C74       1.0  0.35967  0.28752  0.78153  1.0000
  H   H127      1.0  0.51037  0.35700  0.55110  1.0000
  C   C75       1.0  0.49629  0.36446  0.79087  1.0000
  H   H128      1.0  0.42936  0.33322  0.80286  1.0000
  H   H129      1.0  0.52708  0.36990  0.77947  1.0000
  C   C76       1.0  0.20397  0.31751  0.54367  1.0000
  S   S29       1.0  0.50155  0.31322  0.86437  1.0000
  S   S30       1.0  0.20336  0.30858  0.78802  1.0000
  H   H130      1.0  0.51300  0.35257  0.81418  1.0000
  Fe  Fe14      1.0  0.13524  0.29644  0.74549  1.0000
  C   C77       1.0  0.35216  0.29671  0.81335  1.0000
  H   H131      1.0  0.46661  0.37357  0.72036  1.0000
  H   H132      1.0  0.39985  0.36186  0.78977  1.0000
  H   H133      1.0  0.50633  0.33415  0.73822  1.0000
  H   H134      1.0  0.38544  0.33631  0.76018  1.0000
  H   H135      1.0  0.48222  0.38096  0.80142  1.0000
  C   C78       1.0  0.51394  0.42879  0.54712  1.0000
  C   C79       1.0  0.47691  0.33001  0.75161  1.0000
  H   H136      1.0  0.49359  0.31778  0.77449  1.0000
  C   C80       1.0  0.43688  0.36832  0.73296  1.0000
  N   N9        1.0  0.45652  0.35213  0.76385  1.0000
  C   C81       1.0  0.26318  0.30039  0.78488  1.0000
  H   H137      1.0  0.29849  0.31059  0.83949  1.0000
  C   C82       1.0  0.30406  0.30328  0.81490  1.0000
  H   H138      1.0  0.52217  0.33717  0.58914  1.0000
  H   H139      1.0  0.18438  0.31836  0.56521  1.0000
  H   H140      1.0  0.53544  0.39062  0.59229  1.0000
  H   H141      1.0  0.55215  0.37177  0.63122  1.0000
  H   H142      1.0  0.38339  0.29896  0.83665  1.0000
  C   C83       1.0  0.53949  0.34576  0.56965  1.0000
  C   C84       1.0  0.27072  0.29100  0.75320  1.0000
  H   H143      1.0  0.21867  0.33577  0.54121  1.0000
  H   H144      1.0  0.55058  0.33125  0.55338  1.0000
  H   H145      1.0  0.23962  0.28891  0.72983  1.0000
  S   S31       1.0  0.07642  0.32025  0.71054  1.0000
  Fe  Fe15      1.0  0.07361  0.29226  0.66778  1.0000
  C   C85       1.0  0.31885  0.28471  0.75151  1.0000
  C   C86       1.0  0.53735  0.28971  0.99894  1.0000
  Fe  Fe16      1.0  0.52501  0.28565  0.90797  1.0000
  S   S32       1.0  0.49558  0.28530  0.95667  1.0000
  H   H146      1.0  0.13161  0.28535  0.53524  1.0000
  H   H147      1.0  0.29335  0.68823  0.46920  1.0000
  H   H148      1.0  0.50587  0.70993  0.21573  1.0000
  S   S33       1.0  0.34534  0.62324  0.33544  1.0000
  H   H149      1.0  0.40317  0.76430  0.18563  1.0000
  H   H150      1.0  0.26030  0.69203  0.32840  1.0000
  H   H151      1.0  0.34333  0.75054  0.47880  1.0000
  H   H152      1.0  0.22460  0.73286  0.31362  1.0000
  S   S34       1.0  0.40543  0.66416  0.27741  1.0000
  C   C87       1.0  0.39831  0.75221  0.20724  1.0000
  N   N10       1.0  0.40813  0.76494  0.24200  1.0000
  C   C88       1.0  0.08069  0.70676  0.24827  1.0000
  S   S35       1.0  0.51172  0.75422  0.17043  1.0000
  H   H153      1.0  0.48456  0.68517  0.33370  1.0000
  C   C89       1.0  0.53419  0.71292  0.27301  1.0000
  C   C90       1.0  0.36716  0.55119  0.35925  1.0000
  H   H154      1.0  0.43669  0.68315  0.21866  1.0000
  S   S36       1.0  0.14223  0.75722  0.32741  1.0000
  Fe  Fe17      1.0  0.39618  0.65370  0.33147  1.0000
  C   C91       1.0  0.20743  0.68183  0.35677  1.0000
  S   S37       1.0  0.45717  0.64208  0.37942  1.0000
  C   C92       1.0  0.48911  0.69054  0.30797  1.0000
  C   C93       1.0  0.45592  0.68243  0.27638  1.0000
  C   C94       1.0  0.46209  0.68953  0.24315  1.0000
  C   C95       1.0  0.50107  0.70477  0.24146  1.0000
  C   C96       1.0  0.22851  0.69765  0.33729  1.0000
  C   C97       1.0  0.20796  0.72070  0.32870  1.0000
  C   C98       1.0  0.16600  0.72810  0.33930  1.0000
  C   C99       1.0  0.54439  0.67179  0.46077  1.0000
  C   C100      1.0  0.40120  0.74821  0.26979  1.0000
  H   H155      1.0  0.35561  0.56796  0.34520  1.0000
  H   H156      1.0  0.28551  0.68664  0.42181  1.0000
  H   H157      1.0  0.36309  0.74070  0.26267  1.0000
  C   C101      1.0  0.53171  0.68829  0.51557  1.0000
  H   H158      1.0  0.08073  0.68771  0.25713  1.0000
  H   H159      1.0  0.35984  0.74520  0.19882  1.0000
  H   H160      1.0  0.50890  0.62097  0.46410  1.0000
  H   H161      1.0  0.25744  0.75073  0.43778  1.0000
  H   H162      1.0  0.33002  0.74825  0.41285  1.0000
  H   H163      1.0  0.49529  0.63495  0.50226  1.0000
  Fe  Fe18      1.0  0.07343  0.77345  0.33876  1.0000
  C   C102      1.0  0.52832  0.70566  0.30626  1.0000
  Fe  Fe19      1.0  0.41821  0.66591  0.41032  1.0000
  H   H164      1.0  0.32835  0.72526  0.50260  1.0000
  S   S38       1.0  0.45142  0.69018  0.45699  1.0000
  S   S39       1.0  0.43553  0.57770  0.40942  1.0000
  S   S40       1.0  0.36927  0.63690  0.42066  1.0000
  C   C103      1.0  0.40469  0.55110  0.39150  1.0000
  H   H165      1.0  0.11183  0.71780  0.36665  1.0000
  S   S41       1.0  0.36182  0.68011  0.36196  1.0000
  C   C104      1.0  0.14415  0.71219  0.35828  1.0000
  H   H166      1.0  0.45801  0.61050  0.47940  1.0000
  C   C105      1.0  0.16486  0.68902  0.36692  1.0000
  Fe  Fe20      1.0  0.40370  0.61371  0.38616  1.0000
  H   H167      1.0  0.08857  0.70680  0.22163  1.0000
  H   H168      1.0  0.14837  0.67680  0.38198  1.0000
  C   C106      1.0  0.51344  0.68311  0.47901  1.0000
  H   H169      1.0  0.42407  0.73662  0.20862  1.0000
  H   H170      1.0  0.11230  0.71577  0.26756  1.0000
  H   H171      1.0  0.30561  0.72134  0.38918  1.0000
  H   H172      1.0  0.34662  0.68654  0.45176  1.0000
  Fe  Fe21      1.0  0.31535  0.64907  0.36956  1.0000
  N   N11       1.0  0.30948  0.72102  0.44532  1.0000
  C   C107      1.0  0.25849  0.73072  0.43969  1.0000
  H   H173      1.0  0.40766  0.75723  0.29632  1.0000
  C   C108      1.0  0.32902  0.72832  0.41514  1.0000
  C   C109      1.0  0.30870  0.69447  0.44716  1.0000
  C   C110      1.0  0.45969  0.77372  0.25218  1.0000
  H   H174      1.0  0.23330  0.72374  0.41438  1.0000
  H   H175      1.0  0.38059  0.72350  0.48400  1.0000
  H   H176      1.0  0.24244  0.72562  0.46194  1.0000
  S   S42       1.0  0.23476  0.65338  0.36954  1.0000
  C   C111      1.0  0.34181  0.73053  0.47919  1.0000
  H   H177      1.0  0.36746  0.72126  0.41850  1.0000
  C   C112      1.0  0.44527  0.78030  0.07437  1.0000
  H   H178      1.0  0.53090  0.66821  0.43241  1.0000
  H   H179      1.0  0.48686  0.75870  0.25378  1.0000
  H   H180      1.0  0.42757  0.73267  0.27330  1.0000
  C   C113      1.0  0.53015  0.57691  0.49318  1.0000
  C   C114      1.0  0.49661  0.61736  0.48864  1.0000
  H   H181      1.0  0.55389  0.71189  0.33077  1.0000
  H   H182      1.0  0.41874  0.76586  0.06235  1.0000
  H   H183      1.0  0.49234  0.56903  0.48485  1.0000
  H   H184      1.0  0.48289  0.77373  0.07437  1.0000
  N   N12       1.0  0.53005  0.59991  0.51251  1.0000
  H   H185      1.0  0.06665  0.75402  0.25534  1.0000
  H   H186      1.0  0.33413  0.77975  0.23112  1.0000
  H   H187      1.0  0.54202  0.57951  0.46822  1.0000
  H   H188      1.0  0.55553  0.56337  0.51008  1.0000
  S   S43       1.0  0.07180  0.75438  0.65901  1.0000
  Fe  Fe22      1.0  0.10840  0.77107  0.71280  1.0000
  H   H189      1.0  0.35019  0.76431  0.81968  1.0000
  N   N13       1.0  0.54717  0.62001  0.72018  1.0000
  C   C115      1.0  0.52119  0.63334  0.74302  1.0000
  C   C116      1.0  0.27326  0.75959  0.79010  1.0000
  S   S44       1.0  0.47092  0.76290  0.86350  1.0000
  S   S45       1.0  0.17407  0.75501  0.75474  1.0000
  C   C117      1.0  0.23371  0.76782  0.76174  1.0000
  S   S46       1.0  0.51232  0.77622  0.79290  1.0000
  Fe  Fe23      1.0  0.52977  0.74939  0.83768  1.0000
  H   H190      1.0  0.53055  0.72755  0.01311  1.0000
  H   H191      1.0  0.52327  0.62353  0.76838  1.0000
  H   H192      1.0  0.52562  0.75217  0.95866  1.0000
  C   C118      1.0  0.54024  0.75989  0.98505  1.0000
  H   H193      1.0  0.51392  0.72627  0.69912  1.0000
  H   H194      1.0  0.49990  0.73049  0.75917  1.0000
  H   H195      1.0  0.48396  0.59859  0.69460  1.0000
  H   H196      1.0  0.52470  0.58532  0.73417  1.0000
  H   H197      1.0  0.53745  0.58295  0.56357  1.0000
  H   H198      1.0  0.26761  0.74472  0.80644  1.0000
  H   H199      1.0  0.48128  0.63636  0.72901  1.0000
  C   C119      1.0  0.53013  0.71929  0.75573  1.0000
  C   C120      1.0  0.54306  0.74599  0.01589  1.0000
  C   C121      1.0  0.32007  0.77067  0.79766  1.0000
  C   C122      1.0  0.52350  0.59642  0.71010  1.0000
  H   H200      1.0  0.54278  0.58590  0.69310  1.0000
  H   H201      1.0  0.50531  0.63809  0.67225  1.0000
  H   H202      1.0  0.50803  0.69718  0.52976  1.0000
  C   C123      1.0  0.51258  0.59581  0.54475  1.0000
  H   H203      1.0  0.51180  0.61289  0.55978  1.0000
  H   H204      1.0  0.53763  0.65142  0.75050  1.0000
  C   C124      1.0  0.53773  0.71663  0.72162  1.0000
  C   C125      1.0  0.54437  0.63408  0.68739  1.0000
  H   H205      1.0  0.47444  0.58833  0.53753  1.0000
  S   S47       1.0  0.55264  0.71124  0.82817  1.0000
  Fe  Fe24      1.0  0.51411  0.79444  0.17601  1.0000
  S   S48       1.0  0.43561  0.80903  0.16321  1.0000
  N   N14       1.0  0.36043  0.97989  0.26324  1.0000
  C   C126      1.0  0.33819  0.98617  0.22524  1.0000
  Fe  Fe25      1.0  0.28885  0.92270  0.17460  1.0000
  S   S49       1.0  0.25244  0.92676  0.21924  1.0000
  S   S50       1.0  0.37194  0.91624  0.18877  1.0000
  Fe  Fe26      1.0  0.19172  0.93287  0.11737  1.0000
  S   S51       1.0  0.14757  0.93745  0.15758  1.0000
  S   S52       1.0  0.16099  0.93439  0.05745  1.0000
  Fe  Fe27      1.0  0.21341  0.95882  0.18827  1.0000
  S   S53       1.0  0.20627  0.99286  0.21894  1.0000
  Fe  Fe28      1.0  0.19077  0.90519  0.18457  1.0000
  S   S54       1.0  0.16262  0.87065  0.20171  1.0000
  S   S55       1.0  0.25454  0.95641  0.14602  1.0000
  S   S56       1.0  0.22975  0.89893  0.14168  1.0000
  H   H206      1.0  0.07342  0.89905  0.16767  1.0000
  C   C127      1.0  0.05751  0.79783  0.48262  1.0000
  C   C128      1.0  0.47038  0.82142  0.07065  1.0000
  C   C129      1.0  0.10055  0.84484  0.27644  1.0000
  H   H207      1.0  0.24285  0.00717  0.15852  1.0000
  C   C130      1.0  0.38346  0.81181  0.05662  1.0000
  H   H208      1.0  0.10488  0.87218  0.12788  1.0000
  H   H209      1.0  0.41766  0.99299  0.30796  1.0000
  C   C131      1.0  0.13206  0.86951  0.23589  1.0000
  H   H210      1.0  0.06417  0.85468  0.17112  1.0000
  H   H211      1.0  0.35423  0.79841  0.04512  1.0000
  C   C132      1.0  0.23552  0.02317  0.17222  1.0000
  H   H212      1.0  0.44501  0.78234  0.10286  1.0000
  H   H213      1.0  0.11233  0.90719  0.23470  1.0000
  C   C133      1.0  0.08060  0.88736  0.27096  1.0000
  H   H214      1.0  0.12080  0.81111  0.52297  1.0000
  H   H215      1.0  0.47203  0.82464  0.09939  1.0000
  C   C134      1.0  0.42008  0.83884  0.17186  1.0000
  C   C135      1.0  0.45580  0.85674  0.18253  1.0000
  C   C136      1.0  0.44093  0.88049  0.18792  1.0000
  C   C137      1.0  0.39049  0.88632  0.18288  1.0000
  C   C138      1.0  0.35525  0.86819  0.17298  1.0000
  C   C139      1.0  0.36991  0.84464  0.16720  1.0000
  H   H216      1.0  0.49465  0.85241  0.18621  1.0000
  H   H217      1.0  0.46847  0.89441  0.19573  1.0000
  H   H218      1.0  0.31658  0.87226  0.16981  1.0000
  H   H219      1.0  0.34207  0.83089  0.15908  1.0000
  H   H220      1.0  0.50807  0.81559  0.06936  1.0000
  H   H221      1.0  0.46897  0.78283  0.27873  1.0000
  H   H222      1.0  0.30338  0.99906  0.28029  1.0000
  H   H223      1.0  0.38305  0.81512  0.08497  1.0000
  H   H224      1.0  0.39902  0.94982  0.29384  1.0000
  H   H225      1.0  0.38467  0.01595  0.27797  1.0000
  C   C140      1.0  0.37346  0.78565  0.23872  1.0000
  C   C141      1.0  0.06513  0.93566  0.06262  1.0000
  C   C142      1.0  0.21627  0.02124  0.20185  1.0000
  C   C143      1.0  0.39985  0.99723  0.27928  1.0000
  H   H226      1.0  0.06201  0.90292  0.27845  1.0000
  H   H227      1.0  0.38006  0.79584  0.26435  1.0000
  C   C144      1.0  0.12784  0.84711  0.25117  1.0000
  C   C145      1.0  0.09737  0.92880  0.04223  1.0000
  C   C146      1.0  0.10904  0.88979  0.24619  1.0000
  H   H228      1.0  0.07188  0.80279  0.46041  1.0000
  H   H229      1.0  0.37783  0.79856  0.21782  1.0000
  H   H230      1.0  0.07941  0.94453  0.08810  1.0000
  N   N15       1.0  0.43282  0.80321  0.05454  1.0000
  C   C147      1.0  0.32161  0.98095  0.28265  1.0000
  H   H231      1.0  0.37275  0.82904  0.04182  1.0000
  H   H232      1.0  0.14596  0.83142  0.24360  1.0000
  C   C148      1.0  0.38191  0.95529  0.26559  1.0000
  H   H233      1.0  0.42940  0.99701  0.26494  1.0000
  H   H234      1.0  0.29152  0.96785  0.27145  1.0000
  H   H235      1.0  0.46199  0.83901  0.05654  1.0000
  H   H236      1.0  0.30663  0.97423  0.21310  1.0000
  H   H237      1.0  0.32326  0.00495  0.22229  1.0000
  S   S57       1.0  0.07490  0.80388  0.37762  1.0000
  C   C149      1.0  0.08511  0.80253  0.51805  1.0000
  H   H238      1.0  0.06242  0.85610  0.09255  1.0000
  H   H239      1.0  0.33691  0.97676  0.31160  1.0000
  H   H240      1.0  0.35322  0.94176  0.25350  1.0000
  C   C150      1.0  0.07579  0.86478  0.28583  1.0000
  H   H241      1.0  0.41081  0.95371  0.25072  1.0000
  H   H242      1.0  0.09909  0.82764  0.28883  1.0000
  H   H243      1.0  0.36542  0.98429  0.20906  1.0000
  C   C151      1.0  0.06763  0.87315  0.10819  1.0000
  H   H244      1.0  0.46587  0.78686  0.23228  1.0000
  H   H245      1.0  0.06871  0.88806  0.08933  1.0000
  C   C152      1.0  0.09823  0.82107  0.80614  1.0000
  H   H246      1.0  0.17513  0.82159  0.86490  1.0000
  H   H247      1.0  0.09052  0.87244  0.64259  1.0000
  Fe  Fe29      1.0  0.53024  0.78791  0.89448  1.0000
  C   C153      1.0  0.06677  0.79612  0.54704  1.0000
  H   H248      1.0  0.42419  0.81627  0.00088  1.0000
  H   H249      1.0  0.06100  0.88784  0.56369  1.0000
  S   S58       1.0  0.11397  0.80770  0.69068  1.0000
  C   C154      1.0  0.24166  0.78698  0.74072  1.0000
  C   C155      1.0  0.17237  0.83713  0.84637  1.0000
  H   H250      1.0  0.15081  0.85169  0.85543  1.0000
  H   H251      1.0  0.07292  0.97497  0.93609  1.0000
  H   H252      1.0  0.10327  0.91285  0.99276  1.0000
  S   S59       1.0  0.51249  0.81741  0.85330  1.0000
  C   C156      1.0  0.14516  0.85114  0.78513  1.0000
  C   C157      1.0  0.32732  0.79031  0.77719  1.0000
  S   S60       1.0  0.38363  0.80634  0.78718  1.0000
  Fe  Fe30      1.0  0.45732  0.79134  0.82050  1.0000
  H   H253      1.0  0.07129  0.84186  0.63434  1.0000
  S   S61       1.0  0.10134  0.80326  0.59095  1.0000
  H   H254      1.0  0.21681  0.81693  0.79941  1.0000
  H   H255      1.0  0.09923  0.80455  0.82250  1.0000
  H   H256      1.0  0.16135  0.80522  0.76976  1.0000
  H   H257      1.0  0.18158  0.79449  0.81476  1.0000
  H   H258      1.0  0.29334  0.81339  0.73257  1.0000
  H   H259      1.0  0.12911  0.84608  0.75652  1.0000
  C   C158      1.0  0.07836  0.91823  0.00854  1.0000
  N   N16       1.0  0.14858  0.83008  0.80893  1.0000
  H   H260      1.0  0.40404  0.78584  0.00347  1.0000
  Fe  Fe31      1.0  0.07314  0.79187  0.63777  1.0000
  H   H261      1.0  0.21230  0.79310  0.71825  1.0000
  H   H262      1.0  0.18232  0.85890  0.78731  1.0000
  C   C159      1.0  0.28791  0.79836  0.74873  1.0000
  C   C160      1.0  0.17846  0.81092  0.79788  1.0000
  H   H263      1.0  0.21067  0.84378  0.84943  1.0000
  H   H264      1.0  0.10325  0.85585  0.60582  1.0000
  H   H265      1.0  0.08374  0.99344  0.99581  1.0000
  C   C161      1.0  0.07520  0.85912  0.62105  1.0000
  H   H266      1.0  0.12069  0.86553  0.79139  1.0000
  H   H267      1.0  0.07878  0.81644  0.77795  1.0000
  H   H268      1.0  0.07484  0.83482  0.81514  1.0000
  S   S62       1.0  0.54953  0.80265  0.95113  1.0000
  H   H269      1.0  0.46881  0.79234  0.01437  1.0000
  C   C162      1.0  0.43230  0.79930  0.01665  1.0000
  C   C163      1.0  0.55549  0.78387  0.98856  1.0000
  Fe  Fe32      1.0  0.02055  0.27946  0.41489  1.0000
  S   S63       1.0  0.61762  0.26235  0.18760  1.0000
  S   S64       1.0  0.96940  0.27280  0.35973  1.0000
  H   H270      1.0  0.88163  0.27154  0.19363  1.0000
  S   S65       1.0  0.04765  0.26495  0.28803  1.0000
  Fe  Fe33      1.0  0.03671  0.27901  0.34007  1.0000
  H   H271      1.0  0.83234  0.24384  0.26439  1.0000
  H   H272      1.0  0.60703  0.24690  0.02776  1.0000
  H   H273      1.0  0.90573  0.20218  0.06230  1.0000
  H   H274      1.0  0.88590  0.15915  0.04800  1.0000
  N   N17       1.0  0.88409  0.26721  0.24916  1.0000
  H   H275      1.0  0.01359  0.18437  0.07485  1.0000
  C   C164      1.0  0.98244  0.17134  0.06780  1.0000
  H   H276      1.0  0.95304  0.21639  0.04625  1.0000
  S   S66       1.0  0.68722  0.27693  0.28660  1.0000
  H   H277      1.0  0.81864  0.27531  0.26605  1.0000
  H   H278      1.0  0.83882  0.24989  0.20216  1.0000
  H   H279      1.0  0.96649  0.17023  0.09112  1.0000
  H   H280      1.0  0.99896  0.15339  0.06464  1.0000
  H   H281      1.0  0.94510  0.24793  0.28426  1.0000
  C   C165      1.0  0.92367  0.20245  0.03994  1.0000
  C   C166      1.0  0.84946  0.26184  0.27085  1.0000
  N   N18       1.0  0.94457  0.17857  0.03473  1.0000
  H   H282      1.0  0.90803  0.23025  0.24826  1.0000
  C   C167      1.0  0.02985  0.27070  0.50545  1.0000
  H   H283      1.0  0.95055  0.25200  0.23971  1.0000
  H   H284      1.0  0.86859  0.26209  0.30005  1.0000
  H   H285      1.0  0.77626  0.27020  0.34338  1.0000
  H   H286      1.0  0.82658  0.28152  0.20528  1.0000
  C   C168      1.0  0.85661  0.26753  0.21080  1.0000
  S   S67       1.0  0.02408  0.25644  0.46372  1.0000
  C   C169      1.0  0.92352  0.24850  0.25553  1.0000
  C   C170      1.0  0.90451  0.16062  0.02612  1.0000
  S   S68       1.0  0.61885  0.21894  0.86564  1.0000
  H   H287      1.0  0.89512  0.20840  0.01528  1.0000
  H   H288      1.0  0.98268  0.16203  0.99944  1.0000
  Fe  Fe34      1.0  0.87830  0.11511  0.88519  1.0000
  S   S69       1.0  0.90834  0.13127  0.93989  1.0000
  S   S70       1.0  0.83276  0.08147  0.88299  1.0000
  Fe  Fe35      1.0  0.91901  0.15609  0.84907  1.0000
  S   S71       1.0  0.95369  0.17442  0.90135  1.0000
  S   S72       1.0  0.91064  0.17690  0.79786  1.0000
  Fe  Fe36      1.0  0.97687  0.13712  0.92175  1.0000
  H   H289      1.0  0.98953  0.23193  0.73270  1.0000
  Fe  Fe37      1.0  0.88165  0.16679  0.91397  1.0000
  S   S73       1.0  0.84699  0.19756  0.93778  1.0000
  S   S74       1.0  0.94838  0.11910  0.86810  1.0000
  S   S75       1.0  0.84558  0.15029  0.86082  1.0000
  H   H290      1.0  0.84971  0.20253  0.85429  1.0000
  H   H291      1.0  0.61885  0.20161  0.94070  1.0000
  C   C171      1.0  0.05319  0.26865  0.57094  1.0000
  H   H292      1.0  0.80264  0.19649  0.79207  1.0000
  C   C172      1.0  0.96783  0.17989  0.00483  1.0000
  C   C173      1.0  0.85854  0.05350  0.87532  1.0000
  C   C174      1.0  0.89691  0.05197  0.85856  1.0000
  H   H293      1.0  0.86515  0.25528  0.79998  1.0000
  H   H294      1.0  0.91178  0.06821  0.85043  1.0000
  H   H295      1.0  0.80056  0.26366  0.78694  1.0000
  H   H296      1.0  0.77697  0.22179  0.76393  1.0000
  C   C175      1.0  0.00738  0.17476  0.79253  1.0000
  C   C176      1.0  0.96202  0.18731  0.78431  1.0000
  C   C177      1.0  0.95599  0.20797  0.76281  1.0000
  C   C178      1.0  0.63564  0.21628  0.95965  1.0000
  H   H297      1.0  0.01208  0.15863  0.80872  1.0000
  H   H298      1.0  0.04810  0.23784  0.53587  1.0000
  H   H299      1.0  0.89350  0.21957  0.83861  1.0000
  C   C179      1.0  0.68270  0.21388  0.88518  1.0000
  C   C180      1.0  0.71325  0.23163  0.90514  1.0000
  C   C181      1.0  0.76356  0.22638  0.92164  1.0000
  C   C182      1.0  0.78373  0.20362  0.91749  1.0000
  C   C183      1.0  0.75323  0.18601  0.89732  1.0000
  C   C184      1.0  0.70285  0.19110  0.88143  1.0000
  H   H300      1.0  0.69808  0.24929  0.90806  1.0000
  H   H301      1.0  0.78703  0.24009  0.93725  1.0000
  H   H302      1.0  0.76815  0.16829  0.89443  1.0000
  H   H303      1.0  0.67934  0.17725  0.86620  1.0000
  H   H304      1.0  0.92102  0.21769  0.75609  1.0000
  Fe  Fe38      1.0  0.58099  0.25502  0.86650  1.0000
  H   H305      1.0  0.86554  0.23210  0.87164  1.0000
  C   C185      1.0  0.80928  0.21552  0.78575  1.0000
  C   C186      1.0  0.77157  0.23214  0.82984  1.0000
  H   H306      1.0  0.80948  0.03337  0.89834  1.0000
  C   C187      1.0  0.99480  0.21604  0.74940  1.0000
  C   C188      1.0  0.83047  0.25553  0.80894  1.0000
  H   H307      1.0  0.99874  0.19296  0.01060  1.0000
  H   H308      1.0  0.91911  0.14242  0.02186  1.0000
  N   N19       1.0  0.81741  0.23105  0.81785  1.0000
  H   H309      1.0  0.84224  0.21527  0.77486  1.0000
  N   N20       1.0  0.60561  0.22203  0.98473  1.0000
  C   C189      1.0  0.85837  0.22096  0.84687  1.0000
  H   H310      1.0  0.83667  0.26777  0.83254  1.0000
  H   H311      1.0  0.57987  0.20440  0.02550  1.0000
  S   S76       1.0  0.01461  0.27029  0.68174  1.0000
  H   H312      1.0  0.77651  0.24339  0.85437  1.0000
  H   H313      1.0  0.58495  0.18527  0.98904  1.0000
  H   H314      1.0  0.87559  0.16549  0.00105  1.0000
  H   H315      1.0  0.67409  0.21054  0.97396  1.0000
  C   C190      1.0  0.03942  0.20303  0.75636  1.0000
  H   H316      1.0  0.76052  0.21387  0.83630  1.0000
  H   H317      1.0  0.73984  0.23990  0.80887  1.0000
  C   C191      1.0  0.04580  0.18244  0.77813  1.0000
  H   H318      1.0  0.63842  0.23220  0.94297  1.0000
  H   H319      1.0  0.94092  0.18577  0.97957  1.0000
  H   H320      1.0  0.63184  0.25836  0.99306  1.0000
  C   C192      1.0  0.04364  0.25717  0.53727  1.0000
  S   S77       1.0  0.04968  0.12499  0.95917  1.0000
  C   C193      1.0  0.62898  0.24189  0.00865  1.0000
  H   H321      1.0  0.63990  0.19444  0.02232  1.0000
  S   S78       1.0  0.56176  0.27965  0.81889  1.0000
  C   C194      1.0  0.60246  0.20056  0.00637  1.0000
  C   C195      1.0  0.83909  0.03226  0.88527  1.0000
  H   H322      1.0  0.66709  0.23696  0.02474  1.0000
  Fe  Fe39      1.0  0.60563  0.29666  0.15617  1.0000
  C   C196      1.0  0.82726  0.29758  0.33693  1.0000
  S   S79       1.0  0.62264  0.32080  0.20461  1.0000
  Fe  Fe40      1.0  0.96072  0.31301  0.35717  1.0000
  S   S80       1.0  0.89116  0.33269  0.32690  1.0000
  H   H323      1.0  0.80063  0.34075  0.27239  1.0000
  H   H324      1.0  0.60983  0.42638  0.49124  1.0000
  C   C197      1.0  0.83424  0.31749  0.31692  1.0000
  C   C198      1.0  0.75021  0.31300  0.27831  1.0000
  C   C199      1.0  0.79549  0.32527  0.28782  1.0000
  C   C200      1.0  0.74309  0.29310  0.29827  1.0000
  H   H325      1.0  0.72081  0.31902  0.25566  1.0000
  S   S81       1.0  0.02535  0.31898  0.33464  1.0000
  C   C201      1.0  0.02382  0.29561  0.50756  1.0000
  Fe  Fe41      1.0  0.62806  0.28639  0.23584  1.0000
  H   H326      1.0  0.58839  0.37421  0.32058  1.0000
  H   H327      1.0  0.57541  0.35197  0.26306  1.0000
  C   C202      1.0  0.60141  0.29716  0.06766  1.0000
  H   H328      1.0  0.01205  0.30615  0.48346  1.0000
  S   S82       1.0  0.63955  0.30389  0.11053  1.0000
  H   H329      1.0  0.57096  0.33954  0.12930  1.0000
  H   H330      1.0  0.92694  0.29163  0.28834  1.0000
  H   H331      1.0  0.85681  0.29160  0.35962  1.0000
  C   C203      1.0  0.58302  0.42728  0.50681  1.0000
  S   S83       1.0  0.00612  0.31933  0.41371  1.0000
  H   H332      1.0  0.93386  0.29549  0.24423  1.0000
  H   H333      1.0  0.64851  0.31495  0.04016  1.0000
  H   H334      1.0  0.57164  0.47516  0.35161  1.0000
  H   H335      1.0  0.60082  0.35491  0.10070  1.0000
  C   C204      1.0  0.78164  0.28553  0.32774  1.0000
  H   H336      1.0  0.58274  0.37100  0.13580  1.0000
  C   C205      1.0  0.61425  0.30531  0.03716  1.0000
  C   C206      1.0  0.57134  0.35677  0.11499  1.0000
  H   H337      1.0  0.87803  0.30565  0.25493  1.0000
  C   C207      1.0  0.55724  0.28465  0.06362  1.0000
  C   C208      1.0  0.90663  0.29102  0.25945  1.0000
  S   S84       1.0  0.71970  0.39661  0.64670  1.0000
  H   H338      1.0  0.95357  0.35759  0.64244  1.0000
  S   S85       1.0  0.75180  0.45292  0.65514  1.0000
  S   S86       1.0  0.86334  0.41227  0.69180  1.0000
  Fe  Fe42      1.0  0.68676  0.43197  0.62409  1.0000
  S   S87       1.0  0.66231  0.43547  0.56411  1.0000
  C   C209      1.0  0.65510  0.51498  0.67585  1.0000
  H   H339      1.0  0.63527  0.38378  0.57416  1.0000
  C   C210      1.0  0.89281  0.31954  0.63757  1.0000
  Fe  Fe43      1.0  0.67919  0.40356  0.68869  1.0000
  H   H340      1.0  0.59770  0.33004  0.72402  1.0000
  H   H341      1.0  0.02962  0.32642  0.54226  1.0000
  H   H342      1.0  0.85050  0.46909  0.82001  1.0000
  S   S88       1.0  0.63412  0.37181  0.69761  1.0000
  H   H343      1.0  0.98867  0.32995  0.64992  1.0000
  H   H344      1.0  0.90261  0.50252  0.77937  1.0000
  N   N21       1.0  0.91807  0.32760  0.61079  1.0000
  H   H345      1.0  0.98409  0.34677  0.60989  1.0000
  H   H346      1.0  0.59684  0.39179  0.62206  1.0000
  H   H347      1.0  0.60554  0.33661  0.63344  1.0000
  H   H348      1.0  0.64067  0.49754  0.66602  1.0000
  C   C211      1.0  0.95624  0.35495  0.71842  1.0000
  H   H349      1.0  0.95916  0.29452  0.61159  1.0000
  C   C212      1.0  0.04911  0.29372  0.57276  1.0000
  H   H350      1.0  0.96020  0.39170  0.70178  1.0000
  C   C213      1.0  0.93665  0.37800  0.70800  1.0000
  S   S89       1.0  0.64229  0.43797  0.66383  1.0000
  H   H351      1.0  0.89968  0.29537  0.57906  1.0000
  H   H352      1.0  0.57588  0.38269  0.54187  1.0000
  H   H353      1.0  0.87262  0.35950  0.59730  1.0000
  Fe  Fe44      1.0  0.02084  0.29702  0.72626  1.0000
  C   C214      1.0  0.69562  0.51656  0.70613  1.0000
  H   H354      1.0  0.90241  0.34992  0.56379  1.0000
  H   H355      1.0  0.85288  0.32905  0.73114  1.0000
  H   H356      1.0  0.59197  0.30821  0.97936  1.0000
  C   C215      1.0  0.93236  0.30640  0.59244  1.0000
  C   C216      1.0  0.88675  0.38335  0.70545  1.0000
  C   C217      1.0  0.88424  0.34337  0.58421  1.0000
  C   C218      1.0  0.91438  0.48326  0.78322  1.0000
  H   H357      1.0  0.85004  0.33371  0.56977  1.0000
  C   C219      1.0  0.59873  0.43251  0.54351  1.0000
  H   H358      1.0  0.80172  0.46026  0.78161  1.0000
  C   C220      1.0  0.60404  0.37164  0.56133  1.0000
  C   C221      1.0  0.96297  0.34113  0.62903  1.0000
  Fe  Fe45      1.0  0.78096  0.41806  0.68186  1.0000
  H   H359      1.0  0.81619  0.45965  0.72205  1.0000
  H   H360      1.0  0.87478  0.46750  0.71555  1.0000
  Fe  Fe46      1.0  0.71109  0.45592  0.69738  1.0000
  C   C222      1.0  0.83465  0.47206  0.79077  1.0000
  H   H361      1.0  0.85923  0.30887  0.62502  1.0000
  H   H362      1.0  0.83472  0.49034  0.72671  1.0000
  S   S90       1.0  0.74395  0.42193  0.72621  1.0000
  C   C223      1.0  0.84858  0.47145  0.73203  1.0000
  H   H363      1.0  0.91775  0.30801  0.65852  1.0000
  H   H364      1.0  0.93274  0.48049  0.81223  1.0000
  C   C224      1.0  0.88857  0.44175  0.77589  1.0000
  H   H365      1.0  0.66181  0.38439  0.82745  1.0000
  H   H366      1.0  0.91600  0.43731  0.76056  1.0000
  H   H367      1.0  0.61855  0.35791  0.54566  1.0000
  C   C225      1.0  0.60867  0.33526  0.78077  1.0000
  C   C226      1.0  0.63296  0.36390  0.74134  1.0000
  C   C227      1.0  0.65138  0.37913  0.77062  1.0000
  H   H368      1.0  0.81801  0.36975  0.71201  1.0000
  C   C228      1.0  0.62648  0.35053  0.81006  1.0000
  C   C229      1.0  0.85652  0.36569  0.71378  1.0000
  C   C230      1.0  0.64798  0.37246  0.80490  1.0000
  H   H369      1.0  0.66773  0.39612  0.76683  1.0000
  H   H370      1.0  0.65306  0.35570  0.62690  1.0000
  C   C231      1.0  0.92611  0.33725  0.72676  1.0000
  H   H371      1.0  0.63374  0.33043  0.59759  1.0000
  S   S91       1.0  0.62032  0.34316  0.85291  1.0000
  H   H372      1.0  0.95073  0.31187  0.57160  1.0000
  S   S92       1.0  0.94894  0.30792  0.73823  1.0000
  H   H373      1.0  0.94271  0.48001  0.76826  1.0000
  N   N22       1.0  0.87161  0.46713  0.77054  1.0000
  C   C232      1.0  0.61165  0.34197  0.74653  1.0000
  H   H374      1.0  0.85712  0.42912  0.76620  1.0000
  C   C233      1.0  0.87633  0.34271  0.72469  1.0000
  H   H375      1.0  0.99474  0.35098  0.72035  1.0000
  H   H376      1.0  0.90612  0.43768  0.80463  1.0000
  C   C234      1.0  0.56404  0.43362  0.56356  1.0000
  S   S93       1.0  0.72266  0.49042  0.72944  1.0000
  H   H377      1.0  0.82035  0.49096  0.78674  1.0000
  C   C235      1.0  0.62031  0.34504  0.61245  1.0000
  H   H378      1.0  0.88092  0.33513  0.65153  1.0000
  N   N23       1.0  0.58249  0.36047  0.58819  1.0000
  C   C236      1.0  0.03357  0.30706  0.54102  1.0000
  C   C237      1.0  0.58231  0.30154  0.00278  1.0000
  H   H379      1.0  0.57580  0.43807  0.59170  1.0000
  H   H380      1.0  0.59253  0.31829  0.78439  1.0000
  Fe  Fe47      1.0  0.57951  0.30936  0.85952  1.0000
  C   C238      1.0  0.56594  0.37949  0.60930  1.0000
  S   S94       1.0  0.60493  0.28448  0.90713  1.0000
  S   S95       1.0  0.63280  0.75393  0.19061  1.0000
  C   C239      1.0  0.61103  0.66997  0.51595  1.0000
  C   C240      1.0  0.59328  0.66540  0.47917  1.0000
  H   H381      1.0  0.61700  0.65652  0.46500  1.0000
  H   H382      1.0  0.72855  0.77055  0.19218  1.0000
  H   H383      1.0  0.00058  0.75448  0.23581  1.0000
  Fe  Fe48      1.0  0.96174  0.77895  0.30414  1.0000
  H   H384      1.0  0.59518  0.61342  0.49995  1.0000
  H   H385      1.0  0.80958  0.74910  0.21075  1.0000
  N   N24       1.0  0.03314  0.71912  0.24699  1.0000
  H   H386      1.0  0.69531  0.77244  0.26276  1.0000
  H   H387      1.0  0.77399  0.76133  0.37255  1.0000
  H   H388      1.0  0.80355  0.77434  0.30448  1.0000
  H   H389      1.0  0.80944  0.69462  0.51839  1.0000
  C   C241      1.0  0.80585  0.76703  0.22079  1.0000
  S   S96       1.0  0.90263  0.76137  0.26001  1.0000
  C   C242      1.0  0.03558  0.74448  0.23629  1.0000
  S   S97       1.0  0.00677  0.75596  0.34900  1.0000
  C   C243      1.0  0.75968  0.77906  0.21057  1.0000
  Fe  Fe49      1.0  0.56978  0.75890  0.14080  1.0000
  H   H390      1.0  0.98822  0.72719  0.28270  1.0000
  C   C244      1.0  0.56132  0.75597  0.05023  1.0000
  H   H391      1.0  0.73273  0.72664  0.33506  1.0000
  S   S98       1.0  0.58229  0.73270  0.27163  1.0000
  H   H392      1.0  0.02311  0.69948  0.29229  1.0000
  Fe  Fe50      1.0  0.57438  0.75355  0.22048  1.0000
  H   H393      1.0  0.95575  0.71622  0.21951  1.0000
  H   H394      1.0  0.71622  0.77795  0.36147  1.0000
  C   C245      1.0  0.84675  0.77789  0.24455  1.0000
  S   S99       1.0  0.56090  0.73890  0.08849  1.0000
  N   N25       1.0  0.73666  0.76279  0.31626  1.0000
  C   C246      1.0  0.99199  0.70710  0.22082  1.0000
  C   C247      1.0  0.74990  0.77366  0.35244  1.0000
  H   H395      1.0  0.98883  0.68796  0.22824  1.0000
  C   C248      1.0  0.02417  0.71829  0.28282  1.0000
  H   H396      1.0  0.99733  0.70741  0.19339  1.0000
  H   H397      1.0  0.04166  0.74591  0.20918  1.0000
  C   C249      1.0  0.58090  0.60955  0.52352  1.0000
  H   H398      1.0  0.67522  0.74334  0.32543  1.0000
  C   C250      1.0  0.70954  0.74017  0.31666  1.0000
  H   H399      1.0  0.69764  0.73194  0.28942  1.0000
  H   H400      1.0  0.76676  0.67217  0.52455  1.0000
  H   H401      1.0  0.95704  0.77210  0.50017  1.0000
  C   C251      1.0  0.78241  0.75761  0.30533  1.0000
  H   H402      1.0  0.77387  0.74933  0.27817  1.0000
  H   H403      1.0  0.80772  0.74503  0.32421  1.0000
  C   C252      1.0  0.70477  0.77975  0.29054  1.0000
  C   C253      1.0  0.57764  0.77975  0.05354  1.0000
  H   H404      1.0  0.05396  0.72770  0.30302  1.0000
  S   S100      1.0  0.97497  0.78096  0.43214  1.0000
  C   C254      1.0  0.99283  0.78059  0.50512  1.0000
  Fe  Fe51      1.0  0.63953  0.67311  0.66159  1.0000
  S   S101      1.0  0.72379  0.62685  0.63030  1.0000
  N   N26       1.0  0.81523  0.68583  0.57334  1.0000
  S   S102      1.0  0.70080  0.68492  0.63849  1.0000
  Fe  Fe52      1.0  0.67538  0.65571  0.59812  1.0000
  C   C255      1.0  0.63218  0.53605  0.65884  1.0000
  H   H405      1.0  0.87566  0.69921  0.61542  1.0000
  C   C256      1.0  0.65058  0.55877  0.67127  1.0000
  S   S103      1.0  0.60974  0.64670  0.61756  1.0000
  H   H406      1.0  0.78539  0.71016  0.60566  1.0000
  H   H407      1.0  0.74803  0.76473  0.79419  1.0000
  C   C257      1.0  0.82585  0.70759  0.68056  1.0000
  H   H408      1.0  0.61068  0.75944  0.76794  1.0000
  S   S104      1.0  0.67021  0.65949  0.53953  1.0000
  Fe  Fe53      1.0  0.99990  0.76613  0.67027  1.0000
  H   H409      1.0  0.56344  0.65162  0.69380  1.0000
  H   H410      1.0  0.62053  0.60639  0.72333  1.0000
  H   H411      1.0  0.89432  0.68157  0.58259  1.0000
  S   S105      1.0  0.58982  0.77160  0.87286  1.0000
  S   S106      1.0  0.68494  0.64569  0.69916  1.0000
  C   C258      1.0  0.80528  0.67898  0.53517  1.0000
  C   C259      1.0  0.77941  0.70476  0.57718  1.0000
  H   H412      1.0  0.74527  0.54062  0.74212  1.0000
  H   H413      1.0  0.81564  0.66916  0.62347  1.0000
  C   C260      1.0  0.71395  0.53930  0.71869  1.0000
  H   H414      1.0  0.66510  0.72711  0.72489  1.0000
  C   C261      1.0  0.85432  0.68729  0.69457  1.0000
  H   H415      1.0  0.59396  0.68545  0.56240  1.0000
  H   H416      1.0  0.66419  0.76514  0.80437  1.0000
  Fe  Fe54      1.0  0.65971  0.61978  0.65316  1.0000
  S   S107      1.0  0.92295  0.75039  0.65128  1.0000
  H   H417      1.0  0.60013  0.53469  0.63592  1.0000
  C   C262      1.0  0.89952  0.72782  0.67376  1.0000
  C   C263      1.0  0.84826  0.72764  0.66989  1.0000
  H   H418      1.0  0.83700  0.65008  0.59320  1.0000
  H   H419      1.0  0.82557  0.74285  0.65754  1.0000
  C   C264      1.0  0.90603  0.68789  0.70024  1.0000
  Fe  Fe55      1.0  0.74486  0.65556  0.67282  1.0000
  S   S108      1.0  0.61885  0.58474  0.65051  1.0000
  H   H420      1.0  0.78645  0.70777  0.67747  1.0000
  H   H421      1.0  0.61997  0.75036  0.70777  1.0000
  H   H422      1.0  0.87139  0.71188  0.57237  1.0000
  C   C265      1.0  0.58029  0.68154  0.53410  1.0000
  C   C266      1.0  0.86632  0.69501  0.58634  1.0000
  S   S109      1.0  0.82559  0.66053  0.70266  1.0000
  H   H423      1.0  0.78289  0.72124  0.56186  1.0000
  H   H424      1.0  0.61872  0.63355  0.74844  1.0000
  H   H425      1.0  0.56226  0.62423  0.66907  1.0000
  H   H426      1.0  0.70626  0.57783  0.71084  1.0000
  C   C267      1.0  0.73240  0.75451  0.76895  1.0000
  C   C268      1.0  0.60622  0.68913  0.74572  1.0000
  C   C269      1.0  0.59834  0.69168  0.77993  1.0000
  N   N27       1.0  0.67951  0.76075  0.75312  1.0000
  H   H427      1.0  0.77198  0.65683  0.58499  1.0000
  H   H428      1.0  0.63629  0.67790  0.74213  1.0000
  H   H429      1.0  0.00611  0.78018  0.56273  1.0000
  H   H430      1.0  0.62216  0.68225  0.80264  1.0000
  C   C270      1.0  0.92869  0.70815  0.68989  1.0000
  H   H431      1.0  0.92841  0.67231  0.71138  1.0000
  H   H432      1.0  0.65351  0.73542  0.78572  1.0000
  H   H433      1.0  0.96820  0.70800  0.69259  1.0000
  C   C271      1.0  0.69193  0.56038  0.70100  1.0000
  C   C272      1.0  0.65082  0.75490  0.77889  1.0000
  C   C273      1.0  0.80974  0.66453  0.59464  1.0000
  H   H434      1.0  0.67995  0.75121  0.69924  1.0000
  H   H435      1.0  0.75514  0.75869  0.75020  1.0000
  C   C274      1.0  0.66032  0.74680  0.71980  1.0000
  S   S110      1.0  0.58500  0.69976  0.67346  1.0000
  C   C275      1.0  0.57577  0.70163  0.71651  1.0000
  C   C276      1.0  0.56067  0.70708  0.78506  1.0000
  H   H436      1.0  0.74044  0.69846  0.56739  1.0000
  H   H437      1.0  0.60736  0.59677  0.54125  1.0000
  H   H438      1.0  0.73746  0.73498  0.77552  1.0000
  H   H439      1.0  0.83118  0.66449  0.53128  1.0000
  H   H440      1.0  0.60334  0.60529  0.76471  1.0000
  C   C277      1.0  0.59975  0.61615  0.74006  1.0000
  S   S111      1.0  0.03608  0.77952  0.72598  1.0000
  H   H441      1.0  0.58213  0.62667  0.53872  1.0000
  H   H442      1.0  0.94853  0.88164  0.11193  1.0000
  H   H443      1.0  0.02003  0.83937  0.13611  1.0000
  C   C278      1.0  0.97931  0.87858  0.09918  1.0000
  C   C279      1.0  0.01124  0.78686  0.47608  1.0000
  Fe  Fe56      1.0  0.62759  0.79404  0.19523  1.0000
  S   S112      1.0  0.69586  0.81685  0.21409  1.0000
  H   H444      1.0  0.99933  0.85946  0.16591  1.0000
  H   H445      1.0  0.97804  0.89364  0.08009  1.0000
  S   S113      1.0  0.57285  0.79350  0.22836  1.0000
  S   S114      1.0  0.56832  0.79923  0.14331  1.0000
  C   C280      1.0  0.75421  0.80211  0.22383  1.0000
  C   C281      1.0  0.03698  0.89970  0.14706  1.0000
  C   C282      1.0  0.84171  0.80125  0.25686  1.0000
  C   C283      1.0  0.79561  0.81332  0.24648  1.0000
  H   H446      1.0  0.87316  0.81000  0.27461  1.0000
  H   H447      1.0  0.79186  0.83126  0.25652  1.0000
  S   S115      1.0  0.03788  0.86159  0.31529  1.0000
  H   H448      1.0  0.97132  0.86180  0.08295  1.0000
  C   C284      1.0  0.01397  0.93197  0.04924  1.0000
  Fe  Fe57      1.0  0.00372  0.78813  0.38386  1.0000
  H   H449      1.0  0.77064  0.79072  0.35292  1.0000
  H   H450      1.0  0.98896  0.93782  0.06467  1.0000
  H   H451      1.0  0.72347  0.79728  0.28996  1.0000
  S   S116      1.0  0.95434  0.81012  0.33933  1.0000
  H   H452      1.0  0.66914  0.78351  0.29722  1.0000
  Fe  Fe58      1.0  0.02571  0.82316  0.32992  1.0000
  H   H453      1.0  0.00811  0.90317  0.16146  1.0000
  H   H454      1.0  0.59323  0.78738  0.07974  1.0000
  S   S117      1.0  0.02827  0.79378  0.29095  1.0000
  N   N28       1.0  0.02789  0.87704  0.12629  1.0000
  C   C285      1.0  0.02770  0.85673  0.15083  1.0000
  H   H455      1.0  0.03744  0.91543  0.12947  1.0000
  H   H456      1.0  0.67117  0.81804  0.89666  1.0000
  S   S118      1.0  0.99900  0.80247  0.64462  1.0000
  H   H457      1.0  0.70712  0.01293  0.79570  1.0000
  H   H458      1.0  0.00441  0.88445  0.64033  1.0000
  C   C286      1.0  0.67457  0.78676  0.74481  1.0000
  H   H459      1.0  0.03028  0.00194  0.01075  1.0000
  N   N29       1.0  0.02709  0.86722  0.59728  1.0000
  H   H460      1.0  0.71620  0.87075  0.95593  1.0000
  C   C287      1.0  0.00837  0.84878  0.56941  1.0000
  H   H461      1.0  0.72510  0.80472  0.97358  1.0000
  H   H462      1.0  0.64406  0.80334  0.92802  1.0000
  H   H463      1.0  0.68337  0.94693  0.79575  1.0000
  C   C288      1.0  0.99503  0.92126  0.01560  1.0000
  H   H464      1.0  0.67858  0.85001  0.99865  1.0000
  S   S119      1.0  0.63341  0.81432  0.81318  1.0000
  H   H465      1.0  0.97850  0.81604  0.75108  1.0000
  Fe  Fe59      1.0  0.80773  0.91550  0.87861  1.0000
  S   S120      1.0  0.84703  0.91829  0.83538  1.0000
  S   S121      1.0  0.72439  0.91577  0.86753  1.0000
  Fe  Fe60      1.0  0.90387  0.91574  0.93873  1.0000
  S   S122      1.0  0.95131  0.91847  0.90055  1.0000
  S   S123      1.0  0.93092  0.91729  0.99903  1.0000
  Fe  Fe61      1.0  0.89430  0.94559  0.87175  1.0000
  S   S124      1.0  0.91954  0.98007  0.85174  1.0000
  Fe  Fe62      1.0  0.90003  0.89098  0.86792  1.0000
  S   S125      1.0  0.92303  0.85641  0.84577  1.0000
  S   S126      1.0  0.85084  0.94495  0.91240  1.0000
  S   S127      1.0  0.85673  0.88610  0.90867  1.0000
  H   H466      1.0  0.96350  0.89425  0.81002  1.0000
  H   H467      1.0  0.93811  0.97986  0.92900  1.0000
  C   C289      1.0  0.04480  0.98860  0.99446  1.0000
  H   H468      1.0  0.70145  0.97287  0.84892  1.0000
  H   H469      1.0  0.98969  0.01155  0.91193  1.0000
  H   H470      1.0  0.01172  0.96897  0.90808  1.0000
  C   C290      1.0  0.94935  0.85622  0.80926  1.0000
  C   C291      1.0  0.96691  0.87720  0.79724  1.0000
  H   H471      1.0  0.94555  0.99333  0.97223  1.0000
  C   C292      1.0  0.99445  0.85389  0.75241  1.0000
  C   C293      1.0  0.97589  0.83308  0.76399  1.0000
  C   C294      1.0  0.95395  0.83421  0.79254  1.0000
  H   H472      1.0  0.78289  0.98090  0.77078  1.0000
  C   C295      1.0  0.98969  0.87599  0.76897  1.0000
  H   H473      1.0  0.94021  0.81795  0.80161  1.0000
  C   C296      1.0  0.89569  0.00813  0.86129  1.0000
  H   H474      1.0  0.71285  0.85742  0.91312  1.0000
  H   H475      1.0  0.74832  0.99567  0.85511  1.0000
  H   H476      1.0  0.84306  0.99351  0.88679  1.0000
  H   H477      1.0  0.75181  0.82008  0.94264  1.0000
  C   C297      1.0  0.65732  0.84276  0.82821  1.0000
  C   C298      1.0  0.70672  0.84762  0.82932  1.0000
  C   C299      1.0  0.72736  0.87002  0.84130  1.0000
  C   C300      1.0  0.69835  0.88790  0.85153  1.0000
  C   C301      1.0  0.64862  0.88323  0.84990  1.0000
  C   C302      1.0  0.62828  0.86053  0.83875  1.0000
  H   H478      1.0  0.72935  0.83395  0.82116  1.0000
  H   H479      1.0  0.76571  0.87347  0.84236  1.0000
  H   H480      1.0  0.62599  0.89704  0.85771  1.0000
  H   H481      1.0  0.58996  0.85695  0.83760  1.0000
  H   H482      1.0  0.63486  0.79244  0.73514  1.0000
  H   H483      1.0  0.62007  0.84763  0.96503  1.0000
  H   H484      1.0  0.69393  0.99417  0.75643  1.0000
  H   H485      1.0  0.65970  0.99051  0.78921  1.0000
  N   N30       1.0  0.73435  0.97651  0.80500  1.0000
  Fe  Fe63      1.0  0.56844  0.79945  0.82987  1.0000
  H   H486      1.0  0.61627  0.83030  0.90593  1.0000
  C   C303      1.0  0.73747  0.97749  0.84367  1.0000
  C   C304      1.0  0.01164  0.01184  0.94054  1.0000
  H   H487      1.0  0.97191  0.85406  0.55103  1.0000
  C   C305      1.0  0.69297  0.85932  0.93433  1.0000
  H   H488      1.0  0.81273  0.96960  0.81467  1.0000
  H   H489      1.0  0.79509  0.00073  0.80879  1.0000
  H   H490      1.0  0.71608  0.95065  0.76194  1.0000
  H   H491      1.0  0.01310  0.90543  0.96984  1.0000
  H   H492      1.0  0.03473  0.84557  0.55278  1.0000
  H   H493      1.0  0.76530  0.96431  0.85898  1.0000
  H   H494      1.0  0.75537  0.83310  0.98581  1.0000
  C   C306      1.0  0.85805  0.00966  0.87873  1.0000
  C   C307      1.0  0.73109  0.82281  0.96323  1.0000
  S   S128      1.0  0.02573  0.85241  0.71851  1.0000
  H   H495      1.0  0.69143  0.79780  0.76897  1.0000
  C   C308      1.0  0.78329  0.98218  0.79952  1.0000
  H   H496      1.0  0.04799  0.90442  0.60015  1.0000
  N   N31       1.0  0.01347  0.98779  0.95707  1.0000
  N   N32       1.0  0.68343  0.83557  0.94800  1.0000
  C   C309      1.0  0.02730  0.91424  0.99539  1.0000
  H   H497      1.0  0.65773  0.86935  0.92239  1.0000
  H   H498      1.0  0.74707  0.93825  0.80493  1.0000
  C   C310      1.0  0.71950  0.95209  0.79115  1.0000
  C   C311      1.0  0.69708  0.99432  0.78570  1.0000
  H   H499      1.0  0.99831  0.89666  0.56161  1.0000
  H   H500      1.0  0.96259  0.96232  0.96868  1.0000
  C   C312      1.0  0.65252  0.82120  0.91832  1.0000
  H   H501      1.0  0.95428  0.87697  0.60178  1.0000
  C   C313      1.0  0.96273  0.98053  0.95678  1.0000
  H   H502      1.0  0.00382  0.89219  0.76007  1.0000
  H   H503      1.0  0.69333  0.79163  0.72394  1.0000
  C   C314      1.0  0.65704  0.83882  0.97605  1.0000
  H   H504      1.0  0.64998  0.82117  0.98724  1.0000
  C   C315      1.0  0.99114  0.87088  0.61873  1.0000
  C   C316      1.0  0.03462  0.97012  0.93645  1.0000
  H   H505      1.0  0.04941  0.01822  0.94123  1.0000
  H   H506      1.0  0.00364  0.83111  0.58145  1.0000
  H   H507      1.0  0.98536  0.85397  0.63231  1.0000
  Fe  Fe64      1.0  0.03940  0.81505  0.69943  1.0000
  C   C317      1.0  0.57438  0.79370  0.02286  1.0000
  H   H508      1.0  0.58642  0.81220  0.02578  1.0000
  C   C318      1.0  0.91505  0.02934  0.85124  1.0000
  H   H509      1.0  0.03646  0.95176  0.94812  1.0000
  H   H510      1.0  0.94414  0.02831  0.83768  1.0000
  C   C319      1.0  0.02054  0.78514  0.54053  1.0000
  C   C320      1.0  0.03387  0.89009  0.57993  1.0000
  H   H511      1.0  0.99402  0.02551  0.95444  1.0000
  H   H512      1.0  0.04621  0.97081  0.00773  1.0000
