data_image0
_chemical_formula_structural       FeCFeS3C3HC2H2NC4H3C2FeHCH4SH2C3H4SCH4NHC2H3CSCH2CH4NH2CH2Fe2C2H5CHSC2HCHCHC2FeCSHSHFeH2SH2FeHC2H3CSCSH4NCH3SHCHC2S2CH2SFeSFeS2Fe2CHC6H2SCSH2CHS4HCH4CNH3CH4CHCH4FeCH3CS2CH2SH2NCH2SH2CH3NH3CHCH2CHSFeC2HCH2CHSCHC4SC2H3SFeSHSCFeSC5HC3H2CS2Fe2S2H3NHC3H2C2H3SH3C2H5NCH3CHC2H2CH9C3H4CSHCH3CHC3H2CH3FeHCS2CH4CHCNCH2C2S2HCFeCH2FeHC2H3FeCH4S4FeSFe2S2H2FeS2HC3H3C3NH2CHCH4CHCNCH2SCH5CH4CNHCH2CH5CNCH5SHSH4SH4SH3CFeH2CHSFeC2HSHCSHC4FeC2HCHSCH3FeCHC2HCNH6C2H2FeS2FeSFeS3C3HNC2HCHC2NC3HC2H5SH3C3H8C2H5CH12CHCH3CFeHFeCH4SH3CHCH3C2H3NH5SCHCHFeC3SFeNHCHCH3SFeS2CHCSHCFeCSFeH2SC3HC2HNC2HCSC3H3SH3CH4CHCH5FeCHNHC2H3C2H3SH2NHCHCHC2HCSC2H5C2HSHC2H2FeCSCHCFeSHC3HFe2H2SCSH2NFeSFeHC2SC2HC2HSHSFeCHC2H3C2H2NH4CHSH3C3HNCHSH2CHSHCH2CH4C2HC3H3SCH5CHCH2CH3NHCH3CHCSHCSC3SH2CFeHCH2CFeNSCHC2FeH5CSHSFeCHCHNS2FeCHCH2CSCFeSFeCHCSFeCHFeCS2HCHCH4CHNH2CSH3CH2CH9NC2H3C2SCH3CHCH2NCSH2CFeH2CH7SFeCS3CHCFeCHS2H2FeCHCHC4SCHSH2C2H3NFeS2Fe2S2C2H2C3NCHNC2H2SHCH3C2H4CHCH5CSH6CH4CH4FeH5C2H2C2SHCHCHS2HS2CSFe2HSHFeNFeH2CSCHFeHCSH4SC3S2H2CFeHC3HFeSCFeHS3C5H3CHC4H3NSHCHFeH3C3HFeH2CHS2H3SHS2HSH2SH2SH4FeHCH3CNC2SH2FeCHCH2SC2SC2HCHCHCNCHCHCHCSHCH3CH4C3HNH3CSHC2SCH2CHC2HCH2NSNC2SC2H5FeHCFeS2FeHCSC2H2C2FeH8C2HSH3CH2CSH2CH2C3H3FeH6C2NH4CHC2H2CH2CHFeC2HCH2SCS4HFeC4HSFeCFeSNHSH5CSC4HCH3CFeS2FeSFe2S2HCHNSCH2C3HNC2H2CH2CHCHCH2SHCNHCH4CH7CHSCH2CHCH7C2HC2NH2CHCH2SCH4CH3CH2CH2C2H2CSHCHSHCH2FeHCH3CH2CSHFeCHFeH4SFeC2SCSHCNS2HCHSC2H4CHFeS2FeH2SCHCHC3H4CNCH2SHC2H2CH2CHCFeSNH2CH2FeCH2NHCH2FeHSC2HSCH3CSH2SHC2HCH4SCH2CNH2S2H2SCFeH4CFeC2HC2H3FeHSHC2SHCSHCSCH2FeHSFeSH2S2NHC6H6C2H2CH5CS2HFe3C2SH7CHCH3CFeH3CHCH2CH4FeHCNCH4S2CHC3H2FeHSNH3CHC2NHCSHC2FeC2SCSH2CHFeH2SHCH2C2HCHSH4C3SHFe2SCSHCHSNH4CH2C2HFeC2SH6C5SC3H3CH5CNHCH6CHFeC2H3C2HSCH2FeC4HCH2CHSHSCNCSH2C2H2CH4FeHS2HS2CH3FeCSH4C2FeS3NSC6H2SHSFeC2SFeHC3NC2SHFeSCHFeH4CH2CH5CH4CH7CH3CH2CH4C4HC2SCNH3NFeHFeH2C4H6C2H2SH6CFeCHC2HS2HFeHNSCSHC2HSC2SC2HCH2C2H4
_chemical_formula_sum              "Fe128 C640 S256 H1024 N64"
_cell_length_a       41.8545
_cell_length_b       41.8152
_cell_length_c       25.2037
_cell_angle_alpha    89.6918
_cell_angle_beta     89.6009
_cell_angle_gamma    88.1209

_space_group_name_H-M_alt    "P 1"
_space_group_IT_number       1

loop_
  _space_group_symop_operation_xyz
  'x, y, z'

loop_
  _atom_site_type_symbol
  _atom_site_label
  _atom_site_symmetry_multiplicity
  _atom_site_fract_x
  _atom_site_fract_y
  _atom_site_fract_z
  _atom_site_occupancy
  Fe  Fe1       1.0  0.32542  0.13400  0.44044  1.0000
  C   C1        1.0  0.15019  0.17155  0.49385  1.0000
  Fe  Fe2       1.0  0.31595  0.20412  0.46615  1.0000
  S   S1        1.0  0.31255  0.25206  0.42520  1.0000
  S   S2        1.0  0.13346  0.17589  0.38883  1.0000
  S   S3        1.0  0.28222  0.16710  0.43914  1.0000
  C   C2        1.0  0.32106  0.28514  0.46454  1.0000
  C   C3        1.0  0.32004  0.31569  0.44153  1.0000
  C   C4        1.0  0.32777  0.34243  0.47158  1.0000
  H   H1        1.0  0.31371  0.31869  0.40020  1.0000
  C   C5        1.0  0.20792  0.13889  0.47073  1.0000
  C   C6        1.0  0.28958  0.13746  0.25376  1.0000
  H   H2        1.0  0.30329  0.15201  0.33216  1.0000
  H   H3        1.0  0.27728  0.15995  0.24466  1.0000
  N   N1        1.0  0.21195  0.25333  0.45187  1.0000
  C   C7        1.0  0.21781  0.23428  0.40329  1.0000
  C   C8        1.0  0.15771  0.16311  0.44149  1.0000
  C   C9        1.0  0.18601  0.14574  0.43028  1.0000
  C   C10       1.0  0.30416  0.13292  0.30349  1.0000
  H   H4        1.0  0.12790  0.18409  0.50294  1.0000
  H   H5        1.0  0.21965  0.21261  0.50324  1.0000
  H   H6        1.0  0.19167  0.13874  0.38991  1.0000
  C   C11       1.0  0.20145  0.14917  0.52246  1.0000
  C   C12       1.0  0.32901  0.28147  0.51808  1.0000
  Fe  Fe3       1.0  0.27759  0.15467  0.52549  1.0000
  H   H7        1.0  0.20559  0.24538  0.36836  1.0000
  C   C13       1.0  0.17721  0.25610  0.46260  1.0000
  H   H8        1.0  0.20875  0.20964  0.40780  1.0000
  H   H9        1.0  0.16669  0.23219  0.46710  1.0000
  H   H10       1.0  0.17181  0.26981  0.49953  1.0000
  H   H11       1.0  0.16433  0.26872  0.42973  1.0000
  S   S4        1.0  0.31786  0.11837  0.52487  1.0000
  H   H12       1.0  0.20221  0.14354  0.10573  1.0000
  H   H13       1.0  0.25846  0.33376  0.09353  1.0000
  C   C14       1.0  0.22460  0.28565  0.44445  1.0000
  C   C15       1.0  0.22821  0.23728  0.49710  1.0000
  C   C16       1.0  0.17212  0.16457  0.53447  1.0000
  H   H14       1.0  0.24384  0.23191  0.39386  1.0000
  H   H15       1.0  0.22398  0.25058  0.53473  1.0000
  H   H16       1.0  0.21269  0.29848  0.41081  1.0000
  H   H17       1.0  0.22080  0.30050  0.48062  1.0000
  S   S5        1.0  0.27020  0.11779  0.15562  1.0000
  C   C17       1.0  0.20761  0.15299  0.06538  1.0000
  H   H18       1.0  0.17718  0.19618  0.12658  1.0000
  H   H19       1.0  0.18962  0.44651  0.31857  1.0000
  H   H20       1.0  0.32556  0.14584  0.10947  1.0000
  H   H21       1.0  0.25453  0.23528  0.49042  1.0000
  N   N2        1.0  0.21345  0.18764  0.06691  1.0000
  H   H22       1.0  0.23013  0.12609  0.46169  1.0000
  C   C18       1.0  0.27443  0.34196  0.06275  1.0000
  C   C19       1.0  0.18441  0.20496  0.08656  1.0000
  H   H23       1.0  0.24618  0.21920  0.10390  1.0000
  H   H24       1.0  0.25074  0.28449  0.43588  1.0000
  H   H25       1.0  0.18811  0.23111  0.08940  1.0000
  C   C20       1.0  0.24046  0.19338  0.10275  1.0000
  S   S6        1.0  0.11876  0.32736  0.46988  1.0000
  C   C21       1.0  0.33579  0.33880  0.52510  1.0000
  H   H26       1.0  0.23516  0.18532  0.14400  1.0000
  H   H27       1.0  0.26245  0.17983  0.08970  1.0000
  C   C22       1.0  0.35191  0.14237  0.11324  1.0000
  H   H28       1.0  0.32998  0.25800  0.53607  1.0000
  H   H29       1.0  0.11422  0.18382  0.22230  1.0000
  H   H30       1.0  0.16372  0.20147  0.05985  1.0000
  H   H31       1.0  0.35713  0.13924  0.15628  1.0000
  N   N3        1.0  0.26274  0.60538  0.17079  1.0000
  H   H32       1.0  0.22891  0.13915  0.05004  1.0000
  H   H33       1.0  0.33819  0.47309  0.34869  1.0000
  C   C23       1.0  0.23808  0.58441  0.15013  1.0000
  H   H34       1.0  0.11692  0.44440  0.46931  1.0000
  H   H35       1.0  0.22263  0.59700  0.12029  1.0000
  Fe  Fe4       1.0  0.35390  0.48064  0.46837  1.0000
  Fe  Fe5       1.0  0.12180  0.56689  0.41619  1.0000
  C   C24       1.0  0.28138  0.49404  0.52683  1.0000
  C   C25       1.0  0.28258  0.58730  0.20975  1.0000
  H   H36       1.0  0.32788  0.41186  0.21398  1.0000
  H   H37       1.0  0.22246  0.57534  0.18248  1.0000
  H   H38       1.0  0.24924  0.59321  0.52537  1.0000
  H   H39       1.0  0.24936  0.56326  0.13014  1.0000
  H   H40       1.0  0.29499  0.59533  0.10567  1.0000
  C   C26       1.0  0.11835  0.39279  0.46864  1.0000
  H   H41       1.0  0.26287  0.55452  0.44038  1.0000
  S   S7        1.0  0.32430  0.52637  0.46715  1.0000
  C   C27       1.0  0.28281  0.37412  0.06095  1.0000
  C   C28       1.0  0.33593  0.43982  0.28383  1.0000
  H   H42       1.0  0.25396  0.48976  0.38524  1.0000
  C   C29       1.0  0.22866  0.52998  0.48869  1.0000
  H   H43       1.0  0.13794  0.39061  0.49636  1.0000
  C   C30       1.0  0.25951  0.53621  0.47020  1.0000
  H   H44       1.0  0.21182  0.49721  0.39495  1.0000
  C   C31       1.0  0.24982  0.43007  0.34779  1.0000
  C   C32       1.0  0.32101  0.43316  0.23586  1.0000
  Fe  Fe6       1.0  0.20122  0.47169  0.05220  1.0000
  C   C33       1.0  0.30165  0.48753  0.29349  1.0000
  S   S8        1.0  0.20529  0.51863  0.09340  1.0000
  H   H45       1.0  0.24722  0.40379  0.35196  1.0000
  S   S9        1.0  0.25365  0.50448  0.22501  1.0000
  H   H46       1.0  0.18901  0.41398  0.36562  1.0000
  Fe  Fe7       1.0  0.24427  0.49377  0.13978  1.0000
  H   H47       1.0  0.22629  0.41367  0.44297  1.0000
  H   H48       1.0  0.30157  0.60226  0.22634  1.0000
  S   S10       1.0  0.28356  0.50552  0.08338  1.0000
  H   H49       1.0  0.29442  0.56573  0.19144  1.0000
  H   H50       1.0  0.24812  0.43617  0.30479  1.0000
  Fe  Fe8       1.0  0.14732  0.52165  0.50159  1.0000
  H   H51       1.0  0.26784  0.57852  0.24348  1.0000
  C   C34       1.0  0.22430  0.50592  0.52650  1.0000
  C   C35       1.0  0.28583  0.51825  0.48937  1.0000
  H   H52       1.0  0.27383  0.39039  0.09095  1.0000
  H   H53       1.0  0.34782  0.37473  0.14239  1.0000
  H   H54       1.0  0.20827  0.54364  0.47349  1.0000
  C   C36       1.0  0.19315  0.44001  0.36112  1.0000
  S   S11       1.0  0.13612  0.60061  0.35064  1.0000
  C   C37       1.0  0.22985  0.48280  0.37194  1.0000
  S   S12       1.0  0.13449  0.57412  0.50193  1.0000
  H   H55       1.0  0.30140  0.59126  0.47490  1.0000
  H   H56       1.0  0.28507  0.44824  0.17988  1.0000
  H   H57       1.0  0.29434  0.50855  0.31592  1.0000
  H   H58       1.0  0.27443  0.43558  0.36066  1.0000
  N   N4        1.0  0.22541  0.44813  0.37921  1.0000
  C   C38       1.0  0.29650  0.45368  0.21674  1.0000
  H   H59       1.0  0.21047  0.45258  0.46071  1.0000
  H   H60       1.0  0.32753  0.36583  0.45325  1.0000
  H   H61       1.0  0.25274  0.44625  0.45117  1.0000
  S   S13       1.0  0.13993  0.51565  0.41435  1.0000
  H   H62       1.0  0.22749  0.49004  0.32953  1.0000
  C   C39       1.0  0.28639  0.48055  0.24602  1.0000
  H   H63       1.0  0.17416  0.45301  0.38441  1.0000
  C   C40       1.0  0.22889  0.43974  0.43597  1.0000
  C   C41       1.0  0.32651  0.46731  0.31216  1.0000
  S   S14       1.0  0.23611  0.44562  0.10505  1.0000
  S   S15       1.0  0.33091  0.43517  0.44520  1.0000
  C   C42       1.0  0.30772  0.61397  0.49431  1.0000
  H   H64       1.0  0.33422  0.61348  0.49800  1.0000
  H   H65       1.0  0.30171  0.48018  0.54179  1.0000
  S   S16       1.0  0.35990  0.17192  0.46118  1.0000
  Fe  Fe9       1.0  0.27247  0.45936  0.04420  1.0000
  S   S17       1.0  0.13573  0.17078  0.84888  1.0000
  Fe  Fe10      1.0  0.30403  0.18099  0.93163  1.0000
  S   S18       1.0  0.28791  0.22848  0.89807  1.0000
  S   S19       1.0  0.27496  0.13702  0.93164  1.0000
  Fe  Fe11      1.0  0.30468  0.24816  0.97507  1.0000
  Fe  Fe12      1.0  0.33915  0.23192  0.87175  1.0000
  C   C43       1.0  0.30745  0.33107  0.98536  1.0000
  H   H66       1.0  0.31642  0.31476  0.95528  1.0000
  C   C44       1.0  0.17437  0.16073  0.87136  1.0000
  C   C45       1.0  0.17916  0.13839  0.91226  1.0000
  C   C46       1.0  0.21019  0.13043  0.92951  1.0000
  C   C47       1.0  0.23648  0.14534  0.90687  1.0000
  C   C48       1.0  0.23171  0.16770  0.86601  1.0000
  C   C49       1.0  0.20073  0.17501  0.84771  1.0000
  H   H67       1.0  0.25188  0.17906  0.84790  1.0000
  H   H68       1.0  0.19713  0.19218  0.81584  1.0000
  S   S20       1.0  0.31676  0.20027  0.01101  1.0000
  C   C50       1.0  0.28652  0.32044  0.02469  1.0000
  S   S21       1.0  0.27343  0.28105  0.02469  1.0000
  H   H69       1.0  0.31089  0.15287  0.66145  1.0000
  H   H70       1.0  0.27298  0.16411  0.69058  1.0000
  C   C51       1.0  0.29693  0.15295  0.69924  1.0000
  H   H71       1.0  0.30922  0.16876  0.72745  1.0000
  S   S22       1.0  0.35383  0.18248  0.89901  1.0000
  S   S23       1.0  0.35225  0.25250  0.79207  1.0000
  S   S24       1.0  0.15441  0.44835  0.04031  1.0000
  S   S25       1.0  0.35458  0.25631  0.94596  1.0000
  H   H72       1.0  0.21705  0.33358  0.99992  1.0000
  C   C52       1.0  0.33597  0.30834  0.54852  1.0000
  H   H73       1.0  0.35499  0.31215  0.69189  1.0000
  H   H74       1.0  0.15914  0.12668  0.93000  1.0000
  H   H75       1.0  0.24325  0.18666  0.99725  1.0000
  H   H76       1.0  0.25174  0.13207  0.76634  1.0000
  C   C53       1.0  0.27624  0.12142  0.77163  1.0000
  N   N5        1.0  0.29421  0.12021  0.72090  1.0000
  H   H77       1.0  0.35703  0.35246  0.71508  1.0000
  H   H78       1.0  0.33986  0.12002  0.75958  1.0000
  H   H79       1.0  0.18695  0.14775  0.03959  1.0000
  C   C54       1.0  0.22135  0.19916  0.01299  1.0000
  H   H80       1.0  0.20408  0.32205  0.93527  1.0000
  H   H81       1.0  0.20168  0.19484  0.98462  1.0000
  H   H82       1.0  0.28855  0.13584  0.80185  1.0000
  H   H83       1.0  0.32844  0.12126  0.02135  1.0000
  C   C55       1.0  0.23634  0.61305  0.91605  1.0000
  H   H84       1.0  0.34191  0.30541  0.58996  1.0000
  C   C56       1.0  0.21631  0.34101  0.95743  1.0000
  H   H85       1.0  0.24150  0.34123  0.94292  1.0000
  H   H86       1.0  0.22590  0.22525  0.01267  1.0000
  H   H87       1.0  0.34617  0.25571  0.67924  1.0000
  H   H88       1.0  0.16700  0.17236  0.57460  1.0000
  Fe  Fe13      1.0  0.34801  0.15962  0.54567  1.0000
  C   C57       1.0  0.35489  0.11881  0.02596  1.0000
  H   H89       1.0  0.36020  0.21716  0.60820  1.0000
  H   H90       1.0  0.15321  0.35276  0.95077  1.0000
  H   H91       1.0  0.12140  0.12378  0.76323  1.0000
  C   C58       1.0  0.35640  0.23244  0.68944  1.0000
  S   S26       1.0  0.23185  0.14716  0.56964  1.0000
  S   S27       1.0  0.30687  0.19502  0.55259  1.0000
  C   C59       1.0  0.25062  0.48807  0.54575  1.0000
  H   H92       1.0  0.32878  0.59078  0.58788  1.0000
  H   H93       1.0  0.18642  0.36374  0.87015  1.0000
  S   S28       1.0  0.18604  0.49679  0.54839  1.0000
  H   H94       1.0  0.29073  0.59298  0.62172  1.0000
  H   H95       1.0  0.11511  0.57627  0.65220  1.0000
  N   N6        1.0  0.20001  0.37266  0.95072  1.0000
  C   C60       1.0  0.14183  0.53191  0.75735  1.0000
  H   H96       1.0  0.11124  0.58480  0.72203  1.0000
  H   H97       1.0  0.29663  0.56740  0.56516  1.0000
  S   S29       1.0  0.31174  0.42556  0.01531  1.0000
  H   H98       1.0  0.20572  0.42104  0.97590  1.0000
  H   H99       1.0  0.21797  0.39136  0.02364  1.0000
  C   C61       1.0  0.30243  0.59108  0.58201  1.0000
  H   H100      1.0  0.15004  0.58215  0.69179  1.0000
  H   H101      1.0  0.24722  0.46935  0.57488  1.0000
  H   H102      1.0  0.16633  0.54143  0.75978  1.0000
  N   N7        1.0  0.12801  0.53695  0.70402  1.0000
  H   H103      1.0  0.17324  0.52982  0.66378  1.0000
  H   H104      1.0  0.18737  0.40534  0.88760  1.0000
  H   H105      1.0  0.14332  0.50605  0.76816  1.0000
  C   C62       1.0  0.19500  0.60022  0.85338  1.0000
  H   H106      1.0  0.24259  0.39856  0.96637  1.0000
  C   C63       1.0  0.21739  0.39692  0.98041  1.0000
  H   H107      1.0  0.19953  0.54513  0.95349  1.0000
  H   H108      1.0  0.15369  0.39472  0.96545  1.0000
  C   C64       1.0  0.13356  0.46243  0.98454  1.0000
  H   H109      1.0  0.33152  0.37155  0.95248  1.0000
  S   S30       1.0  0.23698  0.48221  0.98801  1.0000
  Fe  Fe14      1.0  0.24420  0.52726  0.03402  1.0000
  C   C65       1.0  0.13082  0.49292  0.90242  1.0000
  C   C66       1.0  0.22946  0.58585  0.94617  1.0000
  H   H110      1.0  0.13890  0.52418  0.62329  1.0000
  C   C67       1.0  0.19946  0.38147  0.89385  1.0000
  H   H111      1.0  0.22412  0.38272  0.87724  1.0000
  H   H112      1.0  0.17110  0.49194  0.95523  1.0000
  C   C68       1.0  0.30298  0.38497  0.02074  1.0000
  H   H113      1.0  0.14181  0.50867  0.87409  1.0000
  S   S31       1.0  0.17288  0.60914  0.79596  1.0000
  C   C69       1.0  0.16688  0.37140  0.97120  1.0000
  H   H114      1.0  0.12702  0.54424  0.78845  1.0000
  C   C70       1.0  0.20514  0.56597  0.93007  1.0000
  C   C71       1.0  0.14857  0.52060  0.66400  1.0000
  C   C72       1.0  0.14747  0.48333  0.94826  1.0000
  C   C73       1.0  0.31581  0.36327  0.98359  1.0000
  S   S32       1.0  0.25136  0.57716  0.00387  1.0000
  C   C74       1.0  0.18782  0.57327  0.88384  1.0000
  C   C75       1.0  0.12594  0.57159  0.69188  1.0000
  H   H115      1.0  0.16887  0.55804  0.87176  1.0000
  H   H116      1.0  0.15058  0.49435  0.67135  1.0000
  H   H117      1.0  0.16644  0.36614  0.01457  1.0000
  S   S33       1.0  0.34666  0.37200  0.56230  1.0000
  Fe  Fe15      1.0  0.25267  0.74112  0.27326  1.0000
  S   S34       1.0  0.21744  0.70412  0.25035  1.0000
  H   H118      1.0  0.22399  0.75010  0.16464  1.0000
  S   S35       1.0  0.29938  0.72782  0.31208  1.0000
  C   C76       1.0  0.18003  0.74928  0.12110  1.0000
  Fe  Fe16      1.0  0.28597  0.76561  0.37114  1.0000
  S   S36       1.0  0.29712  0.75991  0.45729  1.0000
  C   C77       1.0  0.19199  0.71613  0.19829  1.0000
  C   C78       1.0  0.16238  0.70189  0.19306  1.0000
  C   C79       1.0  0.14110  0.71225  0.15336  1.0000
  C   C80       1.0  0.14995  0.73586  0.11716  1.0000
  C   C81       1.0  0.20083  0.73977  0.16207  1.0000
  H   H119      1.0  0.15571  0.68299  0.21990  1.0000
  C   C82       1.0  0.22700  0.69686  0.47720  1.0000
  C   C83       1.0  0.25026  0.71591  0.45392  1.0000
  C   C84       1.0  0.26965  0.73431  0.48593  1.0000
  H   H120      1.0  0.21231  0.68236  0.45261  1.0000
  H   H121      1.0  0.25312  0.71647  0.41125  1.0000
  C   C85       1.0  0.22262  0.69680  0.53222  1.0000
  S   S37       1.0  0.23717  0.77495  0.33774  1.0000
  S   S38       1.0  0.27288  0.77891  0.22000  1.0000
  Fe  Fe17      1.0  0.31826  0.76870  0.26507  1.0000
  Fe  Fe18      1.0  0.26050  0.81189  0.28750  1.0000
  S   S39       1.0  0.23303  0.85846  0.27953  1.0000
  S   S40       1.0  0.30793  0.80584  0.32709  1.0000
  H   H122      1.0  0.18723  0.76705  0.09247  1.0000
  H   H123      1.0  0.11793  0.70181  0.15079  1.0000
  H   H124      1.0  0.32885  0.74774  0.15123  1.0000
  N   N8        1.0  0.14272  0.70375  0.38226  1.0000
  H   H125      1.0  0.15358  0.68276  0.45863  1.0000
  C   C86       1.0  0.13772  0.81931  0.16055  1.0000
  C   C87       1.0  0.28306  0.61607  0.12628  1.0000
  C   C88       1.0  0.17373  0.71935  0.37624  1.0000
  H   H126      1.0  0.26865  0.62928  0.09572  1.0000
  H   H127      1.0  0.18191  0.72926  0.41451  1.0000
  C   C89       1.0  0.14629  0.67571  0.41803  1.0000
  C   C90       1.0  0.25674  0.61684  0.53990  1.0000
  H   H128      1.0  0.14881  0.67443  0.31318  1.0000
  H   H129      1.0  0.15520  0.86381  0.08965  1.0000
  H   H130      1.0  0.19267  0.70222  0.36143  1.0000
  S   S41       1.0  0.12358  0.74919  0.06731  1.0000
  H   H131      1.0  0.16464  0.65809  0.40278  1.0000
  H   H132      1.0  0.12359  0.66267  0.42169  1.0000
  H   H133      1.0  0.35194  0.78752  0.50757  1.0000
  C   C91       1.0  0.35363  0.74368  0.14011  1.0000
  C   C92       1.0  0.15632  0.85742  0.22409  1.0000
  H   H134      1.0  0.23196  0.64766  0.16845  1.0000
  H   H135      1.0  0.13214  0.62549  0.24411  1.0000
  H   H136      1.0  0.16287  0.83848  0.25369  1.0000
  H   H137      1.0  0.30073  0.63390  0.46684  1.0000
  H   H138      1.0  0.11240  0.82733  0.16734  1.0000
  N   N9        1.0  0.15996  0.84552  0.16918  1.0000
  C   C93       1.0  0.26680  0.73250  0.54109  1.0000
  H   H139      1.0  0.26502  0.64992  0.21294  1.0000
  H   H140      1.0  0.32031  0.82568  0.45139  1.0000
  H   H141      1.0  0.17229  0.73944  0.34712  1.0000
  C   C94       1.0  0.33549  0.92723  0.54222  1.0000
  H   H142      1.0  0.19987  0.81409  0.18936  1.0000
  C   C95       1.0  0.19320  0.83347  0.16059  1.0000
  C   C96       1.0  0.29001  0.11260  0.21667  1.0000
  H   H143      1.0  0.28976  0.85483  0.21248  1.0000
  H   H144      1.0  0.19673  0.82372  0.11993  1.0000
  C   C97       1.0  0.24716  0.63348  0.19672  1.0000
  H   H145      1.0  0.21057  0.85279  0.16585  1.0000
  H   H146      1.0  0.14299  0.79865  0.18754  1.0000
  H   H147      1.0  0.34319  0.73076  0.05933  1.0000
  H   H148      1.0  0.23144  0.62630  0.23027  1.0000
  H   H149      1.0  0.11548  0.74813  0.37863  1.0000
  H   H150      1.0  0.13942  0.81015  0.11917  1.0000
  H   H151      1.0  0.24811  0.63511  0.51076  1.0000
  H   H152      1.0  0.13058  0.71321  0.30063  1.0000
  H   H153      1.0  0.30197  0.63209  0.14010  1.0000
  C   C98       1.0  0.33745  0.84441  0.46205  1.0000
  C   C99       1.0  0.13200  0.69312  0.32974  1.0000
  C   C100      1.0  0.11881  0.72675  0.40476  1.0000
  H   H154      1.0  0.12626  0.73520  0.44453  1.0000
  H   H155      1.0  0.13137  0.86601  0.23256  1.0000
  H   H156      1.0  0.32766  0.85704  0.49769  1.0000
  H   H157      1.0  0.35590  0.08115  0.14581  1.0000
  C   C101      1.0  0.34972  0.08508  0.10330  1.0000
  S   S42       1.0  0.33672  0.09647  0.37878  1.0000
  H   H158      1.0  0.12971  0.10423  0.34613  1.0000
  C   C102      1.0  0.15264  0.87193  0.13151  1.0000
  H   H159      1.0  0.12145  0.04448  0.07209  1.0000
  H   H160      1.0  0.12770  0.88158  0.13691  1.0000
  H   H161      1.0  0.16902  0.89213  0.13710  1.0000
  C   C103      1.0  0.11388  0.01939  0.06682  1.0000
  H   H162      1.0  0.11269  0.05694  0.39816  1.0000
  C   C104      1.0  0.29005  0.89999  0.17035  1.0000
  C   C105      1.0  0.25417  0.01251  0.32271  1.0000
  C   C106      1.0  0.32181  0.07964  0.27744  1.0000
  H   H163      1.0  0.28833  0.97390  0.25623  1.0000
  H   H164      1.0  0.17223  0.87776  0.23145  1.0000
  C   C107      1.0  0.31990  0.10378  0.31575  1.0000
  H   H165      1.0  0.35848  0.06347  0.08137  1.0000
  H   H166      1.0  0.33529  0.05772  0.28568  1.0000
  H   H167      1.0  0.23863  0.00084  0.29330  1.0000
  Fe  Fe19      1.0  0.24781  0.07201  0.13107  1.0000
  H   H168      1.0  0.25759  0.96431  0.39384  1.0000
  C   C108      1.0  0.30189  0.00829  0.37569  1.0000
  S   S43       1.0  0.26128  0.04214  0.05992  1.0000
  S   S44       1.0  0.20407  0.99457  0.09925  1.0000
  C   C109      1.0  0.30638  0.08375  0.22850  1.0000
  H   H169      1.0  0.29297  0.94498  0.36694  1.0000
  H   H170      1.0  0.13738  0.07225  0.17371  1.0000
  H   H171      1.0  0.23477  0.96063  0.18716  1.0000
  H   H172      1.0  0.28824  0.01238  0.41320  1.0000
  C   C110      1.0  0.24685  0.93765  0.19227  1.0000
  H   H173      1.0  0.21333  0.92202  0.25122  1.0000
  C   C111      1.0  0.27786  0.87796  0.20698  1.0000
  N   N10       1.0  0.28257  0.99206  0.33562  1.0000
  C   C112      1.0  0.23474  0.91576  0.22874  1.0000
  H   H174      1.0  0.31141  0.89389  0.14769  1.0000
  H   H175      1.0  0.25748  0.94825  0.32775  1.0000
  C   C113      1.0  0.25010  0.88589  0.23598  1.0000
  C   C114      1.0  0.12258  0.03198  0.22040  1.0000
  S   S45       1.0  0.35937  0.93535  0.38731  1.0000
  S   S46       1.0  0.28891  0.95718  0.11631  1.0000
  H   H176      1.0  0.32384  0.97132  0.29575  1.0000
  C   C115      1.0  0.33396  0.92847  0.48664  1.0000
  Fe  Fe20      1.0  0.25596  0.00053  0.11540  1.0000
  C   C116      1.0  0.30201  0.98637  0.28713  1.0000
  H   H177      1.0  0.33775  0.86214  0.42887  1.0000
  H   H178      1.0  0.26117  0.03598  0.30579  1.0000
  Fe  Fe21      1.0  0.19582  0.02834  0.16690  1.0000
  H   H179      1.0  0.30961  0.03203  0.36123  1.0000
  C   C117      1.0  0.27215  0.96107  0.35703  1.0000
  C   C118      1.0  0.11740  0.05939  0.18912  1.0000
  H   H180      1.0  0.32390  0.99399  0.38569  1.0000
  H   H181      1.0  0.31187  0.92327  0.46690  1.0000
  H   H182      1.0  0.13474  0.00566  0.04988  1.0000
  Fe  Fe22      1.0  0.20816  0.03866  0.04928  1.0000
  C   C119      1.0  0.27441  0.92979  0.16280  1.0000
  H   H183      1.0  0.30771  0.06474  0.19960  1.0000
  H   H184      1.0  0.30998  0.00915  0.26923  1.0000
  H   H185      1.0  0.23926  0.01764  0.35859  1.0000
  H   H186      1.0  0.32319  0.08625  0.10055  1.0000
  S   S47       1.0  0.19503  0.07222  0.11558  1.0000
  S   S48       1.0  0.24751  0.03058  0.18746  1.0000
  S   S49       1.0  0.16125  0.01635  0.23178  1.0000
  S   S50       1.0  0.22733  0.65961  0.69745  1.0000
  Fe  Fe23      1.0  0.16289  0.72245  0.74199  1.0000
  S   S51       1.0  0.19772  0.70022  0.79926  1.0000
  Fe  Fe24      1.0  0.23362  0.70770  0.73433  1.0000
  Fe  Fe25      1.0  0.18743  0.65472  0.75654  1.0000
  S   S52       1.0  0.19939  0.73420  0.68095  1.0000
  S   S53       1.0  0.14979  0.67655  0.70365  1.0000
  H   H187      1.0  0.24182  0.71195  0.60672  1.0000
  H   H188      1.0  0.22524  0.64073  0.84586  1.0000
  Fe  Fe26      1.0  0.19060  0.68560  0.64811  1.0000
  S   S54       1.0  0.28166  0.72914  0.74123  1.0000
  S   S55       1.0  0.12707  0.75902  0.77125  1.0000
  H   H189      1.0  0.23964  0.75929  0.81842  1.0000
  C   C120      1.0  0.29632  0.82321  0.76279  1.0000
  C   C121      1.0  0.27478  0.83121  0.80366  1.0000
  C   C122      1.0  0.25432  0.80813  0.82362  1.0000
  H   H190      1.0  0.31233  0.84089  0.74752  1.0000
  H   H191      1.0  0.23765  0.81428  0.85526  1.0000
  H   H192      1.0  0.31542  0.78546  0.71257  1.0000
  C   C123      1.0  0.29814  0.79185  0.74317  1.0000
  C   C124      1.0  0.25532  0.77711  0.80262  1.0000
  C   C125      1.0  0.27760  0.76882  0.76298  1.0000
  N   N11       1.0  0.17148  0.84995  0.72131  1.0000
  H   H193      1.0  0.13590  0.67397  0.83560  1.0000
  H   H194      1.0  0.11613  0.64583  0.87735  1.0000
  C   C126      1.0  0.13281  0.66603  0.87745  1.0000
  H   H195      1.0  0.20126  0.80751  0.73202  1.0000
  C   C127      1.0  0.15308  0.84496  0.77077  1.0000
  H   H196      1.0  0.15639  0.65626  0.89135  1.0000
  H   H197      1.0  0.16827  0.83346  0.80205  1.0000
  H   H198      1.0  0.13262  0.82911  0.76404  1.0000
  H   H199      1.0  0.25525  0.62837  0.92831  1.0000
  C   C128      1.0  0.24343  0.71358  0.56418  1.0000
  H   H200      1.0  0.28227  0.74613  0.56601  1.0000
  C   C129      1.0  0.18481  0.81886  0.70232  1.0000
  N   N12       1.0  0.12074  0.69251  0.91145  1.0000
  C   C130      1.0  0.21930  0.62011  0.86947  1.0000
  H   H201      1.0  0.16552  0.80175  0.69475  1.0000
  H   H202      1.0  0.31106  0.74094  0.84685  1.0000
  S   S56       1.0  0.19112  0.67591  0.56075  1.0000
  C   C131      1.0  0.14406  0.71831  0.91206  1.0000
  H   H203      1.0  0.14720  0.72896  0.87189  1.0000
  H   H204      1.0  0.12282  0.73914  0.66191  1.0000
  H   H205      1.0  0.13041  0.84822  0.67061  1.0000
  H   H206      1.0  0.16791  0.70930  0.92592  1.0000
  H   H207      1.0  0.33638  0.79506  0.84152  1.0000
  C   C132      1.0  0.33575  0.73034  0.84511  1.0000
  H   H208      1.0  0.34672  0.73519  0.94874  1.0000
  H   H209      1.0  0.13892  0.67069  0.98310  1.0000
  H   H210      1.0  0.33522  0.70659  0.86521  1.0000
  H   H211      1.0  0.32474  0.77047  0.92717  1.0000
  C   C133      1.0  0.34854  0.75781  0.92555  1.0000
  N   N13       1.0  0.35880  0.75143  0.87027  1.0000
  H   H212      1.0  0.34172  0.72609  0.80254  1.0000
  C   C134      1.0  0.11612  0.68044  0.96605  1.0000
  H   H213      1.0  0.21364  0.11313  0.96113  1.0000
  H   H214      1.0  0.19864  0.82168  0.66476  1.0000
  C   C135      1.0  0.30025  0.64849  0.56998  1.0000
  H   H215      1.0  0.28777  0.65276  0.60862  1.0000
  H   H216      1.0  0.32642  0.64956  0.57701  1.0000
  H   H217      1.0  0.24378  0.62164  0.57793  1.0000
  H   H218      1.0  0.35925  0.81903  0.55354  1.0000
  H   H219      1.0  0.13609  0.73805  0.93915  1.0000
  C   C136      1.0  0.35997  0.78199  0.84067  1.0000
  N   N14       1.0  0.29178  0.61758  0.54658  1.0000
  C   C137      1.0  0.13641  0.07218  0.82323  1.0000
  H   H220      1.0  0.13910  0.88745  0.69417  1.0000
  H   H221      1.0  0.33772  0.92815  0.95991  1.0000
  H   H222      1.0  0.29001  0.09898  0.64378  1.0000
  H   H223      1.0  0.13290  0.05643  0.85838  1.0000
  H   H224      1.0  0.14314  0.86801  0.78672  1.0000
  S   S57       1.0  0.18184  0.03761  0.97175  1.0000
  H   H225      1.0  0.18676  0.96237  0.71891  1.0000
  S   S58       1.0  0.27366  0.86975  0.83075  1.0000
  H   H226      1.0  0.27454  0.07553  0.69764  1.0000
  H   H227      1.0  0.11369  0.01766  0.96018  1.0000
  H   H228      1.0  0.15461  0.06018  0.79702  1.0000
  H   H229      1.0  0.25270  0.11055  0.67437  1.0000
  S   S59       1.0  0.32034  0.94171  0.76371  1.0000
  H   H230      1.0  0.27363  0.09707  0.78892  1.0000
  H   H231      1.0  0.21246  0.87555  0.69527  1.0000
  H   H232      1.0  0.21757  0.00549  0.79414  1.0000
  H   H233      1.0  0.32529  0.08104  0.74571  1.0000
  S   S60       1.0  0.28295  0.89504  0.68051  1.0000
  H   H234      1.0  0.12968  0.08986  0.72121  1.0000
  H   H235      1.0  0.18861  0.89561  0.74487  1.0000
  H   H236      1.0  0.25999  0.96213  0.01050  1.0000
  C   C138      1.0  0.27714  0.10041  0.68253  1.0000
  Fe  Fe27      1.0  0.24664  0.93560  0.67269  1.0000
  H   H237      1.0  0.13491  0.97715  0.75970  1.0000
  H   H238      1.0  0.14688  0.09465  0.83782  1.0000
  C   C139      1.0  0.22345  0.01817  0.82982  1.0000
  H   H239      1.0  0.21419  0.86195  0.76292  1.0000
  S   S61       1.0  0.28321  0.97301  0.65907  1.0000
  Fe  Fe28      1.0  0.28128  0.90649  0.76722  1.0000
  C   C140      1.0  0.31333  0.98842  0.97262  1.0000
  C   C141      1.0  0.26298  0.96219  0.96656  1.0000
  H   H240      1.0  0.31155  0.93021  0.01670  1.0000
  S   S62       1.0  0.24246  0.94399  0.76025  1.0000
  H   H241      1.0  0.32558  0.95949  0.87992  1.0000
  C   C142      1.0  0.30004  0.96037  0.89279  1.0000
  S   S63       1.0  0.20348  0.92997  0.62067  1.0000
  H   H242      1.0  0.31227  0.98880  0.01678  1.0000
  C   C143      1.0  0.13583  0.96751  0.71995  1.0000
  C   C144      1.0  0.13865  0.94217  0.61764  1.0000
  C   C145      1.0  0.31224  0.93065  0.97253  1.0000
  C   C146      1.0  0.25314  0.03234  0.83418  1.0000
  Fe  Fe29      1.0  0.28146  0.97850  0.74737  1.0000
  C   C147      1.0  0.16690  0.94517  0.64659  1.0000
  C   C148      1.0  0.15016  0.86431  0.68049  1.0000
  H   H243      1.0  0.31459  0.92114  0.56521  1.0000
  C   C149      1.0  0.19784  0.87167  0.73168  1.0000
  H   H244      1.0  0.33898  0.98826  0.96069  1.0000
  S   S64       1.0  0.28250  0.02714  0.78472  1.0000
  C   C150      1.0  0.20114  0.02068  0.87155  1.0000
  H   H245      1.0  0.28890  0.98234  0.87513  1.0000
  H   H246      1.0  0.16353  0.86945  0.64314  1.0000
  H   H247      1.0  0.17840  0.00931  0.86835  1.0000
  Fe  Fe30      1.0  0.31916  0.93341  0.67611  1.0000
  C   C151      1.0  0.23824  0.05142  0.92190  1.0000
  H   H248      1.0  0.30000  0.90914  0.95810  1.0000
  C   C152      1.0  0.20873  0.03692  0.91800  1.0000
  C   C153      1.0  0.16534  0.95865  0.69716  1.0000
  H   H249      1.0  0.28299  0.06088  0.88318  1.0000
  C   C154      1.0  0.26022  0.04954  0.87979  1.0000
  N   N15       1.0  0.29714  0.96042  0.95120  1.0000
  H   H250      1.0  0.28830  0.93942  0.87522  1.0000
  H   H251      1.0  0.30215  0.01125  0.95773  1.0000
  H   H252      1.0  0.24997  0.94158  0.95063  1.0000
  H   H253      1.0  0.13967  0.93201  0.57825  1.0000
  H   H254      1.0  0.25095  0.98444  0.95115  1.0000
  H   H255      1.0  0.24408  0.06459  0.95703  1.0000
  C   C155      1.0  0.32652  0.10598  0.73013  1.0000
  C   C156      1.0  0.11194  0.10061  0.74961  1.0000
  H   H256      1.0  0.34104  0.10528  0.69291  1.0000
  H   H257      1.0  0.29348  0.66881  0.54321  1.0000
  Fe  Fe31      1.0  0.54876  0.30067  0.18379  1.0000
  S   S65       1.0  0.56358  0.34113  0.23515  1.0000
  S   S66       1.0  0.58290  0.27407  0.12914  1.0000
  Fe  Fe32      1.0  0.47780  0.31244  0.20664  1.0000
  S   S67       1.0  0.42656  0.30092  0.19307  1.0000
  Fe  Fe33      1.0  0.52629  0.32327  0.29146  1.0000
  S   S68       1.0  0.53057  0.32072  0.37983  1.0000
  S   S69       1.0  0.51000  0.32914  0.14207  1.0000
  S   S70       1.0  0.51502  0.27989  0.24378  1.0000
  C   C157      1.0  0.55770  0.28990  0.39746  1.0000
  C   C158      1.0  0.57682  0.27430  0.35910  1.0000
  C   C159      1.0  0.55983  0.28053  0.45057  1.0000
  H   H258      1.0  0.54469  0.29205  0.48005  1.0000
  N   N16       1.0  0.54798  0.15005  0.39079  1.0000
  C   C160      1.0  0.42255  0.27113  0.14502  1.0000
  C   C161      1.0  0.39243  0.26603  0.12346  1.0000
  H   H259      1.0  0.47241  0.25641  0.14444  1.0000
  C   C162      1.0  0.44906  0.25256  0.12795  1.0000
  H   H260      1.0  0.57534  0.28159  0.31794  1.0000
  C   C163      1.0  0.52491  0.12701  0.37094  1.0000
  C   C164      1.0  0.56705  0.13500  0.43391  1.0000
  N   N17       1.0  0.41177  0.30730  0.36095  1.0000
  C   C165      1.0  0.56957  0.15941  0.34710  1.0000
  C   C166      1.0  0.44430  0.29620  0.34494  1.0000
  C   C167      1.0  0.58090  0.25556  0.46553  1.0000
  H   H261      1.0  0.58229  0.24856  0.50671  1.0000
  C   C168      1.0  0.41063  0.31160  0.41912  1.0000
  C   C169      1.0  0.40374  0.33813  0.33448  1.0000
  H   H262      1.0  0.58727  0.17678  0.36094  1.0000
  H   H263      1.0  0.55604  0.17090  0.31382  1.0000
  H   H264      1.0  0.46242  0.31397  0.35549  1.0000
  H   H265      1.0  0.37184  0.28022  0.13662  1.0000
  H   H266      1.0  0.40437  0.33583  0.29049  1.0000
  S   S71       1.0  0.48640  0.35427  0.25889  1.0000
  H   H267      1.0  0.38676  0.32090  0.43244  1.0000
  H   H268      1.0  0.51564  0.19055  0.37971  1.0000
  H   H269      1.0  0.42850  0.32899  0.43227  1.0000
  C   C170      1.0  0.44532  0.22869  0.08966  1.0000
  C   C171      1.0  0.38885  0.24271  0.08440  1.0000
  C   C172      1.0  0.53045  0.17873  0.41113  1.0000
  H   H270      1.0  0.54720  0.19681  0.42571  1.0000
  H   H271      1.0  0.50919  0.13782  0.33979  1.0000
  H   H272      1.0  0.58372  0.15206  0.45150  1.0000
  H   H273      1.0  0.51430  0.17252  0.44469  1.0000
  H   H274      1.0  0.51301  0.33885  0.50943  1.0000
  H   H275      1.0  0.41553  0.28860  0.44044  1.0000
  H   H276      1.0  0.44598  0.29238  0.30135  1.0000
  H   H277      1.0  0.45135  0.27320  0.36463  1.0000
  C   C173      1.0  0.59794  0.24911  0.37410  1.0000
  C   C174      1.0  0.59971  0.23957  0.42735  1.0000
  H   H278      1.0  0.46582  0.21426  0.07670  1.0000
  H   H279      1.0  0.43164  0.34966  0.10989  1.0000
  H   H280      1.0  0.36554  0.23920  0.06766  1.0000
  H   H281      1.0  0.39347  0.25976  0.36474  1.0000
  H   H282      1.0  0.38890  0.27947  0.30146  1.0000
  C   C175      1.0  0.38846  0.28332  0.34522  1.0000
  H   H283      1.0  0.37627  0.34161  0.14142  1.0000
  H   H284      1.0  0.41684  0.36727  0.04939  1.0000
  H   H285      1.0  0.55157  0.12604  0.46656  1.0000
  H   H286      1.0  0.57232  0.36125  0.12476  1.0000
  H   H287      1.0  0.41059  0.13393  0.07278  1.0000
  H   H288      1.0  0.58321  0.13824  0.33100  1.0000
  H   H289      1.0  0.36303  0.16486  0.09962  1.0000
  H   H290      1.0  0.55933  0.32583  0.04988  1.0000
  H   H291      1.0  0.42075  0.35694  0.34524  1.0000
  H   H292      1.0  0.60941  0.52602  0.46815  1.0000
  H   H293      1.0  0.36381  0.42835  0.11462  1.0000
  H   H294      1.0  0.36152  0.35851  0.08029  1.0000
  C   C176      1.0  0.41524  0.22392  0.06759  1.0000
  H   H295      1.0  0.37933  0.34723  0.34572  1.0000
  C   C177      1.0  0.52857  0.35983  0.51240  1.0000
  H   H296      1.0  0.54670  0.35766  0.47993  1.0000
  H   H297      1.0  0.36361  0.29098  0.35650  1.0000
  H   H298      1.0  0.50928  0.11807  0.40343  1.0000
  C   C178      1.0  0.36917  0.36446  0.12122  1.0000
  Fe  Fe34      1.0  0.60615  0.19296  0.52795  1.0000
  H   H299      1.0  0.51339  0.61409  0.04751  1.0000
  Fe  Fe35      1.0  0.52233  0.36818  0.19783  1.0000
  C   C179      1.0  0.59013  0.37284  0.09882  1.0000
  H   H300      1.0  0.57806  0.55335  0.44630  1.0000
  H   H301      1.0  0.55021  0.41437  0.05020  1.0000
  H   H302      1.0  0.53015  0.37780  0.06067  1.0000
  H   H303      1.0  0.58236  0.38972  0.53662  1.0000
  S   S72       1.0  0.37983  0.45832  0.53738  1.0000
  H   H304      1.0  0.59200  0.39792  0.11299  1.0000
  H   H305      1.0  0.60307  0.53259  0.39859  1.0000
  H   H306      1.0  0.59827  0.52693  0.09505  1.0000
  C   C180      1.0  0.54908  0.44275  0.19827  1.0000
  H   H307      1.0  0.54451  0.48099  0.14099  1.0000
  C   C181      1.0  0.40538  0.39386  0.17547  1.0000
  H   H308      1.0  0.55768  0.40961  0.26269  1.0000
  H   H309      1.0  0.55599  0.51038  0.35458  1.0000
  H   H310      1.0  0.41295  0.37158  0.19698  1.0000
  C   C182      1.0  0.59062  0.53008  0.43756  1.0000
  C   C183      1.0  0.54433  0.50931  0.39443  1.0000
  H   H311      1.0  0.58059  0.51670  0.18873  1.0000
  H   H312      1.0  0.53738  0.52378  0.49752  1.0000
  H   H313      1.0  0.53068  0.53231  0.40044  1.0000
  N   N18       1.0  0.56814  0.50353  0.43679  1.0000
  H   H314      1.0  0.44380  0.38882  0.09034  1.0000
  H   H315      1.0  0.51331  0.38164  0.50404  1.0000
  H   H316      1.0  0.60296  0.46708  0.45908  1.0000
  H   H317      1.0  0.56974  0.45289  0.42200  1.0000
  H   H318      1.0  0.53468  0.48144  0.48949  1.0000
  S   S73       1.0  0.52434  0.41741  0.16298  1.0000
  C   C184      1.0  0.38495  0.41710  0.09404  1.0000
  H   H319      1.0  0.40417  0.43488  0.09324  1.0000
  C   C185      1.0  0.58958  0.48337  0.25276  1.0000
  H   H320      1.0  0.37772  0.41285  0.05227  1.0000
  Fe  Fe36      1.0  0.36138  0.41184  0.50800  1.0000
  C   C186      1.0  0.55160  0.50146  0.48868  1.0000
  C   C187      1.0  0.55544  0.47308  0.17777  1.0000
  C   C188      1.0  0.42321  0.37259  0.09116  1.0000
  S   S74       1.0  0.39537  0.47543  0.41203  1.0000
  Fe  Fe37      1.0  0.41962  0.44866  0.47858  1.0000
  N   N19       1.0  0.39567  0.38701  0.12049  1.0000
  H   H321      1.0  0.52667  0.48995  0.39326  1.0000
  C   C189      1.0  0.59532  0.52352  0.05295  1.0000
  H   H322      1.0  0.56890  0.49750  0.52169  1.0000
  C   C190      1.0  0.56279  0.43283  0.24633  1.0000
  H   H323      1.0  0.42580  0.41028  0.17639  1.0000
  H   H324      1.0  0.57776  0.47595  0.06211  1.0000
  H   H325      1.0  0.60059  0.47478  0.38936  1.0000
  S   S75       1.0  0.40270  0.40076  0.45344  1.0000
  Fe  Fe38      1.0  0.37405  0.42847  0.39298  1.0000
  S   S76       1.0  0.47078  0.45467  0.50263  1.0000
  S   S77       1.0  0.36527  0.41315  0.30949  1.0000
  C   C191      1.0  0.58299  0.45315  0.27358  1.0000
  H   H326      1.0  0.59377  0.44514  0.31032  1.0000
  C   C192      1.0  0.57584  0.49330  0.20478  1.0000
  S   S78       1.0  0.60206  0.58921  0.19985  1.0000
  H   H327      1.0  0.38547  0.40538  0.19860  1.0000
  C   C193      1.0  0.58608  0.47316  0.42638  1.0000
  Fe  Fe39      1.0  0.56361  0.21511  0.61942  1.0000
  C   C194      1.0  0.58235  0.26689  0.71379  1.0000
  S   S79       1.0  0.53216  0.25617  0.64760  1.0000
  Fe  Fe40      1.0  0.56664  0.14551  0.58707  1.0000
  H   H328      1.0  0.46068  0.16866  0.79150  1.0000
  H   H329      1.0  0.39260  0.14853  0.72485  1.0000
  S   S80       1.0  0.57178  0.16971  0.66566  1.0000
  C   C195      1.0  0.55943  0.32833  0.74032  1.0000
  C   C196      1.0  0.54088  0.30847  0.70927  1.0000
  C   C197      1.0  0.55292  0.27829  0.69414  1.0000
  H   H330      1.0  0.51753  0.31676  0.69605  1.0000
  C   C198      1.0  0.37642  0.17998  0.66189  1.0000
  C   C199      1.0  0.44337  0.20531  0.87478  1.0000
  H   H331      1.0  0.49766  0.15070  0.61920  1.0000
  N   N20       1.0  0.45941  0.17328  0.87643  1.0000
  C   C200      1.0  0.48191  0.17150  0.92142  1.0000
  C   C201      1.0  0.47709  0.16764  0.82617  1.0000
  H   H332      1.0  0.45905  0.15022  0.69429  1.0000
  C   C202      1.0  0.38244  0.17194  0.71495  1.0000
  S   S81       1.0  0.38278  0.15135  0.61205  1.0000
  C   C203      1.0  0.37472  0.19392  0.75533  1.0000
  C   C204      1.0  0.43524  0.14859  0.88338  1.0000
  C   C205      1.0  0.58973  0.31770  0.75737  1.0000
  H   H333      1.0  0.37932  0.18750  0.79603  1.0000
  H   H334      1.0  0.44657  0.12414  0.88445  1.0000
  H   H335      1.0  0.46928  0.17589  0.95992  1.0000
  S   S82       1.0  0.41061  0.19488  0.01843  1.0000
  H   H336      1.0  0.55030  0.35193  0.75069  1.0000
  H   H337      1.0  0.41792  0.14902  0.85000  1.0000
  H   H338      1.0  0.42153  0.15202  0.92105  1.0000
  C   C206      1.0  0.40659  0.33940  0.64979  1.0000
  H   H339      1.0  0.39506  0.32338  0.62101  1.0000
  H   H340      1.0  0.43224  0.34086  0.63854  1.0000
  H   H341      1.0  0.42631  0.20751  0.84116  1.0000
  H   H342      1.0  0.49562  0.18574  0.81946  1.0000
  C   C207      1.0  0.49399  0.12873  0.64099  1.0000
  H   H343      1.0  0.57607  0.33314  0.61360  1.0000
  C   C208      1.0  0.56424  0.33248  0.57418  1.0000
  H   H344      1.0  0.50068  0.18962  0.91751  1.0000
  H   H345      1.0  0.40506  0.27845  0.68205  1.0000
  H   H346      1.0  0.55004  0.31038  0.57368  1.0000
  H   H347      1.0  0.42957  0.21030  0.91190  1.0000
  H   H348      1.0  0.46095  0.22452  0.87007  1.0000
  Fe  Fe41      1.0  0.36514  0.20657  0.97536  1.0000
  C   C209      1.0  0.41650  0.29508  0.70992  1.0000
  H   H349      1.0  0.44264  0.29425  0.70119  1.0000
  N   N21       1.0  0.40266  0.32796  0.70497  1.0000
  H   H350      1.0  0.57062  0.33680  0.98341  1.0000
  C   C210      1.0  0.57758  0.33833  0.02585  1.0000
  C   C211      1.0  0.36825  0.32802  0.71864  1.0000
  H   H351      1.0  0.59118  0.24304  0.70410  1.0000
  H   H352      1.0  0.41294  0.28530  0.75067  1.0000
  H   H353      1.0  0.48922  0.14353  0.82574  1.0000
  C   C212      1.0  0.47228  0.12851  0.68361  1.0000
  C   C213      1.0  0.60053  0.28646  0.74605  1.0000
  H   H354      1.0  0.49409  0.14746  0.92422  1.0000
  H   H355      1.0  0.50464  0.34121  0.60818  1.0000
  H   H356      1.0  0.36550  0.14063  0.00873  1.0000
  S   S83       1.0  0.55343  0.19038  0.54319  1.0000
  H   H357      1.0  0.58312  0.32978  0.54307  1.0000
  H   H358      1.0  0.60054  0.32446  0.03094  1.0000
  N   N22       1.0  0.54373  0.36145  0.56514  1.0000
  H   H359      1.0  0.39518  0.36361  0.64414  1.0000
  C   C214      1.0  0.51864  0.36337  0.60659  1.0000
  H   H360      1.0  0.41695  0.34127  0.78350  1.0000
  C   C215      1.0  0.41924  0.34934  0.74153  1.0000
  H   H361      1.0  0.44525  0.35028  0.73212  1.0000
  C   C216      1.0  0.36154  0.22418  0.74263  1.0000
  C   C217      1.0  0.36385  0.21042  0.64918  1.0000
  H   H362      1.0  0.54831  0.41246  0.56151  1.0000
  C   C218      1.0  0.58353  0.49471  0.03430  1.0000
  S   S84       1.0  0.60671  0.50206  0.71699  1.0000
  C   C219      1.0  0.60453  0.38764  0.00938  1.0000
  C   C220      1.0  0.54911  0.38909  0.03666  1.0000
  H   H363      1.0  0.60734  0.41299  0.02145  1.0000
  H   H364      1.0  0.55166  0.60017  0.02326  1.0000
  H   H365      1.0  0.59748  0.38813  0.96681  1.0000
  H   H366      1.0  0.50158  0.38364  0.59889  1.0000
  H   H367      1.0  0.52890  0.36717  0.64665  1.0000
  C   C221      1.0  0.59821  0.54342  0.96274  1.0000
  C   C222      1.0  0.44910  0.42543  0.59230  1.0000
  H   H368      1.0  0.60381  0.56226  0.93495  1.0000
  S   S85       1.0  0.54041  0.47153  0.80738  1.0000
  H   H369      1.0  0.52014  0.60919  0.97739  1.0000
  C   C223      1.0  0.49770  0.45463  0.60161  1.0000
  C   C224      1.0  0.47269  0.44435  0.57000  1.0000
  H   H370      1.0  0.54130  0.38980  0.99452  1.0000
  H   H371      1.0  0.51803  0.45438  0.67995  1.0000
  Fe  Fe42      1.0  0.59016  0.39194  0.79645  1.0000
  C   C225      1.0  0.45018  0.41721  0.64614  1.0000
  S   S86       1.0  0.54574  0.39634  0.84574  1.0000
  C   C226      1.0  0.56327  0.39023  0.56760  1.0000
  H   H372      1.0  0.43167  0.40311  0.66333  1.0000
  C   C227      1.0  0.57909  0.49008  0.97992  1.0000
  Fe  Fe43      1.0  0.52587  0.42402  0.77659  1.0000
  S   S87       1.0  0.56901  0.41601  0.72483  1.0000
  H   H373      1.0  0.40932  0.37436  0.73925  1.0000
  C   C228      1.0  0.58662  0.51438  0.94398  1.0000
  C   C229      1.0  0.60266  0.54793  0.01727  1.0000
  C   C230      1.0  0.49903  0.44591  0.65545  1.0000
  H   H374      1.0  0.43024  0.41660  0.56794  1.0000
  Fe  Fe44      1.0  0.56507  0.44314  0.87160  1.0000
  Fe  Fe45      1.0  0.58559  0.46118  0.76127  1.0000
  H   H375      1.0  0.58316  0.51091  0.90191  1.0000
  H   H376      1.0  0.51576  0.46968  0.58488  1.0000
  S   S88       1.0  0.56366  0.45377  0.95873  1.0000
  C   C231      1.0  0.47537  0.42691  0.67758  1.0000
  S   S89       1.0  0.47809  0.41293  0.74306  1.0000
  H   H377      1.0  0.57499  0.39232  0.60692  1.0000
  H   H378      1.0  0.36427  0.31941  0.75999  1.0000
  N   N23       1.0  0.58035  0.37195  0.04265  1.0000
  Fe  Fe46      1.0  0.57967  0.74666  0.49952  1.0000
  S   S90       1.0  0.56657  0.77956  0.43203  1.0000
  Fe  Fe47      1.0  0.52933  0.80039  0.48727  1.0000
  H   H379      1.0  0.53730  0.83476  0.39707  1.0000
  C   C232      1.0  0.51665  0.84695  0.38051  1.0000
  C   C233      1.0  0.48627  0.84259  0.40256  1.0000
  S   S91       1.0  0.48104  0.81681  0.45706  1.0000
  C   C234      1.0  0.39398  0.73029  0.07325  1.0000
  C   C235      1.0  0.41789  0.73451  0.11066  1.0000
  H   H380      1.0  0.44268  0.73039  0.09988  1.0000
  C   C236      1.0  0.37780  0.74916  0.17674  1.0000
  C   C237      1.0  0.40984  0.74398  0.16224  1.0000
  H   H381      1.0  0.42856  0.74777  0.19070  1.0000
  S   S92       1.0  0.59267  0.69411  0.49120  1.0000
  H   H382      1.0  0.37469  0.83523  0.24648  1.0000
  S   S93       1.0  0.56068  0.83725  0.52208  1.0000
  Fe  Fe48      1.0  0.59867  0.81410  0.47101  1.0000
  C   C238      1.0  0.60789  0.68602  0.42722  1.0000
  H   H383      1.0  0.40627  0.80329  0.42971  1.0000
  C   C239      1.0  0.61028  0.65462  0.40782  1.0000
  C   C240      1.0  0.40647  0.83196  0.15338  1.0000
  H   H384      1.0  0.60312  0.63495  0.43277  1.0000
  H   H385      1.0  0.38230  0.83009  0.38921  1.0000
  H   H386      1.0  0.57777  0.64388  0.07076  1.0000
  C   C241      1.0  0.38950  0.85607  0.23623  1.0000
  C   C242      1.0  0.55651  0.65965  0.06160  1.0000
  H   H387      1.0  0.56466  0.68477  0.05987  1.0000
  H   H388      1.0  0.42409  0.80091  0.24322  1.0000
  N   N24       1.0  0.41749  0.84621  0.20333  1.0000
  H   H389      1.0  0.53949  0.65791  0.09553  1.0000
  H   H390      1.0  0.38991  0.81227  0.16114  1.0000
  H   H391      1.0  0.42684  0.82183  0.12953  1.0000
  H   H392      1.0  0.44661  0.83251  0.27030  1.0000
  C   C243      1.0  0.43761  0.82248  0.23270  1.0000
  H   H393      1.0  0.45875  0.81432  0.20875  1.0000
  S   S94       1.0  0.36933  0.76563  0.23913  1.0000
  H   H394      1.0  0.39228  0.79622  0.52504  1.0000
  H   H395      1.0  0.39356  0.84995  0.12804  1.0000
  H   H396      1.0  0.43643  0.85626  0.39800  1.0000
  C   C244      1.0  0.45988  0.85940  0.38136  1.0000
  C   C245      1.0  0.38160  0.81358  0.42394  1.0000
  C   C246      1.0  0.39161  0.85603  0.48577  1.0000
  H   H397      1.0  0.41638  0.84637  0.49278  1.0000
  N   N25       1.0  0.36972  0.83033  0.47207  1.0000
  C   C247      1.0  0.36826  0.80727  0.51659  1.0000
  H   H398      1.0  0.36595  0.79354  0.41332  1.0000
  S   S95       1.0  0.47727  0.77694  0.04451  1.0000
  H   H399      1.0  0.40906  0.09173  0.06202  1.0000
  H   H400      1.0  0.39692  0.86703  0.27417  1.0000
  C   C248      1.0  0.36176  0.73408  0.08822  1.0000
  H   H401      1.0  0.60274  0.91139  0.47975  1.0000
  S   S96       1.0  0.45372  0.86713  0.05547  1.0000
  H   H402      1.0  0.54406  0.87069  0.32011  1.0000
  C   C249      1.0  0.52055  0.86762  0.33710  1.0000
  H   H403      1.0  0.37380  0.87391  0.21510  1.0000
  H   H404      1.0  0.38355  0.86889  0.52229  1.0000
  C   C250      1.0  0.36099  0.93622  0.45676  1.0000
  H   H405      1.0  0.53747  0.10584  0.35323  1.0000
  H   H406      1.0  0.60568  0.90202  0.36005  1.0000
  H   H407      1.0  0.56931  0.04398  0.29626  1.0000
  H   H408      1.0  0.40658  0.10721  0.12826  1.0000
  C   C251      1.0  0.52789  0.04049  0.34679  1.0000
  C   C252      1.0  0.50050  0.95869  0.04919  1.0000
  H   H409      1.0  0.45998  0.03750  0.51974  1.0000
  C   C253      1.0  0.43159  0.09540  0.52887  1.0000
  C   C254      1.0  0.38944  0.94295  0.48253  1.0000
  C   C255      1.0  0.58123  0.05005  0.37847  1.0000
  H   H410      1.0  0.40420  0.91593  0.07043  1.0000
  H   H411      1.0  0.55519  0.97246  0.40201  1.0000
  H   H412      1.0  0.60392  0.97446  0.34555  1.0000
  S   S97       1.0  0.49944  0.91432  0.26806  1.0000
  C   C256      1.0  0.46395  0.88110  0.33957  1.0000
  H   H413      1.0  0.54434  0.97985  0.11679  1.0000
  H   H414      1.0  0.57028  0.92609  0.34521  1.0000
  H   H415      1.0  0.52166  0.97321  0.17667  1.0000
  H   H416      1.0  0.54478  0.92146  0.09864  1.0000
  H   H417      1.0  0.51188  0.03782  0.31402  1.0000
  C   C257      1.0  0.57009  0.96113  0.43390  1.0000
  H   H418      1.0  0.41319  0.05006  0.46135  1.0000
  C   C258      1.0  0.44681  0.04829  0.14684  1.0000
  H   H419      1.0  0.58555  0.05572  0.46313  1.0000
  H   H420      1.0  0.57107  0.89955  0.40158  1.0000
  C   C259      1.0  0.58558  0.91648  0.37797  1.0000
  H   H421      1.0  0.44756  0.09311  0.49344  1.0000
  H   H422      1.0  0.37868  0.07092  0.48771  1.0000
  H   H423      1.0  0.45670  0.93067  0.11099  1.0000
  N   N26       1.0  0.59750  0.94235  0.41155  1.0000
  H   H424      1.0  0.52760  0.05015  0.48070  1.0000
  C   C260      1.0  0.43649  0.87445  0.19093  1.0000
  H   H425      1.0  0.42258  0.89237  0.16694  1.0000
  H   H426      1.0  0.44350  0.89472  0.32482  1.0000
  H   H427      1.0  0.38733  0.03002  0.50684  1.0000
  C   C261      1.0  0.39832  0.05333  0.49784  1.0000
  H   H428      1.0  0.39688  0.00951  0.06495  1.0000
  C   C262      1.0  0.56045  0.04429  0.33672  1.0000
  S   S98       1.0  0.39741  0.01421  0.33342  1.0000
  H   H429      1.0  0.39287  0.87415  0.45338  1.0000
  C   C263      1.0  0.42023  0.03151  0.13064  1.0000
  S   S99       1.0  0.46566  0.00305  0.26684  1.0000
  C   C264      1.0  0.51586  0.04295  0.39850  1.0000
  C   C265      1.0  0.41720  0.02289  0.07744  1.0000
  C   C266      1.0  0.51974  0.97766  0.13314  1.0000
  S   S100      1.0  0.39079  0.02100  0.17641  1.0000
  H   H430      1.0  0.52189  0.91495  0.15812  1.0000
  H   H431      1.0  0.45854  0.86765  0.16819  1.0000
  C   C267      1.0  0.56965  0.05084  0.43068  1.0000
  Fe  Fe49      1.0  0.39931  0.96117  0.34745  1.0000
  H   H432      1.0  0.44416  0.88642  0.22763  1.0000
  C   C268      1.0  0.49430  0.88523  0.31738  1.0000
  H   H433      1.0  0.41039  0.94877  0.45988  1.0000
  H   H434      1.0  0.50709  0.00125  0.12757  1.0000
  C   C269      1.0  0.52008  0.92099  0.11513  1.0000
  Fe  Fe50      1.0  0.41315  0.00144  0.25067  1.0000
  N   N27       1.0  0.50262  0.95188  0.10671  1.0000
  S   S101      1.0  0.45040  0.95948  0.37297  1.0000
  C   C270      1.0  0.47010  0.95013  0.12950  1.0000
  H   H435      1.0  0.45605  0.97284  0.12321  1.0000
  C   C271      1.0  0.47010  0.05690  0.10959  1.0000
  C   C272      1.0  0.46722  0.04806  0.05639  1.0000
  Fe  Fe51      1.0  0.45005  0.01137  0.35130  1.0000
  H   H436      1.0  0.49042  0.07030  0.12201  1.0000
  H   H437      1.0  0.50780  0.90104  0.09554  1.0000
  H   H438      1.0  0.55426  0.94577  0.45806  1.0000
  H   H439      1.0  0.57822  0.98070  0.45985  1.0000
  H   H440      1.0  0.44899  0.05533  0.18786  1.0000
  C   C273      1.0  0.53681  0.04788  0.44058  1.0000
  S   S102      1.0  0.41059  0.94853  0.26305  1.0000
  H   H441      1.0  0.47080  0.94545  0.17298  1.0000
  S   S103      1.0  0.47453  0.04248  0.41003  1.0000
  Fe  Fe52      1.0  0.46163  0.95138  0.28729  1.0000
  C   C274      1.0  0.39121  0.94096  0.53793  1.0000
  H   H442      1.0  0.58195  0.11439  0.41923  1.0000
  C   C275      1.0  0.39907  0.11173  0.08652  1.0000
  H   H443      1.0  0.41268  0.11395  0.51986  1.0000
  N   N28       1.0  0.36389  0.11450  0.08223  1.0000
  S   S104      1.0  0.58282  0.80694  0.66846  1.0000
  S   S105      1.0  0.48012  0.74678  0.92348  1.0000
  Fe  Fe53      1.0  0.51329  0.77077  0.97910  1.0000
  C   C276      1.0  0.52219  0.80466  0.79380  1.0000
  H   H444      1.0  0.57301  0.80387  0.78117  1.0000
  C   C277      1.0  0.59753  0.74722  0.85330  1.0000
  H   H445      1.0  0.55132  0.75734  0.88909  1.0000
  H   H446      1.0  0.52416  0.80351  0.83645  1.0000
  C   C278      1.0  0.54772  0.80634  0.70698  1.0000
  S   S106      1.0  0.40472  0.72324  0.00697  1.0000
  C   C279      1.0  0.54991  0.80496  0.76236  1.0000
  Fe  Fe54      1.0  0.44316  0.75729  0.98606  1.0000
  S   S107      1.0  0.56096  0.74970  0.00243  1.0000
  Fe  Fe55      1.0  0.57388  0.79910  0.58158  1.0000
  C   C280      1.0  0.57618  0.75104  0.89623  1.0000
  H   H447      1.0  0.58909  0.75038  0.81310  1.0000
  C   C281      1.0  0.58707  0.74626  0.94819  1.0000
  S   S108      1.0  0.50538  0.82012  0.94508  1.0000
  Fe  Fe56      1.0  0.46854  0.79676  0.89503  1.0000
  C   C282      1.0  0.49211  0.80594  0.77004  1.0000
  H   H448      1.0  0.46664  0.80758  0.69599  1.0000
  Fe  Fe57      1.0  0.46622  0.82415  0.00607  1.0000
  C   C283      1.0  0.48984  0.80715  0.71463  1.0000
  S   S109      1.0  0.45729  0.80686  0.80934  1.0000
  S   S110      1.0  0.42863  0.80533  0.95323  1.0000
  H   H449      1.0  0.51574  0.80849  0.64034  1.0000
  C   C284      1.0  0.51763  0.80736  0.68309  1.0000
  H   H450      1.0  0.57395  0.72381  0.66816  1.0000
  C   C285      1.0  0.58990  0.71099  0.63915  1.0000
  H   H451      1.0  0.58989  0.72545  0.60206  1.0000
  H   H452      1.0  0.57910  0.68780  0.62920  1.0000
  H   H453      1.0  0.40891  0.75072  0.88826  1.0000
  H   H454      1.0  0.39100  0.71254  0.89245  1.0000
  C   C286      1.0  0.39085  0.73549  0.86977  1.0000
  H   H455      1.0  0.39917  0.73024  0.82859  1.0000
  N   N29       1.0  0.54159  0.65045  0.01115  1.0000
  H   H456      1.0  0.59555  0.85702  0.76309  1.0000
  H   H457      1.0  0.50181  0.66582  0.96256  1.0000
  C   C287      1.0  0.51357  0.67193  0.00048  1.0000
  S   S111      1.0  0.53894  0.76396  0.55167  1.0000
  H   H458      1.0  0.58662  0.63723  0.97445  1.0000
  H   H459      1.0  0.37791  0.79804  0.85779  1.0000
  H   H460      1.0  0.60579  0.69671  0.73895  1.0000
  C   C288      1.0  0.53118  0.61705  0.01498  1.0000
  H   H461      1.0  0.52053  0.69731  0.99741  1.0000
  H   H462      1.0  0.55488  0.64659  0.92873  1.0000
  C   C289      1.0  0.56519  0.65322  0.96755  1.0000
  H   H463      1.0  0.57364  0.67814  0.96382  1.0000
  H   H464      1.0  0.36663  0.77803  0.79830  1.0000
  H   H465      1.0  0.44199  0.86105  0.70194  1.0000
  H   H466      1.0  0.41505  0.85940  0.75738  1.0000
  H   H467      1.0  0.36582  0.77286  0.94654  1.0000
  H   H468      1.0  0.60612  0.85910  0.83198  1.0000
  H   H469      1.0  0.49531  0.67060  0.03271  1.0000
  H   H470      1.0  0.45611  0.87873  0.81804  1.0000
  H   H471      1.0  0.52459  0.96016  0.03054  1.0000
  N   N30       1.0  0.60595  0.06559  0.72539  1.0000
  C   C290      1.0  0.59268  0.07306  0.67242  1.0000
  C   C291      1.0  0.44089  0.03075  0.04054  1.0000
  H   H472      1.0  0.48745  0.93983  0.02811  1.0000
  H   H473      1.0  0.58848  0.05519  0.80394  1.0000
  H   H474      1.0  0.56389  0.08333  0.76666  1.0000
  C   C292      1.0  0.39957  0.93985  0.99482  1.0000
  C   C293      1.0  0.36426  0.93307  0.56776  1.0000
  S   S112      1.0  0.43435  0.05130  0.89880  1.0000
  C   C294      1.0  0.44349  0.04061  0.55429  1.0000
  H   H475      1.0  0.47045  0.91030  0.68195  1.0000
  H   H476      1.0  0.48368  0.87868  0.76347  1.0000
  H   H477      1.0  0.43385  0.01677  0.56391  1.0000
  C   C295      1.0  0.57942  0.06129  0.76356  1.0000
  H   H478      1.0  0.57812  0.05332  0.65735  1.0000
  C   C296      1.0  0.41286  0.91708  0.02995  1.0000
  H   H479      1.0  0.57711  0.09511  0.67328  1.0000
  H   H480      1.0  0.40402  0.88227  0.69927  1.0000
  N   N31       1.0  0.43895  0.90387  0.74863  1.0000
  C   C297      1.0  0.58102  0.97628  0.82419  1.0000
  S   S113      1.0  0.54451  0.97642  0.79005  1.0000
  H   H481      1.0  0.43279  0.93206  0.67764  1.0000
  H   H482      1.0  0.46702  0.88099  0.94649  1.0000
  C   C298      1.0  0.39692  0.06842  0.59029  1.0000
  Fe  Fe58      1.0  0.48369  0.04123  0.92944  1.0000
  H   H483      1.0  0.41351  0.94540  0.55762  1.0000
  H   H484      1.0  0.42446  0.94425  0.79673  1.0000
  C   C299      1.0  0.41066  0.94125  0.94238  1.0000
  H   H485      1.0  0.38690  0.04530  0.60319  1.0000
  H   H486      1.0  0.37649  0.08542  0.58243  1.0000
  H   H487      1.0  0.46324  0.94548  0.72145  1.0000
  H   H488      1.0  0.40370  0.90839  0.81108  1.0000
  H   H489      1.0  0.45812  0.04817  0.58843  1.0000
  H   H490      1.0  0.56158  0.99971  0.89374  1.0000
  H   H491      1.0  0.60741  0.95302  0.76080  1.0000
  S   S114      1.0  0.45616  0.00795  0.79475  1.0000
  Fe  Fe59      1.0  0.50439  0.00267  0.83314  1.0000
  C   C300      1.0  0.51070  0.10056  0.62654  1.0000
  S   S115      1.0  0.49682  0.05817  0.01028  1.0000
  S   S116      1.0  0.39513  0.97004  0.89846  1.0000
  S   S117      1.0  0.36732  0.92933  0.63669  1.0000
  C   C301      1.0  0.41435  0.92269  0.77845  1.0000
  H   H492      1.0  0.43885  0.02295  0.00002  1.0000
  C   C302      1.0  0.43532  0.92039  0.92538  1.0000
  Fe  Fe60      1.0  0.43665  0.99966  0.87635  1.0000
  C   C303      1.0  0.45195  0.92381  0.70549  1.0000
  H   H493      1.0  0.38119  0.95664  0.00862  1.0000
  S   S118      1.0  0.48457  0.98875  0.91255  1.0000
  S   S119      1.0  0.53931  0.10109  0.57590  1.0000
  H   H494      1.0  0.47717  0.91443  0.80186  1.0000
  H   H495      1.0  0.48254  0.05068  0.72121  1.0000
  Fe  Fe61      1.0  0.45838  0.05901  0.82067  1.0000
  C   C304      1.0  0.48528  0.07236  0.69861  1.0000
  H   H496      1.0  0.44462  0.92222  0.88553  1.0000
  C   C305      1.0  0.43695  0.89563  0.01229  1.0000
  H   H497      1.0  0.51889  0.05047  0.64367  1.0000
  C   C306      1.0  0.58279  0.98933  0.87500  1.0000
  C   C307      1.0  0.46512  0.89356  0.78462  1.0000
  C   C308      1.0  0.44808  0.89720  0.96000  1.0000
  C   C309      1.0  0.46844  0.10045  0.71311  1.0000
  S   S120      1.0  0.50803  0.05459  0.85326  1.0000
  C   C310      1.0  0.50593  0.07225  0.65473  1.0000
  H   H498      1.0  0.41040  0.07824  0.62428  1.0000
  S   S121      1.0  0.44391  0.10081  0.76960  1.0000
  H   H499      1.0  0.56391  0.04150  0.75127  1.0000
  H   H500      1.0  0.39448  0.93113  0.75213  1.0000
  C   C311      1.0  0.42432  0.87540  0.72576  1.0000
  C   C312      1.0  0.60867  0.96295  0.80025  1.0000
  H   H501      1.0  0.36332  0.09805  0.00155  1.0000
  H   H502      1.0  0.44600  0.10465  0.56213  1.0000
  H   H503      1.0  0.48759  0.98187  0.04133  1.0000
  N   N32       1.0  0.41756  0.06444  0.54279  1.0000
  Fe  Fe62      1.0  0.75018  0.20256  0.15471  1.0000
  S   S122      1.0  0.79165  0.17484  0.18968  1.0000
  S   S123      1.0  0.72055  0.23218  0.21251  1.0000
  Fe  Fe63      1.0  0.77677  0.13507  0.13726  1.0000
  Fe  Fe64      1.0  0.81913  0.19122  0.11861  1.0000
  S   S124      1.0  0.73271  0.16123  0.10790  1.0000
  S   S125      1.0  0.77898  0.22270  0.08774  1.0000
  C   C313      1.0  0.68234  0.24391  0.18933  1.0000
  C   C314      1.0  0.67337  0.23724  0.13736  1.0000
  H   H504      1.0  0.68998  0.22493  0.11080  1.0000
  H   H505      1.0  0.83801  0.21661  0.22264  1.0000
  C   C315      1.0  0.66061  0.25997  0.22335  1.0000
  C   C316      1.0  0.64278  0.24662  0.11943  1.0000
  C   C317      1.0  0.80932  0.30330  0.14220  1.0000
  N   N33       1.0  0.69244  0.14844  0.30972  1.0000
  C   C318      1.0  0.62993  0.26930  0.20542  1.0000
  H   H506      1.0  0.66741  0.26512  0.26368  1.0000
  N   N34       1.0  0.78054  0.31422  0.17222  1.0000
  C   C319      1.0  0.78014  0.34946  0.17645  1.0000
  C   C320      1.0  0.67427  0.16233  0.26457  1.0000
  H   H507      1.0  0.64919  0.15434  0.26454  1.0000
  H   H508      1.0  0.81118  0.27674  0.13978  1.0000
  S   S126      1.0  0.80783  0.14891  0.06885  1.0000
  H   H509      1.0  0.67347  0.18898  0.26589  1.0000
  C   C321      1.0  0.78122  0.29984  0.22594  1.0000
  H   H510      1.0  0.83961  0.25923  0.28975  1.0000
  H   H511      1.0  0.63596  0.24139  0.07913  1.0000
  H   H512      1.0  0.78226  0.27320  0.22408  1.0000
  C   C322      1.0  0.67751  0.15930  0.36015  1.0000
  C   C323      1.0  0.85431  0.26065  0.25436  1.0000
  H   H513      1.0  0.65248  0.15133  0.36402  1.0000
  H   H514      1.0  0.67678  0.18589  0.36326  1.0000
  H   H515      1.0  0.73775  0.15104  0.26947  1.0000
  H   H516      1.0  0.75943  0.30684  0.24921  1.0000
  C   C324      1.0  0.85316  0.23661  0.21616  1.0000
  H   H517      1.0  0.72675  0.18563  0.30803  1.0000
  C   C325      1.0  0.72576  0.15904  0.30695  1.0000
  H   H518      1.0  0.80239  0.30749  0.24863  1.0000
  H   H519      1.0  0.80173  0.35783  0.19721  1.0000
  H   H520      1.0  0.68544  0.15538  0.22586  1.0000
  H   H521      1.0  0.83152  0.31135  0.16134  1.0000
  H   H522      1.0  0.80915  0.31287  0.10089  1.0000
  C   C326      1.0  0.75153  0.30434  0.14435  1.0000
  S   S127      1.0  0.62314  0.20606  0.44623  1.0000
  H   H523      1.0  0.75088  0.27787  0.14107  1.0000
  H   H524      1.0  0.74021  0.14916  0.34053  1.0000
  H   H525      1.0  0.72936  0.31216  0.16597  1.0000
  H   H526      1.0  0.61352  0.36004  0.10511  1.0000
  H   H527      1.0  0.75030  0.31443  0.10344  1.0000
  H   H528      1.0  0.78498  0.16120  0.53619  1.0000
  C   C327      1.0  0.62098  0.26264  0.15333  1.0000
  H   H529      1.0  0.61249  0.23686  0.34440  1.0000
  H   H530      1.0  0.69086  0.14965  0.39511  1.0000
  H   H531      1.0  0.74781  0.14094  0.53776  1.0000
  H   H532      1.0  0.75883  0.35876  0.19878  1.0000
  C   C328      1.0  0.77419  0.13726  0.53374  1.0000
  H   H533      1.0  0.77908  0.12762  0.49329  1.0000
  H   H534      1.0  0.77980  0.36110  0.13657  1.0000
  H   H535      1.0  0.61323  0.28158  0.23185  1.0000
  H   H536      1.0  0.80738  0.11902  0.24374  1.0000
  Fe  Fe65      1.0  0.76526  0.17884  0.04367  1.0000
  H   H537      1.0  0.80571  0.11614  0.34191  1.0000
  H   H538      1.0  0.71935  0.43588  0.32409  1.0000
  H   H539      1.0  0.83238  0.48487  0.18304  1.0000
  H   H540      1.0  0.68604  0.45804  0.35318  1.0000
  H   H541      1.0  0.85809  0.49582  0.27845  1.0000
  C   C329      1.0  0.75686  0.47239  0.14121  1.0000
  C   C330      1.0  0.76289  0.52786  0.16588  1.0000
  H   H542      1.0  0.70678  0.56618  0.07157  1.0000
  H   H543      1.0  0.76937  0.59882  0.07145  1.0000
  C   C331      1.0  0.85535  0.50686  0.41198  1.0000
  C   C332      1.0  0.74779  0.61351  0.06012  1.0000
  S   S128      1.0  0.61482  0.50869  0.28713  1.0000
  H   H544      1.0  0.71683  0.61248  0.39228  1.0000
  C   C333      1.0  0.75537  0.48694  0.30402  1.0000
  H   H545      1.0  0.72816  0.60609  0.32440  1.0000
  C   C334      1.0  0.82502  0.52786  0.31906  1.0000
  H   H546      1.0  0.70800  0.50843  0.23856  1.0000
  S   S129      1.0  0.80388  0.42592  0.15118  1.0000
  S   S130      1.0  0.66736  0.47832  0.49191  1.0000
  H   H547      1.0  0.74212  0.45358  0.12670  1.0000
  S   S131      1.0  0.75780  0.50032  0.47679  1.0000
  S   S132      1.0  0.66968  0.61342  0.14991  1.0000
  C   C335      1.0  0.80776  0.48990  0.17293  1.0000
  S   S133      1.0  0.67015  0.57832  0.26548  1.0000
  Fe  Fe66      1.0  0.63172  0.58016  0.12625  1.0000
  Fe  Fe67      1.0  0.70739  0.51196  0.50159  1.0000
  H   H548      1.0  0.68376  0.51764  0.34760  1.0000
  S   S134      1.0  0.70567  0.56187  0.46928  1.0000
  H   H549      1.0  0.76413  0.46548  0.28160  1.0000
  Fe  Fe68      1.0  0.85063  0.41781  0.19330  1.0000
  N   N35       1.0  0.72045  0.48683  0.31320  1.0000
  Fe  Fe69      1.0  0.69357  0.57049  0.18647  1.0000
  H   H550      1.0  0.67763  0.48432  0.26693  1.0000
  H   H551      1.0  0.71775  0.53796  0.32076  1.0000
  C   C336      1.0  0.78866  0.46541  0.15520  1.0000
  S   S135      1.0  0.77577  0.57052  0.52783  1.0000
  C   C337      1.0  0.85032  0.50508  0.31646  1.0000
  H   H552      1.0  0.71938  0.50873  0.13617  1.0000
  Fe  Fe70      1.0  0.63162  0.54795  0.23350  1.0000
  H   H553      1.0  0.81333  0.53608  0.28325  1.0000
  C   C338      1.0  0.81384  0.53888  0.36823  1.0000
  S   S136      1.0  0.74681  0.56639  0.17798  1.0000
  H   H554      1.0  0.81002  0.54010  0.19066  1.0000
  H   H555      1.0  0.76869  0.48757  0.34208  1.0000
  H   H556      1.0  0.82093  0.53724  0.45284  1.0000
  H   H557      1.0  0.76218  0.50836  0.28058  1.0000
  S   S137      1.0  0.77877  0.56281  0.37214  1.0000
  C   C339      1.0  0.79505  0.52118  0.17731  1.0000
  C   C340      1.0  0.82921  0.52859  0.41468  1.0000
  C   C341      1.0  0.71022  0.51607  0.34213  1.0000
  S   S138      1.0  0.84751  0.40449  0.27916  1.0000
  S   S139      1.0  0.65771  0.53634  0.15749  1.0000
  H   H558      1.0  0.72445  0.45820  0.38411  1.0000
  H   H559      1.0  0.71247  0.46555  0.23710  1.0000
  C   C342      1.0  0.71224  0.45841  0.34496  1.0000
  Fe  Fe71      1.0  0.75752  0.55177  0.45114  1.0000
  H   H560      1.0  0.72128  0.51668  0.38193  1.0000
  C   C343      1.0  0.70391  0.48618  0.26166  1.0000
  C   C344      1.0  0.74394  0.50360  0.14669  1.0000
  C   C345      1.0  0.65492  0.30704  0.63292  1.0000
  H   H561      1.0  0.66944  0.31301  0.73716  1.0000
  Fe  Fe72      1.0  0.80697  0.26003  0.64235  1.0000
  S   S140      1.0  0.78367  0.27733  0.71757  1.0000
  C   C346      1.0  0.71221  0.30273  0.62279  1.0000
  Fe  Fe73      1.0  0.79351  0.32613  0.68585  1.0000
  H   H562      1.0  0.66432  0.25833  0.70163  1.0000
  S   S141      1.0  0.81282  0.30894  0.60772  1.0000
  S   S142      1.0  0.75168  0.17970  0.95784  1.0000
  S   S143      1.0  0.66232  0.16815  0.69949  1.0000
  C   C347      1.0  0.82373  0.23672  0.86258  1.0000
  C   C348      1.0  0.80732  0.21183  0.94530  1.0000
  C   C349      1.0  0.77978  0.20099  0.92097  1.0000
  C   C350      1.0  0.77470  0.20720  0.86698  1.0000
  C   C351      1.0  0.79669  0.22501  0.83780  1.0000
  H   H563      1.0  0.81174  0.20669  0.98668  1.0000
  H   H564      1.0  0.75356  0.19865  0.84788  1.0000
  H   H565      1.0  0.79268  0.22960  0.79623  1.0000
  C   C352      1.0  0.75165  0.20701  0.62198  1.0000
  H   H566      1.0  0.63408  0.30393  0.65976  1.0000
  C   C353      1.0  0.69893  0.18517  0.61450  1.0000
  C   C354      1.0  0.69748  0.18109  0.66958  1.0000
  C   C355      1.0  0.72354  0.18913  0.70077  1.0000
  C   C356      1.0  0.75054  0.20237  0.67700  1.0000
  H   H567      1.0  0.68245  0.24800  0.63929  1.0000
  H   H568      1.0  0.72251  0.18591  0.74339  1.0000
  H   H569      1.0  0.77064  0.20854  0.70121  1.0000
  N   N36       1.0  0.68515  0.29762  0.65956  1.0000
  S   S144      1.0  0.78539  0.22275  0.59139  1.0000
  H   H570      1.0  0.70700  0.25583  0.69563  1.0000
  C   C357      1.0  0.72601  0.19803  0.59073  1.0000
  H   H571      1.0  0.67900  0.17872  0.59018  1.0000
  Fe  Fe74      1.0  0.62288  0.17438  0.64049  1.0000
  H   H572      1.0  0.65115  0.29227  0.59701  1.0000
  H   H573      1.0  0.71035  0.28813  0.58620  1.0000
  H   H574      1.0  0.71356  0.32834  0.61091  1.0000
  C   C358      1.0  0.68469  0.26347  0.67468  1.0000
  C   C359      1.0  0.68883  0.31714  0.70775  1.0000
  C   C360      1.0  0.82924  0.22965  0.91616  1.0000
  H   H575      1.0  0.73541  0.29590  0.64149  1.0000
  Fe  Fe75      1.0  0.83373  0.27805  0.74841  1.0000
  H   H576      1.0  0.68826  0.34318  0.69832  1.0000
  H   H577      1.0  0.65477  0.33264  0.62065  1.0000
  C   C361      1.0  0.78008  0.12910  0.62815  1.0000
  H   H578      1.0  0.62329  0.27769  0.76120  1.0000
  S   S145      1.0  0.61865  0.14576  0.56599  1.0000
  S   S146      1.0  0.61534  0.22197  0.60031  1.0000
  H   H579      1.0  0.79208  0.15225  0.63325  1.0000
  H   H580      1.0  0.71198  0.31148  0.72780  1.0000
  H   H581      1.0  0.85025  0.23838  0.93541  1.0000
  S   S147      1.0  0.84164  0.32888  0.72348  1.0000
  H   H582      1.0  0.83416  0.13379  0.57123  1.0000
  S   S148      1.0  0.85638  0.25637  0.67580  1.0000
  S   S149      1.0  0.85097  0.26025  0.82769  1.0000
  H   H583      1.0  0.72686  0.20145  0.54816  1.0000
  S   S150      1.0  0.61507  0.34396  0.78925  1.0000
  H   H584      1.0  0.75394  0.13369  0.63425  1.0000
  H   H585      1.0  0.75544  0.57745  0.64102  1.0000
  S   S151      1.0  0.75407  0.36362  0.68490  1.0000
  H   H586      1.0  0.78455  0.12465  0.90291  1.0000
  H   H587      1.0  0.74606  0.12740  0.87269  1.0000
  S   S152      1.0  0.61699  0.58427  0.04076  1.0000
  H   H588      1.0  0.62830  0.37510  0.01219  1.0000
  H   H589      1.0  0.71667  0.46489  0.80456  1.0000
  H   H590      1.0  0.84145  0.41779  0.58046  1.0000
  H   H591      1.0  0.69484  0.53741  0.68897  1.0000
  Fe  Fe76      1.0  0.72383  0.57564  0.54907  1.0000
  H   H592      1.0  0.70705  0.55357  0.00367  1.0000
  C   C362      1.0  0.72131  0.56559  0.03440  1.0000
  H   H593      1.0  0.65243  0.53563  0.54915  1.0000
  H   H594      1.0  0.77832  0.57508  0.73142  1.0000
  H   H595      1.0  0.67860  0.48608  0.80560  1.0000
  C   C363      1.0  0.80914  0.44063  0.66850  1.0000
  N   N37       1.0  0.72972  0.59819  0.01748  1.0000
  C   C364      1.0  0.64511  0.48484  0.55007  1.0000
  C   C365      1.0  0.74413  0.60954  0.76362  1.0000
  S   S153      1.0  0.76270  0.61178  0.82531  1.0000
  H   H596      1.0  0.68735  0.60824  0.97139  1.0000
  H   H597      1.0  0.73699  0.58487  0.93570  1.0000
  Fe  Fe77      1.0  0.77130  0.51987  0.55570  1.0000
  C   C366      1.0  0.74379  0.50110  0.72926  1.0000
  H   H598      1.0  0.62930  0.54463  0.63827  1.0000
  C   C367      1.0  0.74968  0.59640  0.96887  1.0000
  H   H599      1.0  0.61140  0.44440  0.65240  1.0000
  H   H600      1.0  0.63465  0.43528  0.56259  1.0000
  S   S154      1.0  0.72085  0.52661  0.58341  1.0000
  C   C368      1.0  0.71836  0.61239  0.66134  1.0000
  C   C369      1.0  0.61861  0.49515  0.65117  1.0000
  S   S155      1.0  0.61166  0.43636  0.82813  1.0000
  C   C370      1.0  0.64297  0.51569  0.57107  1.0000
  C   C371      1.0  0.76282  0.44895  0.61246  1.0000
  H   H601      1.0  0.70880  0.45020  0.71003  1.0000
  C   C372      1.0  0.70450  0.48844  0.79613  1.0000
  H   H602      1.0  0.77236  0.58240  0.97572  1.0000
  C   C373      1.0  0.79776  0.41092  0.68461  1.0000
  H   H603      1.0  0.83142  0.44886  0.68413  1.0000
  C   C374      1.0  0.79193  0.45938  0.63170  1.0000
  N   N38       1.0  0.70925  0.49824  0.74028  1.0000
  C   C375      1.0  0.76861  0.40057  0.66535  1.0000
  H   H604      1.0  0.72844  0.41175  0.61481  1.0000
  C   C376      1.0  0.62983  0.52082  0.62153  1.0000
  H   H605      1.0  0.67032  0.47026  0.71375  1.0000
  C   C377      1.0  0.61942  0.46439  0.62929  1.0000
  H   H606      1.0  0.69803  0.48078  0.66258  1.0000
  C   C378      1.0  0.75738  0.59020  0.72352  1.0000
  S   S156      1.0  0.80694  0.49568  0.60955  1.0000
  H   H607      1.0  0.66656  0.52836  0.73987  1.0000
  C   C379      1.0  0.69607  0.47382  0.70509  1.0000
  H   H608      1.0  0.75464  0.51901  0.75559  1.0000
  H   H609      1.0  0.74959  0.46303  0.58355  1.0000
  H   H610      1.0  0.71412  0.50628  0.82394  1.0000
  C   C380      1.0  0.69257  0.52949  0.73095  1.0000
  H   H611      1.0  0.70236  0.54858  0.75615  1.0000
  H   H612      1.0  0.74825  0.50886  0.68764  1.0000
  H   H613      1.0  0.75708  0.47785  0.73508  1.0000
  H   H614      1.0  0.81122  0.39629  0.71265  1.0000
  C   C381      1.0  0.63252  0.45924  0.57844  1.0000
  C   C382      1.0  0.74451  0.59166  0.67227  1.0000
  C   C383      1.0  0.75093  0.41979  0.62991  1.0000
  H   H615      1.0  0.61159  0.11524  0.74453  1.0000
  N   N39       1.0  0.78690  0.11533  0.57527  1.0000
  H   H616      1.0  0.74305  0.55034  0.04264  1.0000
  H   H617      1.0  0.72134  0.11480  0.95920  1.0000
  H   H618      1.0  0.68899  0.74068  0.11471  1.0000
  C   C384      1.0  0.71129  0.78161  0.35309  1.0000
  S   S157      1.0  0.82845  0.76201  0.27391  1.0000
  H   H619      1.0  0.71029  0.77313  0.14238  1.0000
  C   C385      1.0  0.67034  0.78522  0.22403  1.0000
  C   C386      1.0  0.84608  0.76368  0.50297  1.0000
  S   S158      1.0  0.74266  0.75717  0.32845  1.0000
  C   C387      1.0  0.69363  0.73183  0.21961  1.0000
  H   H620      1.0  0.79001  0.75645  0.17970  1.0000
  H   H621      1.0  0.83824  0.76431  0.41870  1.0000
  C   C388      1.0  0.68622  0.76273  0.13926  1.0000
  H   H622      1.0  0.71834  0.74054  0.22365  1.0000
  C   C389      1.0  0.76565  0.73275  0.11695  1.0000
  C   C390      1.0  0.78824  0.75340  0.13736  1.0000
  H   H623      1.0  0.75044  0.71969  0.14360  1.0000
  C   C391      1.0  0.76759  0.64740  0.36984  1.0000
  H   H624      1.0  0.64511  0.77761  0.43116  1.0000
  H   H625      1.0  0.68826  0.74294  0.39337  1.0000
  N   N40       1.0  0.67264  0.75562  0.19219  1.0000
  S   S159      1.0  0.64267  0.66884  0.25734  1.0000
  N   N41       1.0  0.73433  0.65389  0.35247  1.0000
  C   C392      1.0  0.68748  0.76824  0.38444  1.0000
  C   C393      1.0  0.76279  0.72899  0.06209  1.0000
  S   S160      1.0  0.83715  0.79535  0.12779  1.0000
  C   C394      1.0  0.66288  0.78780  0.40570  1.0000
  C   C395      1.0  0.80855  0.76968  0.10291  1.0000
  H   H626      1.0  0.68461  0.72673  0.26037  1.0000
  H   H627      1.0  0.82164  0.75814  0.51255  1.0000
  H   H628      1.0  0.69506  0.70874  0.19778  1.0000
  H   H629      1.0  0.61604  0.73525  0.40987  1.0000
  H   H630      1.0  0.67069  0.78009  0.11684  1.0000
  Fe  Fe78      1.0  0.78415  0.78691  0.30560  1.0000
  H   H631      1.0  0.68336  0.85909  0.35237  1.0000
  C   C396      1.0  0.68467  0.83380  0.36172  1.0000
  Fe  Fe79      1.0  0.82774  0.80199  0.21449  1.0000
  S   S161      1.0  0.78118  0.82425  0.24155  1.0000
  S   S162      1.0  0.80988  0.81752  0.36324  1.0000
  Fe  Fe80      1.0  0.81138  0.85260  0.29593  1.0000
  H   H632      1.0  0.72793  0.82479  0.31684  1.0000
  C   C397      1.0  0.70986  0.81439  0.34159  1.0000
  S   S163      1.0  0.63086  0.84476  0.42228  1.0000
  C   C398      1.0  0.66145  0.82054  0.39456  1.0000
  C   C399      1.0  0.71825  0.67673  0.38931  1.0000
  H   H633      1.0  0.78128  0.66976  0.37121  1.0000
  H   H634      1.0  0.71717  0.66685  0.43038  1.0000
  C   C400      1.0  0.73449  0.66757  0.29831  1.0000
  C   C401      1.0  0.85543  0.76739  0.44986  1.0000
  Fe  Fe81      1.0  0.85417  0.79590  0.32560  1.0000
  H   H635      1.0  0.74736  0.69044  0.29688  1.0000
  H   H636      1.0  0.73101  0.69964  0.39098  1.0000
  H   H637      1.0  0.69323  0.68251  0.37682  1.0000
  H   H638      1.0  0.74636  0.65080  0.26955  1.0000
  H   H639      1.0  0.65484  0.80390  0.20459  1.0000
  H   H640      1.0  0.69431  0.79537  0.23009  1.0000
  H   H641      1.0  0.66009  0.78061  0.26422  1.0000
  H   H642      1.0  0.70973  0.67254  0.28410  1.0000
  C   C402      1.0  0.64047  0.74259  0.18599  1.0000
  C   C403      1.0  0.71689  0.62378  0.35231  1.0000
  H   H643      1.0  0.62404  0.75967  0.16474  1.0000
  S   S164      1.0  0.85786  0.83364  0.26300  1.0000
  H   H644      1.0  0.64149  0.71979  0.16326  1.0000
  H   H645      1.0  0.62936  0.73716  0.22514  1.0000
  H   H646      1.0  0.63525  0.72555  0.31889  1.0000
  C   C404      1.0  0.62828  0.70559  0.34325  1.0000
  H   H647      1.0  0.75232  0.83770  0.47024  1.0000
  H   H648      1.0  0.80817  0.82644  0.49940  1.0000
  C   C405      1.0  0.62967  0.67451  0.32307  1.0000
  S   S165      1.0  0.61532  0.77943  0.53387  1.0000
  H   H649      1.0  0.76836  0.63621  0.41004  1.0000
  H   H650      1.0  0.78049  0.63052  0.34242  1.0000
  C   C406      1.0  0.74558  0.84129  0.51270  1.0000
  H   H651      1.0  0.69154  0.62805  0.34034  1.0000
  H   H652      1.0  0.72448  0.85829  0.51369  1.0000
  C   C407      1.0  0.62103  0.64885  0.35553  1.0000
  C   C408      1.0  0.80588  0.76560  0.04819  1.0000
  C   C409      1.0  0.61733  0.71125  0.39497  1.0000
  H   H653      1.0  0.84085  0.85976  0.06632  1.0000
  H   H654      1.0  0.81284  0.86008  0.15138  1.0000
  H   H655      1.0  0.75579  0.63761  0.04793  1.0000
  Fe  Fe82      1.0  0.64299  0.61865  0.22634  1.0000
  H   H656      1.0  0.62216  0.62473  0.34021  1.0000
  H   H657      1.0  0.73769  0.81792  0.52852  1.0000
  H   H658      1.0  0.75757  0.86729  0.35537  1.0000
  H   H659      1.0  0.62620  0.94677  0.48162  1.0000
  H   H660      1.0  0.82777  0.10028  0.52856  1.0000
  H   H661      1.0  0.78929  0.88237  0.47880  1.0000
  C   C410      1.0  0.78187  0.88463  0.52119  1.0000
  C   C411      1.0  0.69231  0.11311  0.30715  1.0000
  N   N42       1.0  0.85785  0.01225  0.31654  1.0000
  H   H662      1.0  0.76166  0.90266  0.52295  1.0000
  H   H663      1.0  0.84906  0.05811  0.27937  1.0000
  H   H664      1.0  0.84597  0.94023  0.16942  1.0000
  H   H665      1.0  0.77696  0.07272  0.53211  1.0000
  C   C412      1.0  0.77692  0.91435  0.35493  1.0000
  H   H666      1.0  0.80945  0.01365  0.34554  1.0000
  C   C413      1.0  0.77458  0.94503  0.37647  1.0000
  C   C414      1.0  0.84946  0.03217  0.26968  1.0000
  H   H667      1.0  0.70582  0.10190  0.34071  1.0000
  H   H668      1.0  0.82607  0.94388  0.10657  1.0000
  C   C415      1.0  0.77414  0.07648  0.34397  1.0000
  H   H669      1.0  0.83890  0.00269  0.39439  1.0000
  H   H670      1.0  0.62655  0.98358  0.40325  1.0000
  C   C416      1.0  0.84323  0.88615  0.06923  1.0000
  H   H671      1.0  0.66756  0.10412  0.30915  1.0000
  Fe  Fe83      1.0  0.65577  0.04809  0.42730  1.0000
  C   C417      1.0  0.81532  0.88645  0.15323  1.0000
  C   C418      1.0  0.75596  0.89098  0.37209  1.0000
  H   H672      1.0  0.74533  0.03961  0.23495  1.0000
  C   C419      1.0  0.75839  0.05644  0.25822  1.0000
  H   H673      1.0  0.79341  0.89779  0.13557  1.0000
  H   H674      1.0  0.71555  0.88085  0.42250  1.0000
  S   S166      1.0  0.62048  0.06018  0.36351  1.0000
  C   C420      1.0  0.83406  0.01826  0.35920  1.0000
  S   S167      1.0  0.69732  0.01816  0.39838  1.0000
  S   S168      1.0  0.80628  0.90555  0.30688  1.0000
  S   S169      1.0  0.72721  0.02413  0.51770  1.0000
  S   S170      1.0  0.77369  0.08408  0.16387  1.0000
  H   H675      1.0  0.79095  0.96292  0.36372  1.0000
  Fe  Fe84      1.0  0.69336  0.99266  0.47613  1.0000
  C   C421      1.0  0.75115  0.95255  0.41470  1.0000
  C   C422      1.0  0.79284  0.10160  0.26314  1.0000
  C   C423      1.0  0.84637  0.93165  0.12766  1.0000
  C   C424      1.0  0.72963  0.92949  0.43089  1.0000
  H   H676      1.0  0.81571  0.89320  0.19586  1.0000
  S   S171      1.0  0.77233  0.07511  0.41335  1.0000
  Fe  Fe85      1.0  0.72745  0.05236  0.44217  1.0000
  C   C425      1.0  0.73224  0.89861  0.41001  1.0000
  Fe  Fe86      1.0  0.68302  0.05354  0.53690  1.0000
  S   S172      1.0  0.69944  0.93936  0.47693  1.0000
  N   N43       1.0  0.84448  0.89646  0.12516  1.0000
  H   H677      1.0  0.74990  0.97619  0.43176  1.0000
  S   S173      1.0  0.68607  0.08474  0.46462  1.0000
  H   H678      1.0  0.83414  0.97086  0.28778  1.0000
  H   H679      1.0  0.83406  0.04355  0.37275  1.0000
  H   H680      1.0  0.74520  0.03554  0.33263  1.0000
  H   H681      1.0  0.63885  0.95028  0.36269  1.0000
  H   H682      1.0  0.82536  0.02667  0.25432  1.0000
  C   C426      1.0  0.85804  0.97807  0.30169  1.0000
  S   S174      1.0  0.64861  0.01948  0.50179  1.0000
  C   C427      1.0  0.75782  0.05448  0.31365  1.0000
  C   C428      1.0  0.77522  0.08053  0.23294  1.0000
  C   C429      1.0  0.79234  0.09957  0.31866  1.0000
  C   C430      1.0  0.61681  0.92812  0.45511  1.0000
  H   H683      1.0  0.70353  0.10407  0.26967  1.0000
  C   C431      1.0  0.61756  0.96356  0.37923  1.0000
  H   H684      1.0  0.63788  0.91403  0.43947  1.0000
  H   H685      1.0  0.82256  0.89771  0.04809  1.0000
  H   H686      1.0  0.73299  0.61675  0.09661  1.0000
  C   C432      1.0  0.79993  0.83042  0.54104  1.0000
  Fe  Fe87      1.0  0.70319  0.71702  0.84518  1.0000
  S   S175      1.0  0.74511  0.70147  0.79521  1.0000
  S   S176      1.0  0.65671  0.73408  0.80962  1.0000
  Fe  Fe88      1.0  0.73785  0.70388  0.94793  1.0000
  S   S177      1.0  0.78328  0.68725  0.90763  1.0000
  Fe  Fe89      1.0  0.77373  0.72887  0.85301  1.0000
  Fe  Fe90      1.0  0.75084  0.66129  0.85382  1.0000
  S   S178      1.0  0.73123  0.74825  0.89837  1.0000
  S   S179      1.0  0.70605  0.67400  0.89856  1.0000
  H   H687      1.0  0.66526  0.72874  0.92226  1.0000
  C   C433      1.0  0.81164  0.65477  0.70943  1.0000
  H   H688      1.0  0.78089  0.74271  0.98530  1.0000
  N   N44       1.0  0.83403  0.68054  0.72020  1.0000
  S   S180      1.0  0.81234  0.76089  0.82512  1.0000
  C   C434      1.0  0.64046  0.73462  0.91458  1.0000
  H   H689      1.0  0.75024  0.76841  0.77723  1.0000
  H   H690      1.0  0.78852  0.65884  0.73074  1.0000
  C   C435      1.0  0.74671  0.81687  0.74888  1.0000
  C   C436      1.0  0.76161  0.84625  0.74574  1.0000
  C   C437      1.0  0.80950  0.82185  0.78441  1.0000
  H   H691      1.0  0.72253  0.81473  0.73512  1.0000
  N   N45       1.0  0.64593  0.85187  0.77837  1.0000
  C   C438      1.0  0.79381  0.79304  0.79099  1.0000
  C   C439      1.0  0.76252  0.79052  0.77260  1.0000
  H   H692      1.0  0.83391  0.82383  0.79731  1.0000
  H   H693      1.0  0.79683  0.71731  0.72372  1.0000
  C   C440      1.0  0.81971  0.71162  0.70275  1.0000
  H   H694      1.0  0.81498  0.71198  0.65934  1.0000
  H   H695      1.0  0.80621  0.65310  0.66638  1.0000
  C   C441      1.0  0.62971  0.73903  0.86258  1.0000
  H   H696      1.0  0.70658  0.64384  0.78421  1.0000
  C   C442      1.0  0.79314  0.84867  0.76295  1.0000
  H   H697      1.0  0.82130  0.77828  0.02168  1.0000
  C   C443      1.0  0.84059  0.68160  0.77772  1.0000
  H   H698      1.0  0.81829  0.68629  0.80099  1.0000
  H   H699      1.0  0.83570  0.73169  0.71108  1.0000
  S   S181      1.0  0.85612  0.76372  0.60986  1.0000
  H   H700      1.0  0.66826  0.68718  0.63216  1.0000
  C   C444      1.0  0.71735  0.62934  0.75308  1.0000
  N   N46       1.0  0.77246  0.85354  0.54358  1.0000
  H   H701      1.0  0.62762  0.73429  0.99737  1.0000
  C   C445      1.0  0.64584  0.81668  0.78465  1.0000
  H   H702      1.0  0.66046  0.73486  0.68893  1.0000
  H   H703      1.0  0.69419  0.85505  0.80629  1.0000
  H   H704      1.0  0.66989  0.80546  0.77694  1.0000
  H   H705      1.0  0.68406  0.64621  0.69388  1.0000
  C   C446      1.0  0.63565  0.73753  0.67352  1.0000
  H   H706      1.0  0.63865  0.80953  0.82553  1.0000
  H   H707      1.0  0.75515  0.83500  0.61799  1.0000
  H   H708      1.0  0.67817  0.84972  0.71161  1.0000
  H   H709      1.0  0.64593  0.68321  0.72626  1.0000
  H   H710      1.0  0.82151  0.63102  0.72270  1.0000
  H   H711      1.0  0.83058  0.83117  0.96442  1.0000
  H   H712      1.0  0.85171  0.65866  0.79221  1.0000
  C   C447      1.0  0.78295  0.74543  0.02771  1.0000
  H   H713      1.0  0.62897  0.80571  0.75668  1.0000
  S   S182      1.0  0.73373  0.70411  0.03668  1.0000
  C   C448      1.0  0.65430  0.86004  0.72295  1.0000
  H   H714      1.0  0.64335  0.70487  0.58138  1.0000
  H   H715      1.0  0.82067  0.83882  0.56401  1.0000
  C   C449      1.0  0.70455  0.63077  0.70200  1.0000
  H   H716      1.0  0.82737  0.79320  0.93132  1.0000
  C   C450      1.0  0.61914  0.73794  0.95726  1.0000
  H   H717      1.0  0.79375  0.80675  0.55804  1.0000
  H   H718      1.0  0.63658  0.85075  0.69455  1.0000
  H   H719      1.0  0.70534  0.64292  0.99941  1.0000
  H   H720      1.0  0.63600  0.75386  0.63861  1.0000
  H   H721      1.0  0.68308  0.61673  0.04034  1.0000
  H   H722      1.0  0.85716  0.70099  0.78741  1.0000
  H   H723      1.0  0.83116  0.82913  0.89356  1.0000
  C   C451      1.0  0.83940  0.81656  0.93027  1.0000
  C   C452      1.0  0.66970  0.86510  0.81466  1.0000
  H   H724      1.0  0.86036  0.67352  0.64733  1.0000
  C   C453      1.0  0.62186  0.68591  0.70801  1.0000
  C   C454      1.0  0.64310  0.69054  0.61878  1.0000
  N   N47       1.0  0.62266  0.70620  0.65985  1.0000
  H   H725      1.0  0.63437  0.66651  0.60820  1.0000
  H   H726      1.0  0.62095  0.74969  0.70495  1.0000
  C   C455      1.0  0.76239  0.85791  0.59948  1.0000
  H   H727      1.0  0.66395  0.85965  0.85686  1.0000
  C   C456      1.0  0.70015  0.61735  0.00652  1.0000
  H   H728      1.0  0.75613  0.62066  0.95479  1.0000
  H   H729      1.0  0.61340  0.66157  0.69905  1.0000
  S   S183      1.0  0.70311  0.61603  0.59702  1.0000
  C   C457      1.0  0.61382  0.86566  0.79109  1.0000
  H   H730      1.0  0.80497  0.87120  0.75984  1.0000
  H   H731      1.0  0.78854  0.11278  0.66050  1.0000
  H   H732      1.0  0.82446  0.01194  0.03651  1.0000
  H   H733      1.0  0.75980  0.11110  0.98944  1.0000
  C   C458      1.0  0.82182  0.11066  0.56816  1.0000
  H   H734      1.0  0.80215  0.89458  0.54337  1.0000
  H   H735      1.0  0.78200  0.86722  0.62410  1.0000
  H   H736      1.0  0.83211  0.09417  0.59889  1.0000
  C   C459      1.0  0.84726  0.94526  0.96711  1.0000
  H   H737      1.0  0.63632  0.08757  0.78234  1.0000
  H   H738      1.0  0.75417  0.09505  0.75643  1.0000
  C   C460      1.0  0.74583  0.02504  0.69055  1.0000
  H   H739      1.0  0.61154  0.01515  0.71038  1.0000
  H   H740      1.0  0.74170  0.87526  0.60304  1.0000
  C   C461      1.0  0.77142  0.08425  0.57094  1.0000
  C   C462      1.0  0.75802  0.04689  0.72637  1.0000
  H   H741      1.0  0.64586  0.03801  0.69381  1.0000
  H   H742      1.0  0.64583  0.09623  0.71433  1.0000
  C   C463      1.0  0.62573  0.09225  0.74262  1.0000
  S   S184      1.0  0.67584  0.97415  0.91383  1.0000
  H   H743      1.0  0.67079  0.89157  0.81051  1.0000
  C   C464      1.0  0.74168  0.09764  0.96728  1.0000
  H   H744      1.0  0.70949  0.08205  0.87965  1.0000
  S   S185      1.0  0.72425  0.96690  0.78125  1.0000
  H   H745      1.0  0.65520  0.88641  0.71706  1.0000
  C   C465      1.0  0.63794  0.96235  0.82728  1.0000
  H   H746      1.0  0.84644  0.00270  0.83039  1.0000
  H   H747      1.0  0.65905  0.95179  0.80877  1.0000
  Fe  Fe91      1.0  0.78966  0.93395  0.87811  1.0000
  H   H748      1.0  0.77674  0.10102  0.84530  1.0000
  C   C466      1.0  0.78269  0.06236  0.93018  1.0000
  H   H749      1.0  0.80242  0.97115  0.97767  1.0000
  H   H750      1.0  0.77929  0.06735  0.60293  1.0000
  H   H751      1.0  0.80182  0.07521  0.95093  1.0000
  C   C467      1.0  0.63966  0.97508  0.87841  1.0000
  H   H752      1.0  0.73287  0.07861  0.99419  1.0000
  H   H753      1.0  0.79337  0.05165  0.89347  1.0000
  C   C468      1.0  0.73050  0.06624  0.88980  1.0000
  S   S186      1.0  0.79914  0.93998  0.79097  1.0000
  H   H754      1.0  0.61187  0.07719  0.64264  1.0000
  Fe  Fe92      1.0  0.77201  0.98660  0.80003  1.0000
  C   C469      1.0  0.76614  0.11037  0.88298  1.0000
  H   H755      1.0  0.75573  0.00083  0.68888  1.0000
  Fe  Fe93      1.0  0.75076  0.91943  0.78123  1.0000
  H   H756      1.0  0.74494  0.08727  0.57408  1.0000
  H   H757      1.0  0.77540  0.04240  0.95656  1.0000
  H   H758      1.0  0.72171  0.04615  0.91460  1.0000
  H   H759      1.0  0.70933  0.11136  0.69739  1.0000
  S   S187      1.0  0.78766  0.03425  0.77107  1.0000
  Fe  Fe94      1.0  0.72023  0.95877  0.86867  1.0000
  C   C470      1.0  0.84000  0.99309  0.02051  1.0000
  C   C471      1.0  0.72083  0.03442  0.65666  1.0000
  S   S188      1.0  0.76602  0.98242  0.88764  1.0000
  C   C472      1.0  0.62586  0.03577  0.72279  1.0000
  S   S189      1.0  0.67748  0.07788  0.61525  1.0000
  H   H760      1.0  0.63652  0.02959  0.76204  1.0000
  C   C473      1.0  0.74504  0.07811  0.72857  1.0000
  N   N48       1.0  0.75523  0.08415  0.91757  1.0000
  S   S190      1.0  0.74316  0.90942  0.86787  1.0000
  S   S191      1.0  0.73987  0.88037  0.72432  1.0000
  H   H761      1.0  0.71125  0.01732  0.62950  1.0000
  C   C474      1.0  0.71956  0.08727  0.69542  1.0000
  H   H762      1.0  0.73992  0.05577  0.85204  1.0000
  S   S192      1.0  0.83142  0.91551  0.92710  1.0000
  C   C475      1.0  0.82758  0.97021  0.98664  1.0000
  C   C476      1.0  0.70775  0.06556  0.65899  1.0000
  H   H763      1.0  0.85773  0.96206  0.84701  1.0000
  H   H764      1.0  0.61330  0.89225  0.78839  1.0000
  H   H765      1.0  0.85750  0.99259  0.73637  1.0000
  H   H766      1.0  0.61320  0.99848  0.94161  1.0000
  C   C477      1.0  0.61202  0.98860  0.90209  1.0000
  H   H767      1.0  0.90827  0.30842  0.19467  1.0000
  Fe  Fe95      1.0  0.05298  0.25981  0.34667  1.0000
  S   S193      1.0  0.04880  0.21234  0.38656  1.0000
  S   S194      1.0  0.03098  0.26487  0.26602  1.0000
  Fe  Fe96      1.0  0.03862  0.24082  0.45997  1.0000
  H   H768      1.0  0.91127  0.22591  0.32370  1.0000
  H   H769      1.0  0.91680  0.29942  0.40316  1.0000
  S   S195      1.0  0.03810  0.28836  0.41849  1.0000
  C   C478      1.0  0.93394  0.27981  0.41536  1.0000
  H   H770      1.0  0.97547  0.28398  0.33393  1.0000
  C   C479      1.0  0.89218  0.26393  0.16286  1.0000
  H   H771      1.0  0.89006  0.26049  0.34952  1.0000
  C   C480      1.0  0.89288  0.28843  0.20067  1.0000
  C   C481      1.0  0.04297  0.23630  0.16989  1.0000
  C   C482      1.0  0.06031  0.21603  0.13513  1.0000
  H   H772      1.0  0.02278  0.25040  0.15555  1.0000
  H   H773      1.0  0.95663  0.29096  0.42692  1.0000
  H   H774      1.0  0.06935  0.34711  0.39593  1.0000
  H   H775      1.0  0.92398  0.26826  0.45152  1.0000
  C   C483      1.0  0.07729  0.21901  0.24201  1.0000
  N   N49       1.0  0.93930  0.25641  0.37216  1.0000
  C   C484      1.0  0.95232  0.27284  0.32502  1.0000
  H   H776      1.0  0.98539  0.24138  0.40101  1.0000
  H   H777      1.0  0.96752  0.21336  0.35765  1.0000
  S   S196      1.0  0.08989  0.24152  0.48460  1.0000
  H   H778      1.0  0.95684  0.25597  0.29155  1.0000
  C   C485      1.0  0.96234  0.23108  0.38961  1.0000
  C   C486      1.0  0.05172  0.23820  0.22322  1.0000
  H   H779      1.0  0.93567  0.29217  0.31061  1.0000
  H   H780      1.0  0.95338  0.21793  0.42497  1.0000
  C   C487      1.0  0.90871  0.24185  0.35882  1.0000
  H   H781      1.0  0.89943  0.22752  0.39257  1.0000
  H   H782      1.0  0.90667  0.26513  0.12730  1.0000
  C   C488      1.0  0.08607  0.19708  0.15395  1.0000
  H   H783      1.0  0.08402  0.21979  0.28315  1.0000
  C   C489      1.0  0.09445  0.19854  0.20746  1.0000
  Fe  Fe97      1.0  0.09067  0.28706  0.43708  1.0000
  S   S197      1.0  0.99902  0.22364  0.51185  1.0000
  N   N50       1.0  0.99312  0.31751  0.07992  1.0000
  H   H784      1.0  0.05389  0.21528  0.09377  1.0000
  H   H785      1.0  0.00306  0.30511  0.16148  1.0000
  C   C490      1.0  0.99458  0.32584  0.13682  1.0000
  H   H786      1.0  0.97072  0.33401  0.15233  1.0000
  H   H787      1.0  0.00313  0.29252  0.52008  1.0000
  Fe  Fe98      1.0  0.10012  0.21744  0.40681  1.0000
  C   C491      1.0  0.87190  0.23828  0.17022  1.0000
  H   H788      1.0  0.01111  0.34573  0.14363  1.0000
  H   H789      1.0  0.95848  0.35532  0.06321  1.0000
  N   N51       1.0  0.94423  0.11803  0.06349  1.0000
  H   H790      1.0  0.04311  0.32543  0.06693  1.0000
  C   C492      1.0  0.87368  0.28684  0.24622  1.0000
  H   H791      1.0  0.97975  0.14444  0.10452  1.0000
  H   H792      1.0  0.10027  0.13068  0.31683  1.0000
  Fe  Fe99      1.0  0.88276  0.36526  0.25814  1.0000
  H   H793      1.0  0.92122  0.15792  0.10381  1.0000
  S   S198      1.0  0.10795  0.17153  0.11109  1.0000
  C   C493      1.0  0.97368  0.11936  0.09537  1.0000
  C   C494      1.0  0.02519  0.30674  0.06091  1.0000
  H   H794      1.0  0.03386  0.28472  0.08198  1.0000
  S   S199      1.0  0.87325  0.31729  0.29350  1.0000
  C   C495      1.0  0.97291  0.25323  0.53777  1.0000
  H   H795      1.0  0.07505  0.13871  0.40612  1.0000
  H   H796      1.0  0.94583  0.29926  0.08556  1.0000
  H   H797      1.0  0.97759  0.26978  0.09524  1.0000
  C   C496      1.0  0.97034  0.29167  0.07245  1.0000
  S   S200      1.0  0.86916  0.20903  0.12120  1.0000
  H   H798      1.0  0.04309  0.12139  0.32947  1.0000
  H   H799      1.0  0.99935  0.36568  0.05331  1.0000
  S   S201      1.0  0.10553  0.26309  0.36118  1.0000
  H   H800      1.0  0.01987  0.35677  0.53059  1.0000
  C   C497      1.0  0.10484  0.36525  0.44826  1.0000
  C   C498      1.0  0.91704  0.13248  0.09371  1.0000
  H   H801      1.0  0.06260  0.35251  0.53055  1.0000
  C   C499      1.0  0.98058  0.28554  0.53673  1.0000
  H   H802      1.0  0.89443  0.13226  0.07066  1.0000
  H   H803      1.0  0.86235  0.45483  0.51464  1.0000
  H   H804      1.0  0.98956  0.52943  0.33370  1.0000
  H   H805      1.0  0.88457  0.42202  0.48490  1.0000
  S   S202      1.0  0.89597  0.46485  0.36075  1.0000
  C   C500      1.0  0.88551  0.44089  0.51582  1.0000
  H   H806      1.0  0.90464  0.45745  0.50401  1.0000
  H   H807      1.0  0.94237  0.50483  0.29235  1.0000
  C   C501      1.0  0.08070  0.42610  0.41838  1.0000
  N   N52       1.0  0.98810  0.48110  0.30521  1.0000
  H   H808      1.0  0.01718  0.46645  0.23832  1.0000
  H   H809      1.0  0.96214  0.48528  0.37893  1.0000
  S   S203      1.0  0.96847  0.41408  0.14446  1.0000
  S   S204      1.0  0.88284  0.37594  0.17101  1.0000
  H   H810      1.0  0.86714  0.49905  0.44800  1.0000
  H   H811      1.0  0.01276  0.52169  0.27453  1.0000
  S   S205      1.0  0.06468  0.46378  0.40008  1.0000
  C   C502      1.0  0.95938  0.48753  0.27262  1.0000
  Fe  Fe100     1.0  0.08990  0.50426  0.43755  1.0000
  H   H812      1.0  0.99927  0.46283  0.38311  1.0000
  H   H813      1.0  0.00922  0.42920  0.05559  1.0000
  H   H814      1.0  0.06987  0.61412  0.37850  1.0000
  H   H815      1.0  0.02979  0.52317  0.05030  1.0000
  C   C503      1.0  0.98231  0.34602  0.04928  1.0000
  Fe  Fe101     1.0  0.89035  0.43434  0.28885  1.0000
  C   C504      1.0  0.07951  0.36819  0.41252  1.0000
  C   C505      1.0  0.92832  0.42415  0.06057  1.0000
  H   H816      1.0  0.90895  0.42034  0.08823  1.0000
  C   C506      1.0  0.10638  0.42322  0.45355  1.0000
  C   C507      1.0  0.06736  0.39857  0.39779  1.0000
  H   H817      1.0  0.92225  0.38870  0.54064  1.0000
  H   H818      1.0  0.96563  0.49733  0.23289  1.0000
  H   H819      1.0  0.96530  0.44550  0.35284  1.0000
  Fe  Fe102     1.0  0.92270  0.40868  0.19028  1.0000
  H   H820      1.0  0.02863  0.52898  0.52032  1.0000
  S   S206      1.0  0.07075  0.55485  0.43232  1.0000
  H   H821      1.0  0.94627  0.46523  0.26618  1.0000
  C   C508      1.0  0.86538  0.49443  0.36302  1.0000
  C   C509      1.0  0.00947  0.45751  0.27790  1.0000
  S   S207      1.0  0.09864  0.50619  0.52465  1.0000
  H   H822      1.0  0.04768  0.40070  0.37027  1.0000
  C   C510      1.0  0.97833  0.46810  0.35730  1.0000
  S   S208      1.0  0.92568  0.39381  0.27573  1.0000
  H   H823      1.0  0.03143  0.45205  0.30144  1.0000
  C   C511      1.0  0.00502  0.51120  0.31300  1.0000
  S   S209      1.0  0.89056  0.45171  0.20452  1.0000
  C   C512      1.0  0.95989  0.42385  0.07819  1.0000
  H   H824      1.0  0.02683  0.50721  0.33751  1.0000
  H   H825      1.0  0.99736  0.43454  0.27133  1.0000
  Fe  Fe103     1.0  0.08475  0.55815  0.51779  1.0000
  H   H826      1.0  0.91287  0.11937  0.13154  1.0000
  S   S210      1.0  0.04712  0.34179  0.76936  1.0000
  Fe  Fe104     1.0  0.03937  0.20431  0.95695  1.0000
  S   S211      1.0  0.00621  0.24744  0.95189  1.0000
  H   H827      1.0  0.09166  0.11710  0.84714  1.0000
  H   H828      1.0  0.89872  0.28949  0.75748  1.0000
  S   S212      1.0  0.04674  0.16827  0.89214  1.0000
  S   S213      1.0  0.90396  0.32827  0.60911  1.0000
  N   N53       1.0  0.94430  0.26655  0.77274  1.0000
  H   H829      1.0  0.90789  0.23148  0.77584  1.0000
  C   C513      1.0  0.03711  0.31614  0.82169  1.0000
  C   C514      1.0  0.05178  0.28566  0.82559  1.0000
  C   C515      1.0  0.04286  0.26462  0.86628  1.0000
  C   C516      1.0  0.01894  0.27394  0.90257  1.0000
  C   C517      1.0  0.00431  0.30441  0.89865  1.0000
  C   C518      1.0  0.01346  0.32555  0.85841  1.0000
  H   H830      1.0  0.07002  0.27826  0.79716  1.0000
  H   H831      1.0  0.05427  0.24109  0.86906  1.0000
  H   H832      1.0  0.98541  0.31144  0.92600  1.0000
  H   H833      1.0  0.99402  0.25200  0.77670  1.0000
  H   H834      1.0  0.94921  0.29803  0.83904  1.0000
  H   H835      1.0  0.94792  0.21555  0.78408  1.0000
  C   C519      1.0  0.94218  0.27321  0.83022  1.0000
  C   C520      1.0  0.93315  0.23398  0.76254  1.0000
  H   H836      1.0  0.95792  0.25645  0.85352  1.0000
  H   H837      1.0  0.98032  0.26336  0.71152  1.0000
  C   C521      1.0  0.97780  0.26889  0.75455  1.0000
  H   H838      1.0  0.91735  0.27075  0.84554  1.0000
  H   H839      1.0  0.93423  0.22816  0.71948  1.0000
  H   H840      1.0  0.92439  0.28555  0.70024  1.0000
  H   H841      1.0  0.93195  0.31504  0.74974  1.0000
  H   H842      1.0  0.98667  0.29341  0.76059  1.0000
  C   C522      1.0  0.92398  0.29019  0.74368  1.0000
  S   S214      1.0  0.03196  0.16778  0.02102  1.0000
  S   S215      1.0  0.09158  0.20965  0.97229  1.0000
  H   H843      1.0  0.00167  0.34888  0.85516  1.0000
  Fe  Fe105     1.0  0.08494  0.17025  0.03136  1.0000
  Fe  Fe106     1.0  0.04435  0.13209  0.95779  1.0000
  Fe  Fe107     1.0  0.09860  0.16993  0.91349  1.0000
  C   C523      1.0  0.92204  0.26731  0.57947  1.0000
  C   C524      1.0  0.92995  0.29948  0.58008  1.0000
  S   S216      1.0  0.09678  0.13079  0.97416  1.0000
  H   H844      1.0  0.98029  0.34075  0.00627  1.0000
  H   H845      1.0  0.02499  0.30103  0.01780  1.0000
  H   H846      1.0  0.98323  0.13161  0.88913  1.0000
  H   H847      1.0  0.95899  0.12940  0.79968  1.0000
  H   H848      1.0  0.89922  0.26011  0.59428  1.0000
  H   H849      1.0  0.03951  0.32571  0.56943  1.0000
  H   H850      1.0  0.96897  0.12581  0.98978  1.0000
  C   C525      1.0  0.94362  0.24418  0.55903  1.0000
  H   H851      1.0  0.06982  0.33958  0.64966  1.0000
  C   C526      1.0  0.04091  0.35104  0.55604  1.0000
  H   H852      1.0  0.01094  0.34520  0.65016  1.0000
  H   H853      1.0  0.93748  0.21923  0.55932  1.0000
  H   H854      1.0  0.95331  0.16158  0.02093  1.0000
  C   C527      1.0  0.95914  0.30867  0.55815  1.0000
  Fe  Fe108     1.0  0.86044  0.30721  0.64775  1.0000
  H   H855      1.0  0.96892  0.28468  0.02995  1.0000
  H   H856      1.0  0.96513  0.33360  0.55793  1.0000
  H   H857      1.0  0.92683  0.13525  0.98812  1.0000
  C   C528      1.0  0.94851  0.13597  0.01337  1.0000
  H   H858      1.0  0.03887  0.49255  0.00237  1.0000
  C   C529      1.0  0.10026  0.48169  0.89297  1.0000
  H   H859      1.0  0.99818  0.50052  0.02251  1.0000
  H   H860      1.0  0.09630  0.49774  0.71258  1.0000
  C   C530      1.0  0.09569  0.52374  0.70264  1.0000
  H   H861      1.0  0.09175  0.43601  0.00407  1.0000
  H   H862      1.0  0.02321  0.41364  0.55806  1.0000
  H   H863      1.0  0.86938  0.46737  0.60935  1.0000
  H   H864      1.0  0.99127  0.37665  0.61212  1.0000
  Fe  Fe109     1.0  0.04141  0.45888  0.81493  1.0000
  H   H865      1.0  0.86798  0.39542  0.62378  1.0000
  C   C531      1.0  0.86527  0.40527  0.58283  1.0000
  N   N54       1.0  0.89129  0.42699  0.56911  1.0000
  C   C532      1.0  0.89221  0.45300  0.60852  1.0000
  H   H866      1.0  0.07936  0.53575  0.73193  1.0000
  H   H867      1.0  0.91171  0.46973  0.59949  1.0000
  H   H868      1.0  0.98290  0.50830  0.92875  1.0000
  H   H869      1.0  0.89646  0.44346  0.64929  1.0000
  S   S217      1.0  0.02778  0.41599  0.86311  1.0000
  S   S218      1.0  0.04472  0.43203  0.73854  1.0000
  C   C533      1.0  0.01327  0.37004  0.63469  1.0000
  H   H870      1.0  0.09327  0.36596  0.60972  1.0000
  C   C534      1.0  0.07088  0.36443  0.63365  1.0000
  C   C535      1.0  0.10274  0.45184  0.97569  1.0000
  C   C536      1.0  0.00372  0.49865  0.57475  1.0000
  H   H871      1.0  0.89717  0.42826  0.99304  1.0000
  H   H872      1.0  0.86494  0.38446  0.55547  1.0000
  Fe  Fe110     1.0  0.02628  0.39081  0.78511  1.0000
  H   H873      1.0  0.08480  0.52665  0.66264  1.0000
  S   S219      1.0  0.99124  0.47706  0.80100  1.0000
  N   N55       1.0  0.01754  0.53583  0.96998  1.0000
  H   H874      1.0  0.01373  0.38607  0.66966  1.0000
  H   H875      1.0  0.97024  0.55114  0.99507  1.0000
  H   H876      1.0  0.07293  0.38047  0.66845  1.0000
  C   C537      1.0  0.92218  0.40882  0.56937  1.0000
  H   H877      1.0  0.01316  0.60407  0.87296  1.0000
  C   C538      1.0  0.02841  0.54810  0.59959  1.0000
  C   C539      1.0  0.02082  0.52574  0.56090  1.0000
  N   N56       1.0  0.04236  0.37300  0.60163  1.0000
  H   H878      1.0  0.99863  0.48106  0.54490  1.0000
  C   C540      1.0  0.00622  0.51986  0.92174  1.0000
  S   S220      1.0  0.05454  0.57867  0.58391  1.0000
  H   H879      1.0  0.99054  0.57951  0.95428  1.0000
  C   C541      1.0  0.08605  0.46171  0.93027  1.0000
  C   C542      1.0  0.00135  0.51653  0.66589  1.0000
  Fe  Fe111     1.0  0.97767  0.43247  0.84403  1.0000
  C   C543      1.0  0.99401  0.56116  0.98608  1.0000
  C   C544      1.0  0.01783  0.54401  0.65182  1.0000
  S   S221      1.0  0.97464  0.40275  0.77033  1.0000
  C   C545      1.0  0.04869  0.55029  0.95891  1.0000
  S   S222      1.0  0.97744  0.45757  0.64599  1.0000
  H   H880      1.0  0.99386  0.51309  0.70645  1.0000
  H   H881      1.0  0.92712  0.39829  0.60931  1.0000
  C   C546      1.0  0.04444  0.40631  0.58211  1.0000
  H   H882      1.0  0.06605  0.40938  0.55675  1.0000
  Fe  Fe112     1.0  0.99304  0.44587  0.72889  1.0000
  H   H883      1.0  0.06201  0.45422  0.92485  1.0000
  H   H884      1.0  0.04554  0.42356  0.61551  1.0000
  S   S223      1.0  0.93716  0.43612  0.90242  1.0000
  H   H885      1.0  0.04688  0.56817  0.92614  1.0000
  C   C547      1.0  0.97806  0.43352  0.98781  1.0000
  H   H886      1.0  0.99728  0.43719  0.95992  1.0000
  H   H887      1.0  0.02353  0.56125  0.68185  1.0000
  C   C548      1.0  0.92165  0.42861  0.00661  1.0000
  C   C549      1.0  0.99471  0.49361  0.62753  1.0000
  H   H888      1.0  0.06716  0.53189  0.94709  1.0000
  C   C550      1.0  0.94649  0.43266  0.97000  1.0000
  H   H889      1.0  0.00300  0.53709  0.88823  1.0000
  S   S224      1.0  0.07977  0.49323  0.83509  1.0000
  H   H890      1.0  0.02358  0.50084  0.90825  1.0000
  H   H891      1.0  0.00202  0.57406  0.02194  1.0000
  H   H892      1.0  0.05773  0.56295  0.99426  1.0000
  H   H893      1.0  0.94233  0.42450  0.55916  1.0000
  C   C551      1.0  0.02124  0.51200  0.01324  1.0000
  C   C552      1.0  0.98475  0.42926  0.04199  1.0000
  C   C553      1.0  0.90699  0.74103  0.17806  1.0000
  S   S225      1.0  0.04027  0.74067  0.13845  1.0000
  H   H894      1.0  0.91646  0.70010  0.26046  1.0000
  Fe  Fe113     1.0  0.00430  0.74066  0.07298  1.0000
  Fe  Fe114     1.0  0.03169  0.68813  0.14409  1.0000
  S   S226      1.0  0.02135  0.66683  0.22433  1.0000
  C   C554      1.0  0.88703  0.77445  0.43721  1.0000
  S   S227      1.0  0.07036  0.67390  0.08616  1.0000
  H   H895      1.0  0.97071  0.74020  0.16655  1.0000
  C   C555      1.0  0.93587  0.77687  0.23348  1.0000
  H   H896      1.0  0.94428  0.79040  0.19805  1.0000
  S   S228      1.0  0.99286  0.68892  0.08306  1.0000
  N   N57       1.0  0.93098  0.74294  0.22064  1.0000
  H   H897      1.0  0.90288  0.71580  0.16691  1.0000
  H   H898      1.0  0.91476  0.75380  0.14150  1.0000
  H   H899      1.0  0.88358  0.75214  0.19030  1.0000
  H   H900      1.0  0.95890  0.70228  0.19247  1.0000
  C   C556      1.0  0.90956  0.77674  0.47764  1.0000
  H   H901      1.0  0.89639  0.73627  0.28284  1.0000
  H   H902      1.0  0.93410  0.78176  0.46789  1.0000
  C   C557      1.0  0.96154  0.72795  0.20251  1.0000
  C   C558      1.0  0.91966  0.72595  0.26842  1.0000
  H   H903      1.0  0.91337  0.78879  0.24800  1.0000
  Fe  Fe115     1.0  0.07571  0.72672  0.07509  1.0000
  C   C559      1.0  0.95820  0.84317  0.07953  1.0000
  C   C560      1.0  0.97922  0.81672  0.07267  1.0000
  S   S229      1.0  0.89812  0.78153  0.37113  1.0000
  H   H904      1.0  0.93686  0.72770  0.30174  1.0000
  H   H905      1.0  0.98029  0.72894  0.23354  1.0000
  H   H906      1.0  0.93279  0.83965  0.08307  1.0000
  H   H907      1.0  0.95390  0.77925  0.26537  1.0000
  H   H908      1.0  0.97131  0.83709  0.46465  1.0000
  H   H909      1.0  0.08774  0.65243  0.19453  1.0000
  C   C561      1.0  0.08366  0.64376  0.23434  1.0000
  C   C562      1.0  0.05342  0.64766  0.25791  1.0000
  C   C563      1.0  0.90022  0.77300  0.53080  1.0000
  C   C564      1.0  0.04853  0.63649  0.30973  1.0000
  C   C565      1.0  0.02385  0.85234  0.06934  1.0000
  S   S230      1.0  0.96429  0.77798  0.07071  1.0000
  C   C566      1.0  0.98296  0.83814  0.50417  1.0000
  C   C567      1.0  0.01205  0.82133  0.06762  1.0000
  C   C568      1.0  0.10878  0.62845  0.26245  1.0000
  H   H910      1.0  0.09513  0.71566  0.40968  1.0000
  H   H911      1.0  0.04923  0.85580  0.06506  1.0000
  H   H912      1.0  0.02838  0.80105  0.06189  1.0000
  C   C569      1.0  0.10539  0.10528  0.32843  1.0000
  H   H913      1.0  0.92155  0.85998  0.50553  1.0000
  H   H914      1.0  0.02528  0.63973  0.32834  1.0000
  H   H915      1.0  0.87230  0.85493  0.14978  1.0000
  H   H916      1.0  0.98009  0.81445  0.52395  1.0000
  H   H917      1.0  0.00902  0.84106  0.49761  1.0000
  C   C570      1.0  0.07367  0.62152  0.33796  1.0000
  N   N58       1.0  0.96893  0.86440  0.53675  1.0000
  H   H918      1.0  0.10792  0.68272  0.33215  1.0000
  C   C571      1.0  0.08107  0.11310  0.41486  1.0000
  H   H919      1.0  0.10500  0.11225  0.43399  1.0000
  H   H920      1.0  0.87492  0.88902  0.19280  1.0000
  H   H921      1.0  0.99939  0.90026  0.50423  1.0000
  H   H922      1.0  0.06339  0.10454  0.44455  1.0000
  H   H923      1.0  0.10632  0.09085  0.29144  1.0000
  H   H924      1.0  0.93500  0.06991  0.08849  1.0000
  C   C572      1.0  0.04920  0.09625  0.34130  1.0000
  H   H925      1.0  0.86688  0.02816  0.23656  1.0000
  Fe  Fe116     1.0  0.98760  0.95359  0.12348  1.0000
  C   C573      1.0  0.97008  0.87417  0.08194  1.0000
  C   C574      1.0  0.09651  0.01643  0.24230  1.0000
  H   H926      1.0  0.07004  0.97359  0.06541  1.0000
  H   H927      1.0  0.10041  0.99556  0.26730  1.0000
  H   H928      1.0  0.05190  0.02694  0.09497  1.0000
  C   C575      1.0  0.08614  0.07037  0.17788  1.0000
  C   C576      1.0  0.93778  0.08428  0.05151  1.0000
  H   H929      1.0  0.96224  0.89622  0.46995  1.0000
  S   S231      1.0  0.94084  0.95450  0.30949  1.0000
  C   C577      1.0  0.97358  0.89544  0.50979  1.0000
  H   H930      1.0  0.97077  0.98125  0.49143  1.0000
  H   H931      1.0  0.10883  0.00949  0.10703  1.0000
  Fe  Fe117     1.0  0.99230  0.02038  0.16913  1.0000
  C   C578      1.0  0.06010  0.05364  0.19732  1.0000
  C   C579      1.0  0.08863  0.05979  0.37985  1.0000
  C   C580      1.0  0.00296  0.87880  0.07704  1.0000
  C   C581      1.0  0.87301  0.88152  0.15062  1.0000
  H   H932      1.0  0.08849  0.04428  0.34415  1.0000
  C   C582      1.0  0.88981  0.02051  0.33573  1.0000
  H   H933      1.0  0.86528  0.89245  0.04724  1.0000
  H   H934      1.0  0.89050  0.04600  0.34791  1.0000
  C   C583      1.0  0.05880  0.03688  0.05570  1.0000
  H   H935      1.0  0.01849  0.03188  0.36685  1.0000
  S   S232      1.0  0.02132  0.06431  0.17667  1.0000
  H   H936      1.0  0.90840  0.01657  0.30454  1.0000
  S   S233      1.0  0.94253  0.02080  0.20163  1.0000
  C   C584      1.0  0.99672  0.00857  0.43368  1.0000
  N   N59       1.0  0.08109  0.09360  0.36609  1.0000
  C   C585      1.0  0.98428  0.99799  0.34149  1.0000
  S   S234      1.0  0.93725  0.94807  0.15309  1.0000
  H   H937      1.0  0.89713  0.00545  0.37045  1.0000
  H   H938      1.0  0.97112  0.10647  0.13386  1.0000
  C   C586      1.0  0.96255  0.97504  0.35730  1.0000
  C   C587      1.0  0.06531  0.02725  0.23075  1.0000
  H   H939      1.0  0.94061  0.95158  0.42389  1.0000
  H   H940      1.0  0.08223  0.09131  0.15295  1.0000
  C   C588      1.0  0.00146  0.01452  0.37954  1.0000
  H   H941      1.0  0.89542  0.88837  0.13005  1.0000
  H   H942      1.0  0.04532  0.01521  0.24803  1.0000
  H   H943      1.0  0.03022  0.08825  0.36909  1.0000
  H   H944      1.0  0.07093  0.05031  0.40868  1.0000
  Fe  Fe118     1.0  0.95480  0.97063  0.22760  1.0000
  H   H945      1.0  0.06499  0.06232  0.06162  1.0000
  S   S235      1.0  0.01855  0.91734  0.07984  1.0000
  S   S236      1.0  0.01832  0.02994  0.48059  1.0000
  H   H946      1.0  0.04814  0.08135  0.30487  1.0000
  S   S237      1.0  0.88593  0.01731  0.08327  1.0000
  S   S238      1.0  0.00584  0.97162  0.20068  1.0000
  C   C589      1.0  0.97470  0.98583  0.44967  1.0000
  H   H947      1.0  0.86472  0.96223  0.33583  1.0000
  H   H948      1.0  0.95381  0.89452  0.08649  1.0000
  H   H949      1.0  0.98797  0.00308  0.29991  1.0000
  Fe  Fe119     1.0  0.93000  0.99861  0.12428  1.0000
  C   C590      1.0  0.95765  0.96905  0.41147  1.0000
  S   S239      1.0  0.97883  0.00264  0.08884  1.0000
  H   H950      1.0  0.87572  0.97271  0.26947  1.0000
  H   H951      1.0  0.86881  0.93990  0.10913  1.0000
  H   H952      1.0  0.99459  0.10802  0.07423  1.0000
  H   H953      1.0  0.96283  0.91566  0.53324  1.0000
  C   C591      1.0  0.10381  0.61723  0.31432  1.0000
  C   C592      1.0  0.00228  0.65043  0.65127  1.0000
  Fe  Fe120     1.0  0.97153  0.76662  0.66092  1.0000
  S   S240      1.0  0.93829  0.72671  0.64830  1.0000
  S   S241      1.0  0.03202  0.64194  0.96052  1.0000
  S   S242      1.0  0.04058  0.73157  0.00845  1.0000
  N   N60       1.0  0.03244  0.66407  0.66947  1.0000
  S   S243      1.0  0.94184  0.67113  0.76498  1.0000
  C   C593      1.0  0.05260  0.67170  0.62298  1.0000
  C   C594      1.0  0.96764  0.66443  0.81875  1.0000
  C   C595      1.0  0.97414  0.68876  0.85472  1.0000
  C   C596      1.0  0.99388  0.68214  0.89869  1.0000
  C   C597      1.0  0.00775  0.65146  0.90567  1.0000
  C   C598      1.0  0.98178  0.63395  0.82558  1.0000
  H   H954      1.0  0.96321  0.71237  0.84961  1.0000
  H   H955      1.0  0.99808  0.70068  0.92729  1.0000
  S   S244      1.0  0.97535  0.75845  0.74873  1.0000
  H   H956      1.0  0.07860  0.74472  0.59712  1.0000
  S   S245      1.0  0.01456  0.77122  0.60822  1.0000
  Fe  Fe121     1.0  0.89927  0.76353  0.66188  1.0000
  C   C599      1.0  0.07623  0.75572  0.63576  1.0000
  C   C600      1.0  0.10111  0.75234  0.67258  1.0000
  S   S246      1.0  0.89638  0.75574  0.74983  1.0000
  Fe  Fe122     1.0  0.93833  0.72189  0.73670  1.0000
  H   H957      1.0  0.07256  0.64999  0.71800  1.0000
  C   C601      1.0  0.04960  0.64054  0.70376  1.0000
  C   C602      1.0  0.09756  0.76562  0.72325  1.0000
  C   C603      1.0  0.04778  0.77210  0.64990  1.0000
  N   N61       1.0  0.87460  0.81212  0.93074  1.0000
  C   C604      1.0  0.04493  0.78664  0.69959  1.0000
  C   C605      1.0  0.06980  0.78340  0.73628  1.0000
  S   S247      1.0  0.93272  0.83537  0.80704  1.0000
  H   H958      1.0  0.06711  0.79400  0.77522  1.0000
  Fe  Fe123     1.0  0.93344  0.79311  0.75325  1.0000
  S   S248      1.0  0.93253  0.80415  0.66620  1.0000
  C   C606      1.0  0.88501  0.79757  0.98167  1.0000
  H   H959      1.0  0.02337  0.80019  0.71005  1.0000
  Fe  Fe124     1.0  0.03240  0.67962  0.02413  1.0000
  H   H960      1.0  0.05812  0.64999  0.59868  1.0000
  H   H961      1.0  0.07573  0.68169  0.63527  1.0000
  H   H962      1.0  0.04044  0.68981  0.59677  1.0000
  H   H963      1.0  0.04739  0.70475  0.71395  1.0000
  C   C607      1.0  0.02522  0.69361  0.69980  1.0000
  H   H964      1.0  0.98857  0.66761  0.62554  1.0000
  H   H965      1.0  0.01223  0.71180  0.67497  1.0000
  C   C608      1.0  0.88476  0.79081  0.88673  1.0000
  H   H966      1.0  0.91121  0.78707  0.88548  1.0000
  H   H967      1.0  0.87739  0.80103  0.84767  1.0000
  H   H968      1.0  0.87388  0.76694  0.89018  1.0000
  H   H969      1.0  0.88185  0.85390  0.73654  1.0000
  H   H970      1.0  0.00992  0.68884  0.73510  1.0000
  C   C609      1.0  0.88932  0.84356  0.92398  1.0000
  H   H971      1.0  0.91592  0.84119  0.92358  1.0000
  H   H972      1.0  0.88212  0.85509  0.88570  1.0000
  H   H973      1.0  0.03496  0.63440  0.73925  1.0000
  H   H974      1.0  0.00686  0.62812  0.62802  1.0000
  C   C610      1.0  0.00219  0.62765  0.86837  1.0000
  H   H975      1.0  0.91158  0.79487  0.98368  1.0000
  H   H976      1.0  0.88198  0.86035  0.95621  1.0000
  H   H977      1.0  0.08079  0.72609  0.91394  1.0000
  H   H978      1.0  0.98649  0.64431  0.68536  1.0000
  H   H979      1.0  0.88169  0.69312  0.69850  1.0000
  H   H980      1.0  0.98209  0.84130  0.61035  1.0000
  H   H981      1.0  0.07134  0.68685  0.89138  1.0000
  C   C611      1.0  0.08996  0.70528  0.89041  1.0000
  H   H982      1.0  0.05520  0.61792  0.68195  1.0000
  H   H983      1.0  0.87593  0.65103  0.70330  1.0000
  H   H984      1.0  0.87530  0.77331  0.98717  1.0000
  C   C612      1.0  0.98480  0.86444  0.58899  1.0000
  H   H985      1.0  0.87696  0.81233  0.01615  1.0000
  H   H986      1.0  0.91766  0.77499  0.56185  1.0000
  C   C613      1.0  0.86428  0.67419  0.69095  1.0000
  H   H987      1.0  0.09854  0.66103  0.96741  1.0000
  H   H988      1.0  0.09252  0.71378  0.84866  1.0000
  H   H989      1.0  0.10715  0.69982  0.99278  1.0000
  H   H990      1.0  0.92988  0.83612  0.56333  1.0000
  C   C614      1.0  0.93434  0.85955  0.54413  1.0000
  C   C615      1.0  0.86836  0.76690  0.54350  1.0000
  C   C616      1.0  0.92825  0.86763  0.76316  1.0000
  C   C617      1.0  0.10903  0.95206  0.63980  1.0000
  H   H991      1.0  0.88528  0.03669  0.78232  1.0000
  C   C618      1.0  0.87954  0.94327  0.98155  1.0000
  C   C619      1.0  0.07632  0.98440  0.02630  1.0000
  S   S249      1.0  0.95971  0.08044  0.72025  1.0000
  C   C620      1.0  0.98639  0.11023  0.86548  1.0000
  N   N62       1.0  0.10607  0.07887  0.79486  1.0000
  H   H992      1.0  0.08727  0.94961  0.61748  1.0000
  H   H993      1.0  0.05950  0.10003  0.81133  1.0000
  H   H994      1.0  0.91580  0.02703  0.83027  1.0000
  N   N63       1.0  0.89200  0.98635  0.79886  1.0000
  Fe  Fe125     1.0  0.96421  0.97353  0.62930  1.0000
  H   H995      1.0  0.07016  0.05278  0.75402  1.0000
  Fe  Fe126     1.0  0.97864  0.03961  0.67013  1.0000
  H   H996      1.0  0.86926  0.95166  0.75031  1.0000
  H   H997      1.0  0.01089  0.86829  0.58492  1.0000
  C   C621      1.0  0.86710  0.98642  0.84079  1.0000
  C   C622      1.0  0.91824  0.96356  0.81361  1.0000
  C   C623      1.0  0.90124  0.87012  0.73082  1.0000
  C   C624      1.0  0.09357  0.03144  0.97934  1.0000
  H   H998      1.0  0.07263  0.03132  0.95233  1.0000
  H   H999      1.0  0.89600  0.97698  0.71518  1.0000
  H   H1000     1.0  0.87914  0.89419  0.66404  1.0000
  H   H1001     1.0  0.93751  0.96296  0.78302  1.0000
  H   H1002     1.0  0.89491  0.92401  0.96654  1.0000
  H   H1003     1.0  0.07741  0.07864  0.86609  1.0000
  C   C625      1.0  0.89982  0.89270  0.68957  1.0000
  C   C626      1.0  0.08262  0.09429  0.83148  1.0000
  H   H1004     1.0  0.92311  0.01986  0.76118  1.0000
  H   H1005     1.0  0.99955  0.03463  0.77921  1.0000
  S   S250      1.0  0.92456  0.93887  0.62611  1.0000
  H   H1006     1.0  0.97491  0.88546  0.77882  1.0000
  H   H1007     1.0  0.87662  0.99429  0.87957  1.0000
  H   H1008     1.0  0.02142  0.03571  0.86968  1.0000
  H   H1009     1.0  0.05494  0.98253  0.00056  1.0000
  H   H1010     1.0  0.09598  0.96935  0.00853  1.0000
  H   H1011     1.0  0.90963  0.93871  0.81766  1.0000
  C   C627      1.0  0.97273  0.10901  0.81484  1.0000
  Fe  Fe127     1.0  0.00589  0.01597  0.56450  1.0000
  C   C628      1.0  0.99521  0.05549  0.80323  1.0000
  H   H1012     1.0  0.08955  0.10617  0.72726  1.0000
  C   C629      1.0  0.90456  0.01887  0.79303  1.0000
  C   C630      1.0  0.09328  0.04864  0.77507  1.0000
  H   H1013     1.0  0.08883  0.03142  0.80790  1.0000
  S   S251      1.0  0.01297  0.96523  0.59338  1.0000
  S   S252      1.0  0.07117  0.97459  0.72232  1.0000
  H   H1014     1.0  0.97463  0.88375  0.61481  1.0000
  Fe  Fe128     1.0  0.03073  0.98804  0.66775  1.0000
  H   H1015     1.0  0.03723  0.03684  0.03014  1.0000
  N   N64       1.0  0.08566  0.01802  0.03202  1.0000
  S   S253      1.0  0.98245  0.99095  0.70645  1.0000
  C   C631      1.0  0.00361  0.08365  0.88556  1.0000
  S   S254      1.0  0.95577  0.02267  0.59552  1.0000
  H   H1016     1.0  0.92922  0.97009  0.85199  1.0000
  C   C632      1.0  0.95236  0.91031  0.71313  1.0000
  C   C633      1.0  0.92555  0.91255  0.68034  1.0000
  H   H1017     1.0  0.10106  0.05666  0.98262  1.0000
  S   S255      1.0  0.02124  0.08497  0.94832  1.0000
  C   C634      1.0  0.97719  0.08166  0.78347  1.0000
  C   C635      1.0  0.00779  0.05619  0.85458  1.0000
  S   S256      1.0  0.02814  0.03812  0.63587  1.0000
  C   C636      1.0  0.95360  0.88804  0.75485  1.0000
  C   C637      1.0  0.87804  0.97648  0.74800  1.0000
  H   H1018     1.0  0.97281  0.92467  0.70506  1.0000
  C   C638      1.0  0.89191  0.96589  0.01617  1.0000
  H   H1019     1.0  0.92307  0.87848  0.56966  1.0000
  H   H1020     1.0  0.91671  0.96394  0.02805  1.0000
  C   C639      1.0  0.10764  0.96425  0.69140  1.0000
  C   C640      1.0  0.87202  0.99069  0.03596  1.0000
  H   H1021     1.0  0.91536  0.08211  0.02847  1.0000
  H   H1022     1.0  0.95764  0.07284  0.02794  1.0000
  H   H1023     1.0  0.97688  0.61514  0.79773  1.0000
  H   H1024     1.0  0.11007  0.03653  0.74654  1.0000
