data_image0
_chemical_formula_structural       H2SH2FeHNH2CHCHSHSCHC2H2NH5NH2C2H2SH3CFeHCHSCH3C2H3S2CSCHSHFeSFeSFeSH2CH2C6H4CHCH2CH5C2HCH3C2HNHC2H4NCHSHCFeSC2FeS2FeS2FeHSCHCH2C7HCH2C2SHCH2FeH2CH2NCHC3HSH5C5H4CH4SCHCH4SHCH4C2HCHNSHSH3FeS2FeSHFeSFeS3FeSH2SHFeSH2SHC6H3SC2HNHCFeHSH2C2HC3HFeHC2HC3HCFeC3H2S2HFeH2C2HC3H2NC4H6FeNH2CH4CH2CNCH2CH2CH2CH5CHC3NH2CS2HSH2CNSH3CH5CHCH4NC2HCHCH7SHC2H4N2C3SNCHC3HCH7CHCH3C2H2CHSH4SHCH4CHC2SH3NH2C3H2CNH2CSHCH7CH2CHCH4C3H5CHCH3SCH3SFeS2CFeHSFeNSHNCHCH2C2H2C2HCSHCH4SC2H3CSH2SCHCH4NHC2FeH2CFeSFeS2FeSFeS3HSCHSH3C7HCHC6H4C2HSC2H4S2CH2NC4FeH2FeH5CH4CH2FeH6CHCHSCHFeS2C2HSC5HC2SH8CSH4CHFeHSFeSCH2FeSHSFeSHFeSHFeSFeHSHSCH3SC6H4C5HSH2S2H4CHFeN2HNC4H2CH4CH4C3NH2CH3C2HFeC2H2FeCH3FeCHC2FeCS3CHFeSFeHSHFeS2FeSCSH2S4C4SCH2C4H7C4H5CFeSH2CFeHNSCSH3CSFe2CHSNSH2NFe2HCHCHC3H3FeCH6SHCHCH2CSCH2FeC5H5S2H3SH4CHSHFeC5H2FeS2H4SCSC6H4CNHFeH3CH2CH2CH2CHCSCHNS2H5C2H4NCSHCH2CH5FeHCH3CSHS2Fe4SHSC7H4C6HSH2NHCH3CHNS2H4SHSH5C2HCH2CHC2Fe2H2FeHC2HCHCHSCH2CHNH3NCH3C2H2C2H4CHC2H3SCH8CHSCH3CSHCH2CHCH2SHCHSCH2CH2CH2CH2C2SHN2H2CH3CH4SHC2H2CHSHC2H3C2H3CHC3HCH3CSC2H2CHCSC2H2FeNHFeCH5CH6CH3CNCSH3CSH4C3HSH2C2FeS2C2FeSHSFeS2FeS2FeSFeS2H3CSHCSH4C7H5C2H2C3SCH4NH4CH2CH2C4HCFeCHCHCNHNCH3C2H4C2H2FeH2CHCH2CH5SCHFe2H2CHC2HCHSHS2H7FeC5H7CFeHCNHSHFeSFeCSFeC2S2FeSCHC3HSHC2HCH2CHCH4NH2CHSHC2HCHCH9Fe2S2FeSHFeSFeS4H3CHSHC2H4C6H2CH5C6H4NC3HSCH5C4HCHCH5NC2SC2H2SFeHS2HSHFeHCFeSH2FeCHSFeH
_chemical_formula_sum              "H768 S192 Fe96 N48 C480"
_cell_length_a       36.3452
_cell_length_b       34.7321
_cell_length_c       47.8155
_cell_angle_alpha    90.1508
_cell_angle_beta     89.1284
_cell_angle_gamma    91.0753

_space_group_name_H-M_alt    "P 1"
_space_group_IT_number       1

loop_
  _space_group_symop_operation_xyz
  'x, y, z'

loop_
  _atom_site_type_symbol
  _atom_site_label
  _atom_site_symmetry_multiplicity
  _atom_site_fract_x
  _atom_site_fract_y
  _atom_site_fract_z
  _atom_site_occupancy
  H   H1        1.0  0.12639  0.46423  0.21087  1.0000
  H   H2        1.0  0.46081  0.17859  0.29235  1.0000
  S   S1        1.0  0.10334  0.26117  0.29847  1.0000
  H   H3        1.0  0.50686  0.13614  0.24915  1.0000
  H   H4        1.0  0.53970  0.26788  0.08175  1.0000
  Fe  Fe1       1.0  0.12732  0.21398  0.27237  1.0000
  H   H5        1.0  0.13794  0.42548  0.25369  1.0000
  N   N1        1.0  0.37981  0.56411  0.29571  1.0000
  H   H6        1.0  0.26078  0.18695  0.28991  1.0000
  H   H7        1.0  0.10987  0.30405  0.15685  1.0000
  C   C1        1.0  0.10761  0.42452  0.25715  1.0000
  H   H8        1.0  0.10217  0.49219  0.28416  1.0000
  C   C2        1.0  0.35095  0.56114  0.27430  1.0000
  H   H9        1.0  0.15668  0.12626  0.27200  1.0000
  S   S2        1.0  0.09535  0.60084  0.28232  1.0000
  H   H10       1.0  0.22346  0.57947  0.30145  1.0000
  S   S3        1.0  0.18820  0.20409  0.27085  1.0000
  C   C3        1.0  0.47695  0.12914  0.25132  1.0000
  H   H11       1.0  0.13672  0.49627  0.25701  1.0000
  C   C4        1.0  0.47513  0.15221  0.29904  1.0000
  C   C5        1.0  0.52620  0.25612  0.06266  1.0000
  H   H12       1.0  0.56513  0.38896  0.08401  1.0000
  H   H13       1.0  0.09411  0.52083  0.25375  1.0000
  N   N2        1.0  0.09026  0.45980  0.24685  1.0000
  H   H14       1.0  0.15668  0.56448  0.30162  1.0000
  H   H15       1.0  0.46158  0.15445  0.24392  1.0000
  H   H16       1.0  0.41013  0.13416  0.27607  1.0000
  H   H17       1.0  0.51054  0.22960  0.06882  1.0000
  H   H18       1.0  0.43880  0.56700  0.29765  1.0000
  N   N3        1.0  0.46687  0.11910  0.28051  1.0000
  H   H19       1.0  0.42129  0.53946  0.26891  1.0000
  H   H20       1.0  0.32291  0.56017  0.28417  1.0000
  C   C6        1.0  0.55247  0.39293  0.06394  1.0000
  C   C7        1.0  0.10657  0.49373  0.26108  1.0000
  H   H21       1.0  0.09680  0.39851  0.24620  1.0000
  H   H22       1.0  0.41995  0.59121  0.26824  1.0000
  S   S4        1.0  0.57818  0.16652  0.26859  1.0000
  H   H23       1.0  0.51571  0.34414  0.06889  1.0000
  H   H24       1.0  0.10474  0.29794  0.20840  1.0000
  H   H25       1.0  0.35213  0.58621  0.25985  1.0000
  C   C8        1.0  0.41652  0.56552  0.28196  1.0000
  Fe  Fe2       1.0  0.58532  0.61317  0.29286  1.0000
  H   H26       1.0  0.35379  0.53452  0.26150  1.0000
  C   C9        1.0  0.20383  0.18765  0.30306  1.0000
  H   H27       1.0  0.10217  0.42029  0.27993  1.0000
  S   S5        1.0  0.09488  0.22699  0.23412  1.0000
  C   C10       1.0  0.09653  0.46314  0.21631  1.0000
  H   H28       1.0  0.50516  0.15910  0.29951  1.0000
  H   H29       1.0  0.38212  0.50294  0.30262  1.0000
  H   H30       1.0  0.56477  0.19159  0.05568  1.0000
  C   C11       1.0  0.09094  0.32187  0.16854  1.0000
  C   C12       1.0  0.52454  0.36750  0.05534  1.0000
  H   H31       1.0  0.50584  0.27757  0.05577  1.0000
  H   H32       1.0  0.20771  0.24057  0.36132  1.0000
  H   H33       1.0  0.31069  0.41745  0.53642  1.0000
  S   S6        1.0  0.10954  0.52353  0.34172  1.0000
  S   S7        1.0  0.30281  0.42329  0.44076  1.0000
  C   C13       1.0  0.35438  0.46456  0.50554  1.0000
  S   S8        1.0  0.30965  0.20424  0.43045  1.0000
  C   C14       1.0  0.28093  0.25298  0.36747  1.0000
  H   H34       1.0  0.39559  0.60259  0.32890  1.0000
  S   S9        1.0  0.39686  0.18057  0.43116  1.0000
  H   H35       1.0  0.45060  0.17291  0.38723  1.0000
  Fe  Fe3       1.0  0.34451  0.16249  0.45340  1.0000
  S   S10       1.0  0.33937  0.16234  0.50046  1.0000
  Fe  Fe4       1.0  0.36087  0.21800  0.40556  1.0000
  S   S11       1.0  0.38007  0.27650  0.39054  1.0000
  Fe  Fe5       1.0  0.30122  0.15605  0.39982  1.0000
  S   S12       1.0  0.34942  0.17339  0.37259  1.0000
  H   H36       1.0  0.21722  0.29422  0.41012  1.0000
  H   H37       1.0  0.19576  0.29028  0.36054  1.0000
  C   C15       1.0  0.21865  0.27001  0.35675  1.0000
  H   H38       1.0  0.23116  0.24475  0.40889  1.0000
  H   H39       1.0  0.28891  0.25424  0.34493  1.0000
  C   C16       1.0  0.32594  0.38264  0.42813  1.0000
  C   C17       1.0  0.31728  0.34613  0.43910  1.0000
  C   C18       1.0  0.33478  0.31335  0.42842  1.0000
  C   C19       1.0  0.36040  0.31698  0.40641  1.0000
  C   C20       1.0  0.36950  0.35354  0.39588  1.0000
  C   C21       1.0  0.35256  0.38630  0.40688  1.0000
  H   H40       1.0  0.29707  0.34316  0.45583  1.0000
  H   H41       1.0  0.32839  0.28533  0.43715  1.0000
  H   H42       1.0  0.38962  0.35651  0.37906  1.0000
  H   H43       1.0  0.36011  0.41428  0.39874  1.0000
  C   C22       1.0  0.53479  0.15064  0.36025  1.0000
  H   H44       1.0  0.27310  0.22267  0.37249  1.0000
  C   C23       1.0  0.26319  0.31953  0.36896  1.0000
  H   H45       1.0  0.30677  0.14767  0.55418  1.0000
  H   H46       1.0  0.30590  0.26011  0.37969  1.0000
  C   C24       1.0  0.50676  0.17258  0.37230  1.0000
  H   H47       1.0  0.12932  0.60504  0.36493  1.0000
  H   H48       1.0  0.22594  0.27092  0.33404  1.0000
  H   H49       1.0  0.56951  0.51956  0.35126  1.0000
  H   H50       1.0  0.28766  0.32736  0.38166  1.0000
  H   H51       1.0  0.27121  0.32377  0.34661  1.0000
  C   C25       1.0  0.17879  0.18016  0.32491  1.0000
  C   C26       1.0  0.19105  0.16534  0.35025  1.0000
  H   H52       1.0  0.24133  0.34043  0.37432  1.0000
  C   C27       1.0  0.25381  0.16736  0.33253  1.0000
  H   H53       1.0  0.29267  0.48467  0.47846  1.0000
  H   H54       1.0  0.14994  0.18591  0.32243  1.0000
  H   H55       1.0  0.26369  0.28190  0.41800  1.0000
  C   C28       1.0  0.53835  0.50377  0.40326  1.0000
  C   C29       1.0  0.47255  0.15539  0.37910  1.0000
  H   H56       1.0  0.39531  0.57416  0.48394  1.0000
  N   N4        1.0  0.25072  0.27942  0.37432  1.0000
  H   H57       1.0  0.51110  0.20315  0.37567  1.0000
  C   C30       1.0  0.24017  0.27496  0.40414  1.0000
  C   C31       1.0  0.22859  0.15947  0.35425  1.0000
  H   H58       1.0  0.28279  0.16249  0.33545  1.0000
  H   H59       1.0  0.58721  0.55619  0.42340  1.0000
  H   H60       1.0  0.52249  0.48905  0.38647  1.0000
  H   H61       1.0  0.31406  0.52583  0.49425  1.0000
  N   N5        1.0  0.57751  0.50908  0.39507  1.0000
  C   C32       1.0  0.45721  0.58458  0.35914  1.0000
  H   H62       1.0  0.26875  0.44306  0.53121  1.0000
  S   S13       1.0  0.24289  0.14334  0.38690  1.0000
  H   H63       1.0  0.56539  0.56150  0.37320  1.0000
  C   C33       1.0  0.17336  0.55376  0.31816  1.0000
  Fe  Fe6       1.0  0.38183  0.13468  0.40000  1.0000
  S   S14       1.0  0.57642  0.17322  0.35004  1.0000
  C   C34       1.0  0.37453  0.59953  0.31240  1.0000
  C   C35       1.0  0.30964  0.12032  0.54355  1.0000
  Fe  Fe7       1.0  0.38779  0.52253  0.39527  1.0000
  S   S15       1.0  0.37087  0.51061  0.43979  1.0000
  S   S16       1.0  0.44537  0.51135  0.37992  1.0000
  Fe  Fe8       1.0  0.31050  0.54084  0.37753  1.0000
  S   S17       1.0  0.28661  0.53018  0.42033  1.0000
  S   S18       1.0  0.28031  0.56107  0.33964  1.0000
  Fe  Fe9       1.0  0.33619  0.56280  0.43546  1.0000
  H   H64       1.0  0.16757  0.49898  0.37692  1.0000
  S   S19       1.0  0.35747  0.57795  0.39248  1.0000
  C   C36       1.0  0.24136  0.18120  0.30684  1.0000
  H   H65       1.0  0.37010  0.44521  0.51929  1.0000
  C   C37       1.0  0.38078  0.58214  0.50295  1.0000
  H   H66       1.0  0.34713  0.59934  0.32314  1.0000
  H   H67       1.0  0.34929  0.52755  0.32413  1.0000
  C   C38       1.0  0.38017  0.59172  0.55342  1.0000
  C   C39       1.0  0.15738  0.53152  0.33962  1.0000
  C   C40       1.0  0.17972  0.51654  0.36041  1.0000
  C   C41       1.0  0.21767  0.52486  0.36029  1.0000
  C   C42       1.0  0.23341  0.54807  0.33930  1.0000
  C   C43       1.0  0.21130  0.56200  0.31800  1.0000
  C   C44       1.0  0.47570  0.61147  0.34175  1.0000
  H   H68       1.0  0.23462  0.51331  0.37648  1.0000
  C   C45       1.0  0.39825  0.57966  0.52890  1.0000
  H   H69       1.0  0.35155  0.44977  0.48495  1.0000
  H   H70       1.0  0.43622  0.59403  0.37374  1.0000
  C   C46       1.0  0.49431  0.53385  0.33948  1.0000
  C   C47       1.0  0.46667  0.54576  0.35804  1.0000
  S   S20       1.0  0.32474  0.60588  0.46942  1.0000
  H   H71       1.0  0.39744  0.53202  0.33139  1.0000
  C   C48       1.0  0.50404  0.59955  0.32367  1.0000
  H   H72       1.0  0.50121  0.50372  0.33817  1.0000
  H   H73       1.0  0.53501  0.48588  0.42242  1.0000
  Fe  Fe10      1.0  0.32302  0.47877  0.42107  1.0000
  H   H74       1.0  0.53430  0.55114  0.30821  1.0000
  H   H75       1.0  0.52487  0.53180  0.40738  1.0000
  C   C49       1.0  0.34541  0.59715  0.50157  1.0000
  H   H76       1.0  0.29631  0.50068  0.55504  1.0000
  H   H77       1.0  0.33932  0.52054  0.54251  1.0000
  N   N6        1.0  0.31801  0.47354  0.51792  1.0000
  C   C50       1.0  0.29651  0.43741  0.52214  1.0000
  H   H78       1.0  0.57862  0.45667  0.37100  1.0000
  C   C51       1.0  0.34394  0.60423  0.55207  1.0000
  C   C52       1.0  0.51309  0.56069  0.32249  1.0000
  C   C53       1.0  0.29805  0.49899  0.49886  1.0000
  H   H79       1.0  0.17153  0.15954  0.36713  1.0000
  S   S21       1.0  0.34251  0.48638  0.37672  1.0000
  H   H80       1.0  0.27100  0.50747  0.50789  1.0000
  H   H81       1.0  0.29244  0.42183  0.50195  1.0000
  H   H82       1.0  0.42619  0.56956  0.52988  1.0000
  H   H83       1.0  0.46611  0.14619  0.32092  1.0000
  H   H84       1.0  0.37140  0.49117  0.50213  1.0000
  C   C54       1.0  0.32314  0.49322  0.54508  1.0000
  C   C55       1.0  0.32679  0.60747  0.52618  1.0000
  C   C56       1.0  0.58051  0.53417  0.37017  1.0000
  C   C57       1.0  0.37710  0.53017  0.31425  1.0000
  C   C58       1.0  0.32298  0.11939  0.51592  1.0000
  H   H85       1.0  0.42312  0.12867  0.54527  1.0000
  H   H86       1.0  0.17823  0.60228  0.36868  1.0000
  H   H87       1.0  0.58324  0.61335  0.73196  1.0000
  H   H88       1.0  0.32903  0.61137  0.57095  1.0000
  C   C59       1.0  0.18018  0.56728  0.76557  1.0000
  H   H89       1.0  0.46394  0.11918  0.58667  1.0000
  H   H90       1.0  0.33821  0.47497  0.56002  1.0000
  H   H91       1.0  0.43725  0.59824  0.70089  1.0000
  H   H92       1.0  0.23540  0.58724  0.73075  1.0000
  S   S22       1.0  0.50896  0.55202  0.77987  1.0000
  C   C60       1.0  0.23610  0.55734  0.73897  1.0000
  H   H93       1.0  0.40082  0.14490  0.59250  1.0000
  C   C61       1.0  0.46615  0.57614  0.73652  1.0000
  H   H94       1.0  0.20685  0.51161  0.79830  1.0000
  H   H95       1.0  0.16598  0.56529  0.78624  1.0000
  H   H96       1.0  0.47066  0.54818  0.72719  1.0000
  H   H97       1.0  0.22161  0.53852  0.72364  1.0000
  S   S23       1.0  0.40369  0.59273  0.58525  1.0000
  H   H98       1.0  0.20399  0.49472  0.76299  1.0000
  C   C62       1.0  0.23917  0.57997  0.78666  1.0000
  H   H99       1.0  0.54083  0.60733  0.71339  1.0000
  H   H100      1.0  0.17860  0.59779  0.75882  1.0000
  H   H101      1.0  0.24818  0.50404  0.77841  1.0000
  H   H102      1.0  0.16400  0.54947  0.75060  1.0000
  C   C63       1.0  0.44730  0.60440  0.72164  1.0000
  C   C64       1.0  0.21952  0.51452  0.77705  1.0000
  H   H103      1.0  0.26834  0.57129  0.78847  1.0000
  C   C65       1.0  0.48043  0.58464  0.76298  1.0000
  H   H104      1.0  0.26546  0.54884  0.73929  1.0000
  N   N7        1.0  0.21874  0.55476  0.76707  1.0000
  S   S24       1.0  0.10173  0.11613  0.79274  1.0000
  H   H105      1.0  0.23922  0.61051  0.77979  1.0000
  S   S25       1.0  0.36139  0.61390  0.66117  1.0000
  H   H106      1.0  0.22136  0.31047  0.94974  1.0000
  H   H107      1.0  0.55047  0.42271  0.94847  1.0000
  H   H108      1.0  0.18693  0.28555  0.92995  1.0000
  Fe  Fe11      1.0  0.51579  0.26370  0.93095  1.0000
  S   S26       1.0  0.46015  0.28216  0.94587  1.0000
  S   S27       1.0  0.52786  0.20074  0.93324  1.0000
  Fe  Fe12      1.0  0.54367  0.34533  0.92240  1.0000
  S   S28       1.0  0.49072  0.37150  0.93686  1.0000
  H   H109      1.0  0.47449  0.21754  0.84237  1.0000
  Fe  Fe13      1.0  0.49145  0.32650  0.97035  1.0000
  S   S29       1.0  0.48021  0.33481  0.01607  1.0000
  Fe  Fe14      1.0  0.46411  0.32527  0.91101  1.0000
  S   S30       1.0  0.41779  0.34145  0.88298  1.0000
  S   S31       1.0  0.54700  0.30462  0.95832  1.0000
  S   S32       1.0  0.51706  0.30251  0.89347  1.0000
  Fe  Fe15      1.0  0.14828  0.36782  0.91936  1.0000
  S   S33       1.0  0.17254  0.38302  0.96070  1.0000
  H   H110      1.0  0.42822  0.13054  0.81228  1.0000
  H   H111      1.0  0.49237  0.12044  0.87137  1.0000
  S   S34       1.0  0.12939  0.42775  0.91106  1.0000
  H   H112      1.0  0.44725  0.42718  0.88938  1.0000
  Fe  Fe16      1.0  0.22461  0.39448  0.93636  1.0000
  S   S35       1.0  0.27488  0.37081  0.95623  1.0000
  H   H113      1.0  0.10591  0.18244  0.88803  1.0000
  H   H114      1.0  0.50861  0.40523  0.99122  1.0000
  S   S36       1.0  0.20172  0.37455  0.89547  1.0000
  H   H115      1.0  0.52550  0.14930  0.83118  1.0000
  C   C66       1.0  0.37835  0.35182  0.90314  1.0000
  C   C67       1.0  0.37867  0.34703  0.93213  1.0000
  C   C68       1.0  0.34686  0.35359  0.94818  1.0000
  C   C69       1.0  0.31474  0.36580  0.93545  1.0000
  C   C70       1.0  0.31456  0.37183  0.90650  1.0000
  C   C71       1.0  0.34631  0.36448  0.89031  1.0000
  H   H116      1.0  0.40336  0.33807  0.94232  1.0000
  H   H117      1.0  0.34723  0.34923  0.97059  1.0000
  H   H118      1.0  0.28991  0.38167  0.89658  1.0000
  S   S37       1.0  0.51214  0.60264  0.85278  1.0000
  C   C72       1.0  0.58646  0.42911  0.91254  1.0000
  C   C73       1.0  0.55864  0.14352  0.90232  1.0000
  H   H119      1.0  0.24863  0.20809  0.90479  1.0000
  N   N8        1.0  0.46780  0.15584  0.84017  1.0000
  H   H120      1.0  0.22065  0.20496  0.93609  1.0000
  C   C74       1.0  0.50956  0.37114  0.02874  1.0000
  Fe  Fe17      1.0  0.18506  0.43625  0.89093  1.0000
  H   H121      1.0  0.20240  0.22515  0.90490  1.0000
  S   S38       1.0  0.21273  0.45685  0.92998  1.0000
  H   H122      1.0  0.20363  0.26465  0.96149  1.0000
  H   H123      1.0  0.09933  0.38828  0.98877  1.0000
  C   C75       1.0  0.14398  0.21708  0.86345  1.0000
  C   C76       1.0  0.11750  0.21096  0.88457  1.0000
  H   H124      1.0  0.13228  0.59304  0.83203  1.0000
  C   C77       1.0  0.12254  0.27842  0.89798  1.0000
  C   C78       1.0  0.14841  0.28461  0.87648  1.0000
  C   C79       1.0  0.15933  0.25392  0.85938  1.0000
  H   H125      1.0  0.17948  0.25879  0.84280  1.0000
  Fe  Fe18      1.0  0.54013  0.58402  0.81318  1.0000
  H   H126      1.0  0.15975  0.31309  0.87279  1.0000
  C   C80       1.0  0.57706  0.12870  0.87884  1.0000
  C   C81       1.0  0.48141  0.47223  0.83107  1.0000
  H   H127      1.0  0.11497  0.45462  0.85488  1.0000
  C   C82       1.0  0.10684  0.24164  0.90186  1.0000
  C   C83       1.0  0.57423  0.28405  0.03338  1.0000
  C   C84       1.0  0.09293  0.54691  0.83938  1.0000
  H   H128      1.0  0.51420  0.25515  0.00754  1.0000
  C   C85       1.0  0.13187  0.35121  0.03044  1.0000
  Fe  Fe19      1.0  0.56344  0.58402  0.87380  1.0000
  C   C86       1.0  0.54725  0.42860  0.02079  1.0000
  C   C87       1.0  0.12331  0.54128  0.91709  1.0000
  C   C88       1.0  0.46629  0.12277  0.85959  1.0000
  H   H129      1.0  0.14717  0.37800  0.02409  1.0000
  H   H130      1.0  0.51884  0.20658  0.01936  1.0000
  S   S39       1.0  0.15831  0.17937  0.84176  1.0000
  S   S40       1.0  0.58911  0.55989  0.83459  1.0000
  H   H131      1.0  0.45034  0.19623  0.87175  1.0000
  Fe  Fe20      1.0  0.11770  0.13019  0.83679  1.0000
  H   H132      1.0  0.34604  0.36853  0.86789  1.0000
  H   H133      1.0  0.42344  0.45796  0.86585  1.0000
  C   C89       1.0  0.52065  0.40192  0.01156  1.0000
  C   C90       1.0  0.44724  0.43847  0.86756  1.0000
  H   H134      1.0  0.14126  0.52938  0.93349  1.0000
  C   C91       1.0  0.55514  0.18331  0.90564  1.0000
  C   C92       1.0  0.47308  0.19189  0.85627  1.0000
  C   C93       1.0  0.49886  0.15123  0.82018  1.0000
  H   H135      1.0  0.49907  0.19155  0.86821  1.0000
  H   H136      1.0  0.54000  0.44528  0.85791  1.0000
  N   N9        1.0  0.24110  0.26198  0.92628  1.0000
  C   C94       1.0  0.27414  0.25834  0.94368  1.0000
  C   C95       1.0  0.25064  0.28499  0.90116  1.0000
  C   C96       1.0  0.21197  0.28145  0.94259  1.0000
  C   C97       1.0  0.22768  0.22334  0.91767  1.0000
  H   H137      1.0  0.26806  0.24129  0.96292  1.0000
  H   H138      1.0  0.28483  0.28714  0.95048  1.0000
  H   H139      1.0  0.29687  0.24412  0.93200  1.0000
  H   H140      1.0  0.22659  0.28789  0.88726  1.0000
  H   H141      1.0  0.26005  0.31454  0.90699  1.0000
  H   H142      1.0  0.27320  0.27176  0.88866  1.0000
  Fe  Fe21      1.0  0.15823  0.44359  0.95054  1.0000
  N   N10       1.0  0.55354  0.24821  0.04025  1.0000
  H   H143      1.0  0.14140  0.54980  0.89911  1.0000
  H   H144      1.0  0.14572  0.61537  0.91938  1.0000
  C   C98       1.0  0.57940  0.21896  0.05002  1.0000
  H   H145      1.0  0.47707  0.44804  0.81610  1.0000
  H   H146      1.0  0.51474  0.42062  0.88516  1.0000
  H   H147      1.0  0.54648  0.12407  0.91767  1.0000
  H   H148      1.0  0.53624  0.60423  0.00375  1.0000
  C   C99       1.0  0.43300  0.15739  0.82464  1.0000
  H   H149      1.0  0.14586  0.59485  0.95385  1.0000
  H   H150      1.0  0.44354  0.12549  0.87525  1.0000
  C   C100      1.0  0.57056  0.50756  0.91582  1.0000
  N   N11       1.0  0.48240  0.45840  0.86028  1.0000
  C   C101      1.0  0.48804  0.49160  0.87923  1.0000
  H   H151      1.0  0.09333  0.41497  0.03709  1.0000
  H   H152      1.0  0.55585  0.45236  0.00749  1.0000
  C   C102      1.0  0.57138  0.20837  0.88596  1.0000
  H   H153      1.0  0.22656  0.57933  0.80796  1.0000
  H   H154      1.0  0.09540  0.59946  0.88713  1.0000
  C   C103      1.0  0.56285  0.44255  0.93357  1.0000
  H   H155      1.0  0.45889  0.49306  0.82804  1.0000
  H   H156      1.0  0.53619  0.49201  0.95132  1.0000
  C   C104      1.0  0.55512  0.48183  0.93537  1.0000
  H   H157      1.0  0.56207  0.59237  0.97258  1.0000
  H   H158      1.0  0.51420  0.50743  0.87414  1.0000
  H   H159      1.0  0.44198  0.41329  0.85361  1.0000
  H   H160      1.0  0.46539  0.51258  0.87767  1.0000
  H   H161      1.0  0.48937  0.48231  0.90146  1.0000
  C   C105      1.0  0.56406  0.42327  0.04657  1.0000
  H   H162      1.0  0.56924  0.23914  0.88863  1.0000
  C   C106      1.0  0.15432  0.50082  0.84777  1.0000
  C   C107      1.0  0.15906  0.53987  0.84140  1.0000
  C   C108      1.0  0.12843  0.56287  0.83698  1.0000
  N   N12       1.0  0.09189  0.35500  0.02626  1.0000
  H   H163      1.0  0.10489  0.51741  0.90986  1.0000
  H   H164      1.0  0.18641  0.55247  0.84045  1.0000
  C   C109      1.0  0.11881  0.48493  0.85042  1.0000
  S   S41       1.0  0.55631  0.55540  0.91575  1.0000
  S   S42       1.0  0.19299  0.47231  0.85239  1.0000
  H   H165      1.0  0.40894  0.16073  0.83906  1.0000
  S   S43       1.0  0.13495  0.48300  0.98339  1.0000
  H   H166      1.0  0.55400  0.22828  0.99747  1.0000
  H   H167      1.0  0.14320  0.32710  0.01781  1.0000
  C   C110      1.0  0.53438  0.23388  0.01509  1.0000
  N   N13       1.0  0.10202  0.57422  0.92776  1.0000
  S   S44       1.0  0.11009  0.31605  0.92050  1.0000
  H   H168      1.0  0.50947  0.40565  0.84956  1.0000
  H   H169      1.0  0.55578  0.30625  0.02495  1.0000
  H   H170      1.0  0.43326  0.18189  0.80969  1.0000
  C   C111      1.0  0.51300  0.43134  0.86330  1.0000
  H   H171      1.0  0.09550  0.55161  0.96937  1.0000
  H   H172      1.0  0.58756  0.29649  0.05228  1.0000
  H   H173      1.0  0.51301  0.58767  0.97284  1.0000
  H   H174      1.0  0.09416  0.33745  0.98297  1.0000
  H   H175      1.0  0.13804  0.34582  0.05283  1.0000
  C   C112      1.0  0.53634  0.60588  0.98051  1.0000
  H   H176      1.0  0.50760  0.48736  0.82488  1.0000
  C   C113      1.0  0.12766  0.60510  0.93697  1.0000
  H   H177      1.0  0.09122  0.50002  0.03212  1.0000
  H   H178      1.0  0.49553  0.12450  0.80749  1.0000
  H   H179      1.0  0.50126  0.17586  0.80542  1.0000
  H   H180      1.0  0.16425  0.83600  0.10034  1.0000
  N   N14       1.0  0.55763  0.72832  0.22021  1.0000
  C   C114      1.0  0.56161  0.77063  0.22249  1.0000
  C   C115      1.0  0.09919  0.86946  0.10924  1.0000
  H   H181      1.0  0.29855  0.83033  0.06990  1.0000
  C   C116      1.0  0.52888  0.71856  0.19968  1.0000
  H   H182      1.0  0.57913  0.94160  0.18872  1.0000
  C   C117      1.0  0.56621  0.99585  0.20808  1.0000
  H   H183      1.0  0.50182  0.73056  0.20601  1.0000
  H   H184      1.0  0.21092  0.06273  0.28448  1.0000
  H   H185      1.0  0.53561  0.78402  0.22981  1.0000
  H   H186      1.0  0.16769  0.08723  0.24906  1.0000
  H   H187      1.0  0.56923  0.78373  0.20195  1.0000
  H   H188      1.0  0.13127  0.81619  0.07659  1.0000
  H   H189      1.0  0.16158  0.01980  0.26588  1.0000
  S   S45       1.0  0.46177  0.86240  0.08551  1.0000
  H   H190      1.0  0.50463  0.79793  0.06583  1.0000
  C   C118      1.0  0.12123  0.83023  0.14677  1.0000
  C   C119      1.0  0.50316  0.84114  0.12971  1.0000
  H   H191      1.0  0.56907  0.89826  0.12485  1.0000
  H   H192      1.0  0.48900  0.86340  0.14126  1.0000
  H   H193      1.0  0.53934  0.82805  0.16338  1.0000
  H   H194      1.0  0.54376  0.68012  0.24691  1.0000
  N   N15       1.0  0.15278  0.07030  0.29109  1.0000
  N   N16       1.0  0.57465  0.92000  0.08288  1.0000
  C   C120      1.0  0.55060  0.79307  0.12711  1.0000
  C   C121      1.0  0.55710  0.92032  0.11098  1.0000
  C   C122      1.0  0.55681  0.94855  0.06493  1.0000
  S   S46       1.0  0.55223  0.06411  0.23473  1.0000
  N   N17       1.0  0.10923  0.83006  0.11737  1.0000
  C   C123      1.0  0.14923  0.09591  0.26666  1.0000
  H   H195      1.0  0.56096  0.94873  0.12152  1.0000
  C   C124      1.0  0.14308  0.03034  0.28289  1.0000
  C   C125      1.0  0.53990  0.78374  0.09991  1.0000
  C   C126      1.0  0.49356  0.83313  0.10205  1.0000
  H   H196      1.0  0.55433  0.76180  0.08823  1.0000
  C   C127      1.0  0.53189  0.82140  0.14214  1.0000
  H   H197      1.0  0.12055  0.09561  0.25871  1.0000
  H   H198      1.0  0.54299  0.98422  0.21994  1.0000
  H   H199      1.0  0.58344  0.77905  0.23752  1.0000
  H   H200      1.0  0.47131  0.10467  0.23680  1.0000
  H   H201      1.0  0.14622  0.84875  0.14956  1.0000
  H   H202      1.0  0.54088  0.87401  0.06671  1.0000
  H   H203      1.0  0.12271  0.89015  0.11156  1.0000
  C   C128      1.0  0.54715  0.71205  0.24782  1.0000
  H   H204      1.0  0.56843  0.71862  0.26376  1.0000
  C   C129      1.0  0.51164  0.80405  0.08726  1.0000
  H   H205      1.0  0.52073  0.72384  0.25579  1.0000
  H   H206      1.0  0.52695  0.91419  0.10979  1.0000
  H   H207      1.0  0.52528  0.68683  0.19729  1.0000
  C   C130      1.0  0.57612  0.03483  0.21081  1.0000
  C   C131      1.0  0.13950  0.81672  0.09896  1.0000
  H   H208      1.0  0.14807  0.78714  0.10445  1.0000
  H   H209      1.0  0.53605  0.73041  0.17859  1.0000
  C   C132      1.0  0.57037  0.88130  0.07027  1.0000
  H   H210      1.0  0.12768  0.80070  0.15399  1.0000
  S   S47       1.0  0.22186  0.83849  0.05713  1.0000
  H   H211      1.0  0.09929  0.84130  0.16101  1.0000
  H   H212      1.0  0.11440  0.02805  0.27504  1.0000
  H   H213      1.0  0.48464  0.06084  0.27455  1.0000
  H   H214      1.0  0.55945  0.97813  0.07380  1.0000
  S   S48       1.0  0.52779  0.63300  0.30236  1.0000
  H   H215      1.0  0.09092  0.87034  0.08700  1.0000
  C   C133      1.0  0.58686  0.97162  0.19057  1.0000
  H   H216      1.0  0.14505  0.01020  0.30085  1.0000
  H   H217      1.0  0.37642  0.62575  0.29911  1.0000
  H   H218      1.0  0.52684  0.94181  0.06275  1.0000
  H   H219      1.0  0.58156  0.85856  0.08397  1.0000
  C   C134      1.0  0.19113  0.07212  0.30100  1.0000
  H   H220      1.0  0.51820  0.09250  0.28988  1.0000
  C   C135      1.0  0.42711  0.10946  0.28251  1.0000
  C   C136      1.0  0.48820  0.08550  0.28925  1.0000
  S   S49       1.0  0.58845  0.77054  0.14169  1.0000
  H   H221      1.0  0.41987  0.08438  0.26901  1.0000
  H   H222      1.0  0.41872  0.10194  0.30443  1.0000
  H   H223      1.0  0.42055  0.76421  0.52385  1.0000
  N   N18       1.0  0.38063  0.71937  0.53316  1.0000
  H   H224      1.0  0.38039  0.66741  0.50878  1.0000
  H   H225      1.0  0.15052  0.62057  0.39684  1.0000
  C   C137      1.0  0.12638  0.68271  0.37033  1.0000
  C   C138      1.0  0.16131  0.65744  0.33136  1.0000
  C   C139      1.0  0.38699  0.69863  0.50654  1.0000
  H   H226      1.0  0.55079  0.09396  0.34707  1.0000
  H   H227      1.0  0.19138  0.67944  0.39650  1.0000
  C   C140      1.0  0.52902  0.11116  0.35591  1.0000
  N   N19       1.0  0.15851  0.65948  0.36218  1.0000
  H   H228      1.0  0.12843  0.71227  0.36133  1.0000
  H   H229      1.0  0.46871  0.64159  0.34278  1.0000
  C   C141      1.0  0.30509  0.05051  0.54430  1.0000
  S   S50       1.0  0.42306  0.09451  0.38053  1.0000
  H   H230      1.0  0.37441  0.77424  0.51318  1.0000
  C   C142      1.0  0.12769  0.08289  0.31382  1.0000
  H   H231      1.0  0.13459  0.11268  0.32084  1.0000
  H   H232      1.0  0.41623  0.70121  0.49946  1.0000
  H   H233      1.0  0.13623  0.64380  0.32242  1.0000
  H   H234      1.0  0.33702  0.08291  0.48104  1.0000
  H   H235      1.0  0.18531  0.64030  0.32432  1.0000
  H   H236      1.0  0.36948  0.70975  0.48957  1.0000
  H   H237      1.0  0.21717  0.66068  0.36733  1.0000
  C   C143      1.0  0.49520  0.09374  0.36362  1.0000
  H   H238      1.0  0.29911  0.61834  0.52522  1.0000
  H   H239      1.0  0.43155  0.07932  0.53581  1.0000
  C   C144      1.0  0.46664  0.11595  0.37466  1.0000
  H   H240      1.0  0.10033  0.66958  0.36244  1.0000
  C   C145      1.0  0.19244  0.67757  0.37326  1.0000
  H   H241      1.0  0.38554  0.09571  0.53999  1.0000
  H   H242      1.0  0.38625  0.77693  0.54941  1.0000
  H   H243      1.0  0.19480  0.05361  0.31969  1.0000
  H   H244      1.0  0.32085  0.02221  0.50592  1.0000
  C   C146      1.0  0.39095  0.76048  0.52967  1.0000
  C   C147      1.0  0.31732  0.04959  0.51638  1.0000
  C   C148      1.0  0.32626  0.08397  0.50219  1.0000
  H   H245      1.0  0.32332  0.72828  0.52502  1.0000
  H   H246      1.0  0.49089  0.06312  0.36058  1.0000
  H   H247      1.0  0.47943  0.07536  0.31037  1.0000
  H   H248      1.0  0.33260  0.68543  0.54438  1.0000
  H   H249      1.0  0.19669  0.70728  0.36497  1.0000
  C   C149      1.0  0.34127  0.71599  0.54125  1.0000
  H   H250      1.0  0.43309  0.70359  0.54961  1.0000
  C   C150      1.0  0.41365  0.09834  0.54864  1.0000
  H   H251      1.0  0.12932  0.06393  0.33248  1.0000
  H   H252      1.0  0.12355  0.68546  0.39343  1.0000
  H   H253      1.0  0.16404  0.68663  0.32185  1.0000
  S   S51       1.0  0.33238  0.11300  0.42454  1.0000
  C   C151      1.0  0.15392  0.62018  0.37369  1.0000
  H   H254      1.0  0.19935  0.10201  0.30711  1.0000
  H   H255      1.0  0.09857  0.08272  0.30699  1.0000
  H   H256      1.0  0.38430  0.06939  0.76196  1.0000
  S   S52       1.0  0.33135  0.66886  0.61006  1.0000
  Fe  Fe22      1.0  0.39139  0.66737  0.67579  1.0000
  S   S53       1.0  0.34243  0.70545  0.67234  1.0000
  S   S54       1.0  0.42469  0.67915  0.71421  1.0000
  C   C152      1.0  0.52676  0.68229  0.70772  1.0000
  Fe  Fe23      1.0  0.36371  0.71719  0.62908  1.0000
  H   H257      1.0  0.26793  0.67882  0.75895  1.0000
  S   S55       1.0  0.41472  0.68277  0.63348  1.0000
  Fe  Fe24      1.0  0.13328  0.67777  0.78710  1.0000
  N   N20       1.0  0.56278  0.66541  0.71395  1.0000
  S   S56       1.0  0.19485  0.68156  0.78168  1.0000
  H   H258      1.0  0.29188  0.66135  0.71186  1.0000
  N   N21       1.0  0.23154  0.78071  0.68729  1.0000
  C   C153      1.0  0.44282  0.64105  0.73332  1.0000
  H   H259      1.0  0.58838  0.71994  0.72405  1.0000
  C   C154      1.0  0.45606  0.64894  0.76009  1.0000
  H   H260      1.0  0.21341  0.80814  0.64977  1.0000
  H   H261      1.0  0.45254  0.67720  0.76924  1.0000
  C   C155      1.0  0.21095  0.67247  0.74766  1.0000
  C   C156      1.0  0.18648  0.66357  0.72622  1.0000
  H   H262      1.0  0.46992  0.06938  0.57749  1.0000
  H   H263      1.0  0.52994  0.71055  0.69699  1.0000
  C   C157      1.0  0.26250  0.66223  0.71571  1.0000
  C   C158      1.0  0.24894  0.67209  0.74233  1.0000
  H   H264      1.0  0.15709  0.66391  0.73020  1.0000
  C   C159      1.0  0.55682  0.62728  0.72707  1.0000
  S   S57       1.0  0.45196  0.05683  0.79040  1.0000
  H   H265      1.0  0.50988  0.66302  0.69411  1.0000
  C   C160      1.0  0.20004  0.65351  0.69963  1.0000
  H   H266      1.0  0.25962  0.74866  0.71865  1.0000
  H   H267      1.0  0.17253  0.77521  0.68513  1.0000
  H   H268      1.0  0.56730  0.69518  0.75330  1.0000
  H   H269      1.0  0.26459  0.73036  0.68364  1.0000
  S   S58       1.0  0.09619  0.72374  0.77174  1.0000
  C   C161      1.0  0.23646  0.79050  0.65737  1.0000
  C   C162      1.0  0.45181  0.08968  0.58900  1.0000
  H   H270      1.0  0.39977  0.71777  0.57545  1.0000
  H   H271      1.0  0.19258  0.74995  0.71373  1.0000
  H   H272      1.0  0.49757  0.04918  0.74054  1.0000
  C   C163      1.0  0.19682  0.75841  0.69141  1.0000
  S   S59       1.0  0.36339  0.77453  0.60732  1.0000
  H   H273      1.0  0.26241  0.80738  0.65357  1.0000
  H   H274      1.0  0.20718  0.83494  0.69786  1.0000
  S   S60       1.0  0.53389  0.98387  0.79262  1.0000
  C   C164      1.0  0.39884  0.04805  0.58188  1.0000
  H   H275      1.0  0.41361  0.88111  0.71676  1.0000
  C   C165      1.0  0.58303  0.69103  0.73337  1.0000
  H   H276      1.0  0.33545  0.73148  0.56120  1.0000
  H   H277      1.0  0.23786  0.76411  0.64413  1.0000
  H   H278      1.0  0.35830  0.78313  0.66738  1.0000
  H   H279      1.0  0.57010  0.64148  0.67278  1.0000
  N   N22       1.0  0.41376  0.08769  0.57855  1.0000
  H   H280      1.0  0.25613  0.83405  0.70139  1.0000
  C   C166      1.0  0.23036  0.81647  0.70410  1.0000
  C   C167      1.0  0.58441  0.66103  0.68774  1.0000
  Fe  Fe25      1.0  0.38038  0.63272  0.61818  1.0000
  H   H281      1.0  0.19681  0.73133  0.67885  1.0000
  H   H282      1.0  0.14181  0.05244  0.67874  1.0000
  C   C168      1.0  0.12655  0.07965  0.68200  1.0000
  Fe  Fe26      1.0  0.30155  0.01222  0.60970  1.0000
  S   S61       1.0  0.25675  0.99215  0.63955  1.0000
  Fe  Fe27      1.0  0.35478  0.03295  0.65596  1.0000
  S   S62       1.0  0.31494  0.01518  0.68982  1.0000
  S   S63       1.0  0.41326  0.05309  0.66223  1.0000
  Fe  Fe28      1.0  0.30236  0.96418  0.66266  1.0000
  S   S64       1.0  0.29998  0.90645  0.68394  1.0000
  Fe  Fe29      1.0  0.27308  0.04476  0.66411  1.0000
  S   S65       1.0  0.23396  0.08470  0.68545  1.0000
  S   S66       1.0  0.34588  0.97935  0.63072  1.0000
  S   S67       1.0  0.31420  0.06732  0.63244  1.0000
  H   H283      1.0  0.36982  0.04573  0.57492  1.0000
  S   S68       1.0  0.25437  0.64059  0.66099  1.0000
  C   C169      1.0  0.26265  0.75721  0.69630  1.0000
  H   H284      1.0  0.28934  0.77304  0.69387  1.0000
  S   S69       1.0  0.13585  0.00876  0.78026  1.0000
  H   H285      1.0  0.30976  0.90079  0.62392  1.0000
  H   H286      1.0  0.51025  0.68715  0.72717  1.0000
  H   H287      1.0  0.28977  0.08706  0.57877  1.0000
  C   C170      1.0  0.42437  0.05810  0.69767  1.0000
  C   C171      1.0  0.46082  0.05364  0.70591  1.0000
  C   C172      1.0  0.46960  0.05404  0.73438  1.0000
  C   C173      1.0  0.44200  0.05939  0.75467  1.0000
  C   C174      1.0  0.40573  0.06501  0.74637  1.0000
  C   C175      1.0  0.39691  0.06429  0.71790  1.0000
  C   C176      1.0  0.30045  0.08599  0.55762  1.0000
  H   H288      1.0  0.40060  0.98049  0.69093  1.0000
  C   C177      1.0  0.34690  0.80820  0.65781  1.0000
  H   H289      1.0  0.36888  0.06879  0.71164  1.0000
  C   C178      1.0  0.21167  0.06219  0.71388  1.0000
  C   C179      1.0  0.19881  0.08460  0.73618  1.0000
  C   C180      1.0  0.17776  0.06759  0.75775  1.0000
  C   C181      1.0  0.16842  0.02840  0.75660  1.0000
  C   C182      1.0  0.18244  0.00564  0.73484  1.0000
  C   C183      1.0  0.20436  0.02249  0.71358  1.0000
  H   H290      1.0  0.37236  0.93911  0.68346  1.0000
  H   H291      1.0  0.16836  0.08499  0.77504  1.0000
  H   H292      1.0  0.17544  0.97526  0.73396  1.0000
  H   H293      1.0  0.21436  0.00505  0.69641  1.0000
  C   C184      1.0  0.31882  0.87074  0.66251  1.0000
  C   C185      1.0  0.33219  0.83731  0.67468  1.0000
  H   H294      1.0  0.43590  0.98315  0.73486  1.0000
  S   S70       1.0  0.29865  0.00713  0.56281  1.0000
  C   C186      1.0  0.33463  0.84571  0.61656  1.0000
  C   C187      1.0  0.32034  0.87513  0.63346  1.0000
  H   H295      1.0  0.33133  0.83389  0.69715  1.0000
  H   H296      1.0  0.12588  0.09474  0.66153  1.0000
  H   H297      1.0  0.33519  0.84891  0.59405  1.0000
  H   H298      1.0  0.36817  0.99088  0.73575  1.0000
  S   S71       1.0  0.09939  0.62861  0.77030  1.0000
  S   S72       1.0  0.55767  0.07297  0.77500  1.0000
  C   C188      1.0  0.47464  0.62082  0.77492  1.0000
  H   H299      1.0  0.54111  0.62974  0.74705  1.0000
  H   H300      1.0  0.45266  0.08204  0.61162  1.0000
  N   N23       1.0  0.39639  0.93918  0.72427  1.0000
  C   C189      1.0  0.39122  0.89714  0.72752  1.0000
  C   C190      1.0  0.39781  0.94889  0.69418  1.0000
  C   C191      1.0  0.43119  0.95168  0.73739  1.0000
  C   C192      1.0  0.36527  0.95907  0.73791  1.0000
  Fe  Fe30      1.0  0.58286  0.01459  0.77343  1.0000
  H   H301      1.0  0.36473  0.88722  0.71832  1.0000
  H   H302      1.0  0.39062  0.88865  0.74994  1.0000
  Fe  Fe31      1.0  0.31449  0.65378  0.65391  1.0000
  H   H303      1.0  0.39561  0.67164  0.55899  1.0000
  H   H304      1.0  0.42147  0.93524  0.68326  1.0000
  H   H305      1.0  0.48216  0.04877  0.69034  1.0000
  H   H306      1.0  0.45532  0.93718  0.72777  1.0000
  H   H307      1.0  0.43093  0.94571  0.76025  1.0000
  C   C193      1.0  0.34751  0.81199  0.62872  1.0000
  H   H308      1.0  0.36338  0.95259  0.76066  1.0000
  H   H309      1.0  0.33852  0.95031  0.72849  1.0000
  H   H310      1.0  0.22685  0.81009  0.72682  1.0000
  H   H311      1.0  0.10655  0.06872  0.73622  1.0000
  C   C194      1.0  0.23802  0.65293  0.69435  1.0000
  H   H312      1.0  0.10679  0.02380  0.71766  1.0000
  H   H313      1.0  0.18104  0.64625  0.68312  1.0000
  Fe  Fe32      1.0  0.51113  0.04305  0.79767  1.0000
  H   H314      1.0  0.20495  0.11521  0.73667  1.0000
  H   H315      1.0  0.39915  0.03877  0.60411  1.0000
  H   H316      1.0  0.41490  0.02697  0.56941  1.0000
  H   H317      1.0  0.14329  0.09792  0.69635  1.0000
  H   H318      1.0  0.39026  0.10747  0.61746  1.0000
  H   H319      1.0  0.48516  0.62756  0.79541  1.0000
  C   C195      1.0  0.09175  0.05124  0.72029  1.0000
  H   H320      1.0  0.36170  0.11364  0.58760  1.0000
  C   C196      1.0  0.39067  0.11464  0.59475  1.0000
  H   H321      1.0  0.58925  0.68922  0.67717  1.0000
  S   S73       1.0  0.56670  0.64165  0.80439  1.0000
  C   C197      1.0  0.40329  0.70236  0.55521  1.0000
  H   H322      1.0  0.52910  0.81033  0.88743  1.0000
  Fe  Fe33      1.0  0.54258  0.65849  0.84588  1.0000
  S   S74       1.0  0.51241  0.71338  0.85294  1.0000
  S   S75       1.0  0.13944  0.81117  0.00736  1.0000
  C   C198      1.0  0.56162  0.75071  0.92339  1.0000
  C   C199      1.0  0.49000  0.73687  0.90481  1.0000
  H   H323      1.0  0.12581  0.75985  0.83944  1.0000
  S   S76       1.0  0.35498  0.78116  0.98352  1.0000
  C   C200      1.0  0.53152  0.75965  0.94069  1.0000
  C   C201      1.0  0.11736  0.77409  0.85856  1.0000
  C   C202      1.0  0.49575  0.75215  0.93154  1.0000
  C   C203      1.0  0.29390  0.81875  0.04920  1.0000
  C   C204      1.0  0.11379  0.96324  0.86158  1.0000
  H   H324      1.0  0.56445  0.69937  0.97370  1.0000
  C   C205      1.0  0.52000  0.72920  0.88713  1.0000
  C   C206      1.0  0.55587  0.73549  0.89657  1.0000
  S   S77       1.0  0.53885  0.77924  0.97392  1.0000
  H   H325      1.0  0.44789  0.82447  0.88760  1.0000
  H   H326      1.0  0.46225  0.73096  0.89786  1.0000
  H   H327      1.0  0.36425  0.88996  0.96459  1.0000
  H   H328      1.0  0.58467  0.87944  0.04958  1.0000
  H   H329      1.0  0.16070  0.92557  0.89430  1.0000
  H   H330      1.0  0.14620  0.89638  0.84819  1.0000
  H   H331      1.0  0.49770  0.66246  0.00467  1.0000
  H   H332      1.0  0.56918  0.94894  0.04348  1.0000
  C   C207      1.0  0.11094  0.04033  0.92395  1.0000
  S   S78       1.0  0.10790  0.67520  0.83020  1.0000
  H   H333      1.0  0.22499  0.80209  0.00305  1.0000
  H   H334      1.0  0.47247  0.75738  0.94525  1.0000
  H   H335      1.0  0.46184  0.09512  0.84813  1.0000
  H   H336      1.0  0.56592  0.66970  0.00423  1.0000
  C   C208      1.0  0.56543  0.66897  0.98097  1.0000
  H   H337      1.0  0.27735  0.77840  0.97463  1.0000
  Fe  Fe34      1.0  0.14981  0.84389  0.96751  1.0000
  H   H338      1.0  0.57914  0.72953  0.88296  1.0000
  S   S79       1.0  0.16767  0.81941  0.92603  1.0000
  Fe  Fe35      1.0  0.17806  0.85388  0.02687  1.0000
  S   S80       1.0  0.13508  0.89646  0.03870  1.0000
  C   C209      1.0  0.32373  0.80600  0.03285  1.0000
  H   H339      1.0  0.43945  0.82132  0.85063  1.0000
  H   H340      1.0  0.14292  0.96735  0.85453  1.0000
  Fe  Fe36      1.0  0.14608  0.92145  0.99616  1.0000
  S   S81       1.0  0.15924  0.98333  0.98654  1.0000
  H   H341      1.0  0.10724  0.98719  0.87620  1.0000
  S   S82       1.0  0.19261  0.88249  0.98643  1.0000
  Fe  Fe37      1.0  0.48958  0.81176  0.98916  1.0000
  S   S83       1.0  0.49705  0.87005  0.00890  1.0000
  H   H342      1.0  0.12446  0.94507  0.91566  1.0000
  Fe  Fe38      1.0  0.40685  0.81217  0.99572  1.0000
  S   S84       1.0  0.40671  0.87007  0.01638  1.0000
  H   H343      1.0  0.53702  0.84785  0.83046  1.0000
  Fe  Fe39      1.0  0.44846  0.88652  0.98345  1.0000
  S   S85       1.0  0.44140  0.94008  0.95810  1.0000
  Fe  Fe40      1.0  0.45493  0.84819  0.04000  1.0000
  H   H344      1.0  0.35734  0.93974  0.97249  1.0000
  S   S86       1.0  0.44488  0.83040  0.96074  1.0000
  H   H345      1.0  0.11882  0.06167  0.90852  1.0000
  S   S87       1.0  0.56741  0.95085  0.86608  1.0000
  C   C210      1.0  0.51924  0.84011  0.88475  1.0000
  H   H346      1.0  0.35133  0.80769  0.04099  1.0000
  H   H347      1.0  0.28378  0.94462  0.94020  1.0000
  H   H348      1.0  0.52135  0.79930  0.83718  1.0000
  S   S88       1.0  0.53445  0.05316  0.84019  1.0000
  C   C211      1.0  0.47750  0.94535  0.93358  1.0000
  C   C212      1.0  0.50895  0.92305  0.93572  1.0000
  C   C213      1.0  0.53726  0.92641  0.91560  1.0000
  C   C214      1.0  0.53386  0.95133  0.89287  1.0000
  C   C215      1.0  0.50242  0.97373  0.89072  1.0000
  C   C216      1.0  0.47441  0.97099  0.91121  1.0000
  H   H349      1.0  0.51156  0.90320  0.95289  1.0000
  H   H350      1.0  0.56159  0.90916  0.91743  1.0000
  H   H351      1.0  0.49928  0.99252  0.87301  1.0000
  H   H352      1.0  0.45003  0.98818  0.90946  1.0000
  C   C217      1.0  0.46071  0.81785  0.86686  1.0000
  C   C218      1.0  0.12635  0.00086  0.96376  1.0000
  C   C219      1.0  0.13636  0.02887  0.94393  1.0000
  C   C220      1.0  0.25242  0.80305  0.01152  1.0000
  C   C221      1.0  0.31783  0.79196  0.00579  1.0000
  H   H353      1.0  0.47456  0.64703  0.97344  1.0000
  S   S89       1.0  0.12903  0.06904  0.84855  1.0000
  H   H354      1.0  0.16399  0.04101  0.94362  1.0000
  H   H355      1.0  0.53013  0.67590  0.93165  1.0000
  S   S90       1.0  0.10367  0.88490  0.97422  1.0000
  S   S91       1.0  0.45118  0.78827  0.02232  1.0000
  H   H356      1.0  0.56042  0.63592  0.93101  1.0000
  H   H357      1.0  0.12718  0.89398  0.91043  1.0000
  H   H358      1.0  0.50608  0.84880  0.90492  1.0000
  H   H359      1.0  0.46140  0.88588  0.84125  1.0000
  C   C222      1.0  0.28204  0.78949  0.99548  1.0000
  H   H360      1.0  0.46794  0.78693  0.86676  1.0000
  Fe  Fe41      1.0  0.56170  0.99650  0.83331  1.0000
  N   N24       1.0  0.53369  0.64605  0.97070  1.0000
  N   N25       1.0  0.10753  0.92534  0.87504  1.0000
  H   H361      1.0  0.17264  0.78023  0.87378  1.0000
  N   N26       1.0  0.30745  0.90549  0.96940  1.0000
  C   C223      1.0  0.34586  0.91464  0.96074  1.0000
  C   C224      1.0  0.29433  0.87088  0.95416  1.0000
  C   C225      1.0  0.28379  0.93839  0.96300  1.0000
  C   C226      1.0  0.30593  0.89795  0.99980  1.0000
  H   H362      1.0  0.09967  0.89585  0.83590  1.0000
  H   H363      1.0  0.34811  0.92150  0.93807  1.0000
  C   C227      1.0  0.13334  0.80425  0.90280  1.0000
  H   H364      1.0  0.26595  0.86208  0.96092  1.0000
  H   H365      1.0  0.29399  0.87576  0.93120  1.0000
  H   H366      1.0  0.31232  0.84586  0.95795  1.0000
  H   H367      1.0  0.50581  0.90208  0.85239  1.0000
  C   C228      1.0  0.14387  0.78575  0.87797  1.0000
  H   H368      1.0  0.29319  0.96501  0.97401  1.0000
  H   H369      1.0  0.27758  0.88966  0.00704  1.0000
  H   H370      1.0  0.31489  0.92360  0.01210  1.0000
  H   H371      1.0  0.32426  0.87403  0.00537  1.0000
  C   C229      1.0  0.11680  0.89444  0.85495  1.0000
  C   C230      1.0  0.48198  0.88294  0.85802  1.0000
  C   C231      1.0  0.25835  0.81801  0.03829  1.0000
  N   N27       1.0  0.49348  0.84263  0.86122  1.0000
  H   H372      1.0  0.46964  0.89425  0.87781  1.0000
  H   H373      1.0  0.25473  0.93264  0.96970  1.0000
  C   C232      1.0  0.51214  0.82966  0.83527  1.0000
  H   H374      1.0  0.49356  0.83091  0.81705  1.0000
  H   H375      1.0  0.11214  0.86545  0.86432  1.0000
  H   H376      1.0  0.54396  0.85907  0.88130  1.0000
  C   C233      1.0  0.09610  0.81149  0.90807  1.0000
  C   C234      1.0  0.53393  0.64647  0.93980  1.0000
  H   H377      1.0  0.58934  0.75620  0.93054  1.0000
  Fe  Fe42      1.0  0.09685  0.85592  0.01615  1.0000
  C   C235      1.0  0.13100  0.92241  0.89992  1.0000
  C   C236      1.0  0.09056  0.98544  0.96433  1.0000
  H   H378      1.0  0.57975  0.09793  0.87648  1.0000
  H   H379      1.0  0.49686  0.69357  0.97490  1.0000
  Fe  Fe43      1.0  0.58332  0.07818  0.81706  1.0000
  C   C237      1.0  0.49916  0.66292  0.98141  1.0000
  H   H380      1.0  0.51153  0.62787  0.93117  1.0000
  H   H381      1.0  0.11256  0.63044  0.94520  1.0000
  H   H382      1.0  0.09620  0.96666  0.84290  1.0000
  Fe  Fe44      1.0  0.10845  0.05472  0.80586  1.0000
  C   C238      1.0  0.70458  0.48583  0.20171  1.0000
  H   H383      1.0  0.92904  0.24277  0.17151  1.0000
  C   C239      1.0  0.99358  0.27206  0.19011  1.0000
  C   C240      1.0  0.01294  0.26278  0.14210  1.0000
  Fe  Fe45      1.0  0.63726  0.17895  0.25717  1.0000
  C   C241      1.0  0.69676  0.46895  0.17581  1.0000
  S   S92       1.0  0.69744  0.42750  0.08615  1.0000
  S   S93       1.0  0.70437  0.34115  0.11363  1.0000
  S   S94       1.0  0.02464  0.54176  0.29442  1.0000
  C   C242      1.0  0.95696  0.50937  0.20011  1.0000
  H   H384      1.0  0.69443  0.35672  0.22335  1.0000
  Fe  Fe46      1.0  0.64376  0.33376  0.10614  1.0000
  S   S95       1.0  0.05286  0.56628  0.21616  1.0000
  Fe  Fe47      1.0  0.70667  0.36742  0.07098  1.0000
  H   H385      1.0  0.86301  0.46364  0.12205  1.0000
  S   S96       1.0  0.62850  0.39107  0.12426  1.0000
  H   H386      1.0  0.03722  0.43195  0.24314  1.0000
  Fe  Fe48      1.0  0.93300  0.35108  0.09648  1.0000
  S   S97       1.0  0.91861  0.41171  0.08620  1.0000
  S   S98       1.0  0.89116  0.30334  0.10102  1.0000
  Fe  Fe49      1.0  0.01299  0.37216  0.10624  1.0000
  S   S99       1.0  0.00579  0.43465  0.09685  1.0000
  C   C243      1.0  0.94910  0.25328  0.15533  1.0000
  S   S100      1.0  0.05281  0.33066  0.24820  1.0000
  H   H387      1.0  0.80168  0.41842  0.17652  1.0000
  H   H388      1.0  0.93051  0.50430  0.21024  1.0000
  S   S101      1.0  0.96375  0.36713  0.13482  1.0000
  S   S102      1.0  0.98301  0.35009  0.06879  1.0000
  S   S103      1.0  0.68632  0.58527  0.27635  1.0000
  S   S104      1.0  0.71516  0.42408  0.16722  1.0000
  C   C244      1.0  0.63209  0.38865  0.20663  1.0000
  C   C245      1.0  0.85263  0.31506  0.08134  1.0000
  C   C246      1.0  0.81775  0.30084  0.08925  1.0000
  C   C247      1.0  0.78640  0.31350  0.07548  1.0000
  S   S105      1.0  0.02219  0.23073  0.27606  1.0000
  C   C248      1.0  0.65751  0.52248  0.16498  1.0000
  H   H389      1.0  0.81486  0.28069  0.10640  1.0000
  H   H390      1.0  0.75955  0.30239  0.08163  1.0000
  C   C249      1.0  0.64431  0.24582  0.20532  1.0000
  C   C250      1.0  0.65878  0.27917  0.19279  1.0000
  C   C251      1.0  0.64805  0.28965  0.16598  1.0000
  C   C252      1.0  0.62359  0.26627  0.15105  1.0000
  H   H391      1.0  0.81703  0.47392  0.11132  1.0000
  H   H392      1.0  0.64015  0.36291  0.19425  1.0000
  H   H393      1.0  0.97457  0.26289  0.20739  1.0000
  H   H394      1.0  0.65883  0.31591  0.15690  1.0000
  H   H395      1.0  0.98936  0.30329  0.18632  1.0000
  H   H396      1.0  0.69680  0.38024  0.25682  1.0000
  H   H397      1.0  0.64813  0.44823  0.24040  1.0000
  C   C253      1.0  0.04113  0.36684  0.19877  1.0000
  C   C254      1.0  0.04506  0.37139  0.16980  1.0000
  C   C255      1.0  0.99452  0.20807  0.17038  1.0000
  C   C256      1.0  0.85622  0.34093  0.05904  1.0000
  H   H398      1.0  0.64564  0.42209  0.27270  1.0000
  H   H399      1.0  0.02109  0.38362  0.21016  1.0000
  H   H400      1.0  0.02919  0.39279  0.15924  1.0000
  H   H401      1.0  0.63521  0.32548  0.23904  1.0000
  H   H402      1.0  0.02213  0.26894  0.19782  1.0000
  C   C257      1.0  0.61948  0.22229  0.19065  1.0000
  Fe  Fe50      1.0  0.68947  0.40026  0.12825  1.0000
  S   S106      1.0  0.65853  0.16633  0.29977  1.0000
  H   H403      1.0  0.67860  0.29681  0.20379  1.0000
  H   H404      1.0  0.00392  0.48854  0.14016  1.0000
  C   C258      1.0  0.06873  0.34773  0.15452  1.0000
  Fe  Fe51      1.0  0.05270  0.18571  0.25197  1.0000
  H   H405      1.0  0.66697  0.47438  0.13741  1.0000
  N   N28       1.0  0.82209  0.42108  0.13414  1.0000
  S   S107      1.0  0.93021  0.46550  0.15681  1.0000
  C   C259      1.0  0.68801  0.52042  0.20958  1.0000
  S   S108      1.0  0.64386  0.58227  0.20074  1.0000
  H   H406      1.0  0.00931  0.24602  0.12245  1.0000
  H   H407      1.0  0.79214  0.46226  0.15873  1.0000
  H   H408      1.0  0.87564  0.40360  0.14718  1.0000
  C   C260      1.0  0.68585  0.38264  0.23531  1.0000
  S   S109      1.0  0.02323  0.14396  0.22365  1.0000
  Fe  Fe52      1.0  0.63788  0.41286  0.08053  1.0000
  Fe  Fe53      1.0  0.95364  0.42808  0.12262  1.0000
  C   C261      1.0  0.06158  0.33926  0.21262  1.0000
  H   H409      1.0  0.00828  0.29355  0.13706  1.0000
  S   S110      1.0  0.65722  0.23556  0.23964  1.0000
  N   N29       1.0  0.98750  0.24903  0.16448  1.0000
  S   S111      1.0  0.06704  0.34717  0.11795  1.0000
  H   H410      1.0  0.69383  0.53300  0.22972  1.0000
  H   H411      1.0  0.04221  0.26049  0.14835  1.0000
  N   N30       1.0  0.64542  0.38661  0.23565  1.0000
  Fe  Fe54      1.0  0.06753  0.27092  0.26148  1.0000
  Fe  Fe55      1.0  0.63898  0.58856  0.24724  1.0000
  H   H412      1.0  0.60159  0.39047  0.20600  1.0000
  C   C262      1.0  0.62818  0.35291  0.24987  1.0000
  H   H413      1.0  0.04439  0.45625  0.27578  1.0000
  C   C263      1.0  0.66454  0.53885  0.19119  1.0000
  H   H414      1.0  0.59764  0.35467  0.25036  1.0000
  C   C264      1.0  0.63566  0.42229  0.25078  1.0000
  C   C265      1.0  0.60920  0.23249  0.16339  1.0000
  C   C266      1.0  0.83688  0.45036  0.11438  1.0000
  H   H415      1.0  0.03617  0.48354  0.24467  1.0000
  H   H416      1.0  0.64371  0.41431  0.19550  1.0000
  H   H417      1.0  0.76698  0.42488  0.11904  1.0000
  Fe  Fe56      1.0  0.97141  0.41249  0.06147  1.0000
  C   C267      1.0  0.78850  0.40313  0.12246  1.0000
  H   H418      1.0  0.97620  0.19676  0.18747  1.0000
  H   H419      1.0  0.77652  0.38079  0.13675  1.0000
  H   H420      1.0  0.79428  0.38900  0.10198  1.0000
  H   H421      1.0  0.85704  0.37660  0.11849  1.0000
  H   H422      1.0  0.69977  0.40782  0.22519  1.0000
  H   H423      1.0  0.02336  0.20385  0.17723  1.0000
  S   S112      1.0  0.64835  0.11967  0.24061  1.0000
  H   H424      1.0  0.05138  0.52829  0.16343  1.0000
  C   C268      1.0  0.05026  0.45780  0.25289  1.0000
  H   H425      1.0  0.94276  0.28393  0.15097  1.0000
  C   C269      1.0  0.84977  0.39115  0.13848  1.0000
  H   H426      1.0  0.83940  0.36843  0.15310  1.0000
  H   H427      1.0  0.72319  0.47210  0.21584  1.0000
  C   C270      1.0  0.81319  0.43966  0.16119  1.0000
  S   S113      1.0  0.61162  0.27969  0.11700  1.0000
  C   C271      1.0  0.96414  0.49341  0.17364  1.0000
  H   H428      1.0  0.94368  0.23694  0.13569  1.0000
  H   H429      1.0  0.84269  0.43751  0.09345  1.0000
  Fe  Fe57      1.0  0.04347  0.58288  0.26089  1.0000
  C   C272      1.0  0.99835  0.50007  0.16067  1.0000
  C   C273      1.0  0.67319  0.48726  0.15745  1.0000
  C   C274      1.0  0.02516  0.52282  0.17384  1.0000
  C   C275      1.0  0.01812  0.53868  0.20025  1.0000
  C   C276      1.0  0.98408  0.53178  0.21355  1.0000
  H   H430      1.0  0.99006  0.18966  0.15162  1.0000
  H   H431      1.0  0.63935  0.53663  0.15070  1.0000
  H   H432      1.0  0.83813  0.45350  0.17046  1.0000
  H   H433      1.0  0.97851  0.54400  0.23398  1.0000
  H   H434      1.0  0.59437  0.22917  0.06893  1.0000
  S   S114      1.0  0.64758  0.35464  0.06195  1.0000
  S   S115      1.0  0.59972  0.55542  0.27506  1.0000
  H   H435      1.0  0.63758  0.35040  0.27182  1.0000
  H   H436      1.0  0.60535  0.42624  0.25157  1.0000
  H   H437      1.0  0.08391  0.43836  0.20489  1.0000
  S   S116      1.0  0.08775  0.16845  0.28773  1.0000
  H   H438      1.0  0.60829  0.19636  0.20025  1.0000
  H   H439      1.0  0.08421  0.48978  0.20795  1.0000
  H   H440      1.0  0.08265  0.38353  0.06569  1.0000
  H   H441      1.0  0.07611  0.31417  0.05817  1.0000
  C   C277      1.0  0.08753  0.31785  0.19766  1.0000
  H   H442      1.0  0.59024  0.21427  0.15192  1.0000
  S   S117      1.0  0.60233  0.45147  0.05574  1.0000
  H   H443      1.0  0.76146  0.18954  0.35611  1.0000
  Fe  Fe58      1.0  0.86129  0.13137  0.45880  1.0000
  C   C278      1.0  0.71395  0.23818  0.38035  1.0000
  C   C279      1.0  0.94708  0.50038  0.46076  1.0000
  C   C280      1.0  0.67080  0.18499  0.37506  1.0000
  C   C281      1.0  0.89408  0.24969  0.52026  1.0000
  C   C282      1.0  0.96574  0.27099  0.34998  1.0000
  H   H444      1.0  0.97210  0.25420  0.33068  1.0000
  H   H445      1.0  0.62265  0.47402  0.38194  1.0000
  Fe  Fe59      1.0  0.83149  0.18088  0.41250  1.0000
  S   S118      1.0  0.80534  0.15494  0.45094  1.0000
  S   S119      1.0  0.82243  0.23938  0.39460  1.0000
  H   H446      1.0  0.95745  0.48511  0.47940  1.0000
  H   H447      1.0  0.84549  0.24254  0.47850  1.0000
  H   H448      1.0  0.87234  0.27110  0.34611  1.0000
  H   H449      1.0  0.75364  0.18531  0.40701  1.0000
  S   S120      1.0  0.88826  0.16249  0.42272  1.0000
  C   C283      1.0  0.99452  0.15410  0.33343  1.0000
  S   S121      1.0  0.77934  0.35870  0.48839  1.0000
  C   C284      1.0  0.80892  0.27258  0.42015  1.0000
  C   C285      1.0  0.82134  0.31081  0.41812  1.0000
  C   C286      1.0  0.81239  0.33728  0.43915  1.0000
  C   C287      1.0  0.78989  0.32593  0.46174  1.0000
  C   C288      1.0  0.77658  0.28793  0.46338  1.0000
  C   C289      1.0  0.78634  0.26114  0.44269  1.0000
  H   H450      1.0  0.83841  0.31999  0.40055  1.0000
  H   H451      1.0  0.82322  0.36640  0.43793  1.0000
  H   H452      1.0  0.75882  0.27926  0.48071  1.0000
  H   H453      1.0  0.77605  0.23186  0.44409  1.0000
  C   C290      1.0  0.83693  0.23023  0.49912  1.0000
  N   N31       1.0  0.85356  0.25202  0.52245  1.0000
  H   H454      1.0  0.72207  0.19441  0.33423  1.0000
  Fe  Fe60      1.0  0.80031  0.41764  0.47634  1.0000
  H   H455      1.0  0.65882  0.19910  0.35652  1.0000
  H   H456      1.0  0.00527  0.53667  0.48345  1.0000
  H   H457      1.0  0.70875  0.18847  0.42311  1.0000
  C   C291      1.0  0.72395  0.17827  0.40421  1.0000
  H   H458      1.0  0.69429  0.45397  0.36894  1.0000
  H   H459      1.0  0.74327  0.24730  0.38292  1.0000
  C   C292      1.0  0.86468  0.12873  0.53022  1.0000
  H   H460      1.0  0.90945  0.55523  0.43498  1.0000
  H   H461      1.0  0.66691  0.15334  0.37228  1.0000
  C   C293      1.0  0.92130  0.28485  0.38648  1.0000
  H   H462      1.0  0.94112  0.27639  0.40278  1.0000
  H   H463      1.0  0.69813  0.24971  0.39854  1.0000
  C   C294      1.0  0.73171  0.18183  0.35413  1.0000
  H   H464      1.0  0.72959  0.14991  0.35210  1.0000
  C   C295      1.0  0.85870  0.55596  0.54815  1.0000
  S   S122      1.0  0.89975  0.45210  0.40800  1.0000
  C   C296      1.0  0.90135  0.27625  0.33890  1.0000
  H   H465      1.0  0.70380  0.25236  0.36117  1.0000
  N   N32       1.0  0.92763  0.26350  0.36010  1.0000
  S   S123      1.0  0.89122  0.13368  0.49953  1.0000
  S   S124      1.0  0.04466  0.61132  0.33912  1.0000
  H   H466      1.0  0.85472  0.31032  0.53802  1.0000
  H   H467      1.0  0.89316  0.27896  0.39508  1.0000
  H   H468      1.0  0.72026  0.52245  0.50871  1.0000
  H   H469      1.0  0.90770  0.26554  0.53763  1.0000
  H   H470      1.0  0.90523  0.26045  0.31881  1.0000
  C   C297      1.0  0.99366  0.55039  0.46459  1.0000
  C   C298      1.0  0.84248  0.29271  0.52094  1.0000
  H   H471      1.0  0.84547  0.19972  0.49917  1.0000
  H   H472      1.0  0.65383  0.19357  0.39354  1.0000
  H   H473      1.0  0.00738  0.17252  0.40255  1.0000
  H   H474      1.0  0.72097  0.14637  0.40361  1.0000
  N   N33       1.0  0.71005  0.19581  0.37842  1.0000
  C   C299      1.0  0.92213  0.22182  0.36514  1.0000
  S   S125      1.0  0.86007  0.43263  0.47960  1.0000
  H   H475      1.0  0.90465  0.26210  0.50018  1.0000
  C   C300      1.0  0.93942  0.56121  0.43741  1.0000
  H   H476      1.0  0.89321  0.21480  0.37152  1.0000
  H   H477      1.0  0.62778  0.53079  0.41290  1.0000
  C   C301      1.0  0.00915  0.17107  0.35751  1.0000
  H   H478      1.0  0.81202  0.29544  0.52263  1.0000
  H   H479      1.0  0.00874  0.53911  0.44592  1.0000
  H   H480      1.0  0.92428  0.31653  0.38335  1.0000
  H   H481      1.0  0.77411  0.53507  0.54088  1.0000
  H   H482      1.0  0.70723  0.58778  0.40433  1.0000
  Fe  Fe61      1.0  0.07430  0.56359  0.31731  1.0000
  H   H483      1.0  0.90472  0.30759  0.33450  1.0000
  C   C302      1.0  0.84831  0.58472  0.52959  1.0000
  H   H484      1.0  0.97074  0.30200  0.34521  1.0000
  H   H485      1.0  0.94410  0.54342  0.50726  1.0000
  H   H486      1.0  0.93917  0.58915  0.49020  1.0000
  C   C303      1.0  0.93468  0.55754  0.48780  1.0000
  S   S126      1.0  0.66014  0.50411  0.32967  1.0000
  H   H487      1.0  0.90449  0.55214  0.48685  1.0000
  S   S127      1.0  0.79451  0.44233  0.43331  1.0000
  S   S128      1.0  0.78194  0.47056  0.49907  1.0000
  Fe  Fe62      1.0  0.84152  0.48820  0.49828  1.0000
  Fe  Fe63      1.0  0.06068  0.21669  0.31054  1.0000
  Fe  Fe64      1.0  0.85319  0.46193  0.43843  1.0000
  Fe  Fe65      1.0  0.78087  0.49680  0.45628  1.0000
  S   S129      1.0  0.73551  0.53725  0.44582  1.0000
  H   H488      1.0  0.00492  0.16246  0.31300  1.0000
  S   S130      1.0  0.83928  0.51912  0.45741  1.0000
  C   C304      1.0  0.75675  0.55786  0.55040  1.0000
  C   C305      1.0  0.92864  0.55542  0.35269  1.0000
  C   C306      1.0  0.95371  0.52575  0.35592  1.0000
  C   C307      1.0  0.94432  0.49373  0.37254  1.0000
  C   C308      1.0  0.91009  0.49157  0.38633  1.0000
  C   C309      1.0  0.88514  0.52141  0.38341  1.0000
  C   C310      1.0  0.89440  0.55327  0.36653  1.0000
  H   H489      1.0  0.98026  0.52734  0.34551  1.0000
  H   H490      1.0  0.96371  0.47072  0.37482  1.0000
  H   H491      1.0  0.85851  0.51972  0.39380  1.0000
  H   H492      1.0  0.87489  0.57612  0.36400  1.0000
  C   C311      1.0  0.68454  0.51381  0.36053  1.0000
  C   C312      1.0  0.68868  0.55152  0.37049  1.0000
  C   C313      1.0  0.70439  0.55854  0.39667  1.0000
  C   C314      1.0  0.71706  0.52798  0.41267  1.0000
  C   C315      1.0  0.71369  0.49029  0.40249  1.0000
  C   C316      1.0  0.69737  0.48322  0.37650  1.0000
  H   H493      1.0  0.67969  0.57538  0.35816  1.0000
  S   S131      1.0  0.81991  0.13044  0.38502  1.0000
  H   H494      1.0  0.72281  0.46647  0.41491  1.0000
  H   H495      1.0  0.91721  0.49333  0.45942  1.0000
  N   N34       1.0  0.95370  0.54241  0.46264  1.0000
  H   H496      1.0  0.60962  0.54218  0.36528  1.0000
  C   C317      1.0  0.70608  0.54692  0.51907  1.0000
  H   H497      1.0  0.94345  0.59302  0.43816  1.0000
  H   H498      1.0  0.95333  0.55063  0.41802  1.0000
  H   H499      1.0  0.68785  0.55945  0.50309  1.0000
  C   C318      1.0  0.96673  0.13284  0.38617  1.0000
  H   H500      1.0  0.84842  0.57925  0.50734  1.0000
  N   N35       1.0  0.73291  0.57585  0.52951  1.0000
  S   S132      1.0  0.87157  0.51040  0.53588  1.0000
  S   S133      1.0  0.62821  0.61324  0.32611  1.0000
  H   H501      1.0  0.68845  0.53493  0.53628  1.0000
  H   H502      1.0  0.99965  0.58188  0.46594  1.0000
  H   H503      1.0  0.85115  0.30620  0.50071  1.0000
  H   H504      1.0  0.59187  0.45156  0.40689  1.0000
  S   S134      1.0  0.04234  0.20813  0.35493  1.0000
  H   H505      1.0  0.80634  0.23031  0.50044  1.0000
  S   S135      1.0  0.93984  0.59544  0.33168  1.0000
  H   H506      1.0  0.96046  0.48790  0.44175  1.0000
  H   H507      1.0  0.77314  0.56767  0.49662  1.0000
  H   H508      1.0  0.98614  0.26254  0.36589  1.0000
  H   H509      1.0  0.94017  0.21169  0.38206  1.0000
  H   H510      1.0  0.92849  0.20451  0.34611  1.0000
  C   C319      1.0  0.99577  0.15983  0.38388  1.0000
  C   C320      1.0  0.75558  0.59057  0.50579  1.0000
  H   H511      1.0  0.90316  0.21918  0.52104  1.0000
  C   C321      1.0  0.59330  0.47113  0.38851  1.0000
  H   H512      1.0  0.81020  0.23530  0.55138  1.0000
  H   H513      1.0  0.95643  0.12431  0.40661  1.0000
  C   C322      1.0  0.82632  0.13140  0.52988  1.0000
  H   H514      1.0  0.73824  0.60143  0.48861  1.0000
  C   C323      1.0  0.96554  0.12698  0.33573  1.0000
  C   C324      1.0  0.59795  0.52715  0.41833  1.0000
  Fe  Fe66      1.0  0.99674  0.59329  0.31298  1.0000
  Fe  Fe67      1.0  0.60030  0.14969  0.31020  1.0000
  H   H515      1.0  0.77388  0.61475  0.51229  1.0000
  H   H516      1.0  0.81235  0.13562  0.51039  1.0000
  Fe  Fe68      1.0  0.64564  0.55765  0.30607  1.0000
  H   H517      1.0  0.77625  0.13084  0.55475  1.0000
  C   C325      1.0  0.80592  0.12874  0.55497  1.0000
  C   C326      1.0  0.71319  0.60815  0.54277  1.0000
  H   H518      1.0  0.84955  0.20491  0.55154  1.0000
  C   C327      1.0  0.84077  0.23528  0.54938  1.0000
  H   H519      1.0  0.59601  0.50931  0.43760  1.0000
  C   C328      1.0  0.95114  0.11695  0.36211  1.0000
  H   H520      1.0  0.06874  0.12612  0.67885  1.0000
  S   S136      1.0  0.99781  0.13891  0.78877  1.0000
  C   C329      1.0  0.75463  0.58050  0.79081  1.0000
  H   H521      1.0  0.74757  0.59306  0.73596  1.0000
  H   H522      1.0  0.72714  0.57167  0.78273  1.0000
  C   C330      1.0  0.72567  0.13263  0.75478  1.0000
  H   H523      1.0  0.70664  0.15092  0.74284  1.0000
  N   N36       1.0  0.70925  0.12085  0.78199  1.0000
  H   H524      1.0  0.75992  0.52596  0.75091  1.0000
  H   H525      1.0  0.63763  0.59614  0.76972  1.0000
  H   H526      1.0  0.08320  0.23388  0.79331  1.0000
  N   N37       1.0  0.78378  0.57710  0.76906  1.0000
  C   C331      1.0  0.86199  0.11904  0.58051  1.0000
  H   H527      1.0  0.08572  0.12728  0.71403  1.0000
  H   H528      1.0  0.82706  0.57279  0.79907  1.0000
  H   H529      1.0  0.92745  0.60189  0.75298  1.0000
  C   C332      1.0  0.85893  0.56358  0.57693  1.0000
  C   C333      1.0  0.84703  0.59918  0.58729  1.0000
  H   H530      1.0  0.79568  0.59889  0.72776  1.0000
  H   H531      1.0  0.68133  0.17417  0.78911  1.0000
  C   C334      1.0  0.77472  0.60132  0.74487  1.0000
  C   C335      1.0  0.88245  0.12271  0.55556  1.0000
  H   H532      1.0  0.64977  0.60294  0.71863  1.0000
  H   H533      1.0  0.79328  0.51738  0.77752  1.0000
  H   H534      1.0  0.86741  0.54158  0.59134  1.0000
  H   H535      1.0  0.94090  0.15321  0.74905  1.0000
  C   C336      1.0  0.78636  0.53658  0.75984  1.0000
  H   H536      1.0  0.84212  0.58755  0.76475  1.0000
  C   C337      1.0  0.81946  0.59011  0.78057  1.0000
  C   C338      1.0  0.95356  0.12621  0.74363  1.0000
  H   H537      1.0  0.80815  0.53333  0.74335  1.0000
  H   H538      1.0  0.75219  0.61075  0.79836  1.0000
  H   H539      1.0  0.02430  0.26688  0.78321  1.0000
  S   S137      1.0  0.87168  0.60823  0.71115  1.0000
  C   C339      1.0  0.82375  0.12231  0.58026  1.0000
  H   H540      1.0  0.85209  0.25159  0.56747  1.0000
  H   H541      1.0  0.99822  0.22411  0.79213  1.0000
  H   H542      1.0  0.84623  0.60443  0.60959  1.0000
  H   H543      1.0  0.75193  0.14910  0.75754  1.0000
  H   H544      1.0  0.69569  0.59813  0.56071  1.0000
  H   H545      1.0  0.05620  0.19115  0.80040  1.0000
  H   H546      1.0  0.74038  0.54452  0.56779  1.0000
  H   H547      1.0  0.91213  0.12065  0.55589  1.0000
  C   C340      1.0  0.01113  0.25082  0.80093  1.0000
  H   H548      1.0  0.77570  0.57942  0.56000  1.0000
  S   S138      1.0  0.79774  0.11628  0.61111  1.0000
  C   C341      1.0  0.70166  0.15529  0.79923  1.0000
  H   H549      1.0  0.92079  0.11718  0.70678  1.0000
  H   H550      1.0  0.65319  0.11792  0.76795  1.0000
  H   H551      1.0  0.72712  0.17271  0.80294  1.0000
  C   C342      1.0  0.07857  0.56155  0.95167  1.0000
  S   S139      1.0  0.75072  0.35940  0.03841  1.0000
  H   H552      1.0  0.66804  0.41988  0.02453  1.0000
  C   C343      1.0  0.02971  0.44388  0.97983  1.0000
  H   H553      1.0  0.61504  0.37232  0.96786  1.0000
  H   H554      1.0  0.01263  0.42801  0.96527  1.0000
  C   C344      1.0  0.06758  0.21796  0.80994  1.0000
  H   H555      1.0  0.99704  0.23651  0.85526  1.0000
  C   C345      1.0  0.68565  0.37086  0.98320  1.0000
  H   H556      1.0  0.06881  0.29476  0.81736  1.0000
  H   H557      1.0  0.61717  0.38079  0.00502  1.0000
  S   S140      1.0  0.61038  0.13511  0.82733  1.0000
  H   H558      1.0  0.02752  0.48021  0.04592  1.0000
  C   C346      1.0  0.06588  0.45439  0.97222  1.0000
  H   H559      1.0  0.69794  0.43291  0.95053  1.0000
  S   S141      1.0  0.97316  0.43342  0.01715  1.0000
  C   C347      1.0  0.78992  0.34018  0.05367  1.0000
  H   H560      1.0  0.65128  0.44941  0.95112  1.0000
  H   H561      1.0  0.60519  0.41887  0.98196  1.0000
  C   C348      1.0  0.67221  0.43288  0.00347  1.0000
  H   H562      1.0  0.59606  0.27898  0.01732  1.0000
  H   H563      1.0  0.68144  0.35610  0.00366  1.0000
  C   C349      1.0  0.01625  0.45205  0.00671  1.0000
  H   H564      1.0  0.00713  0.19224  0.83751  1.0000
  H   H565      1.0  0.03915  0.21234  0.86214  1.0000
  C   C350      1.0  0.62329  0.39366  0.98413  1.0000
  H   H566      1.0  0.06118  0.58530  0.95971  1.0000
  H   H567      1.0  0.06063  0.49569  0.84838  1.0000
  C   C351      1.0  0.08810  0.50806  0.84647  1.0000
  C   C352      1.0  0.66870  0.42360  0.95353  1.0000
  S   S142      1.0  0.59335  0.37976  0.90827  1.0000
  H   H568      1.0  0.65478  0.45890  0.00287  1.0000
  N   N38       1.0  0.66248  0.40523  0.98109  1.0000
  N   N39       1.0  0.03820  0.24153  0.82255  1.0000
  H   H569      1.0  0.71550  0.37862  0.98157  1.0000
  H   H570      1.0  0.68970  0.14710  0.82003  1.0000
  C   C353      1.0  0.03814  0.47305  0.02535  1.0000
  H   H571      1.0  0.76018  0.56232  0.80933  1.0000
  H   H572      1.0  0.62238  0.44486  0.87802  1.0000
  H   H573      1.0  0.67936  0.34958  0.96641  1.0000
  C   C354      1.0  0.07404  0.48448  0.01745  1.0000
  H   H574      1.0  0.05488  0.36561  0.99252  1.0000
  H   H575      1.0  0.70160  0.44234  0.00188  1.0000
  H   H576      1.0  0.04855  0.39236  0.03981  1.0000
  H   H577      1.0  0.08766  0.20906  0.82583  1.0000
  S   S143      1.0  0.05452  0.57561  0.83443  1.0000
  H   H578      1.0  0.66165  0.40345  0.93616  1.0000
  C   C355      1.0  0.07246  0.31935  0.03539  1.0000
  C   C356      1.0  0.82491  0.35330  0.04510  1.0000
  H   H579      1.0  0.60041  0.21224  0.03363  1.0000
  H   H580      1.0  0.05944  0.56616  0.89735  1.0000
  C   C357      1.0  0.01956  0.21973  0.84537  1.0000
  H   H581      1.0  0.04238  0.32101  0.03166  1.0000
  S   S144      1.0  0.05970  0.12916  0.85342  1.0000
  H   H582      1.0  0.60159  0.21287  0.84687  1.0000
  C   C358      1.0  0.05452  0.27747  0.83395  1.0000
  C   C359      1.0  0.59204  0.15361  0.85860  1.0000
  H   H583      1.0  0.82780  0.37376  0.02815  1.0000
  H   H584      1.0  0.05993  0.53713  0.94578  1.0000
  H   H585      1.0  0.07523  0.27122  0.85015  1.0000
  C   C360      1.0  0.58990  0.19349  0.86245  1.0000
  C   C361      1.0  0.08840  0.47375  0.99130  1.0000
  H   H586      1.0  0.07639  0.44681  0.95180  1.0000
  H   H587      1.0  0.06163  0.61344  0.91265  1.0000
  H   H588      1.0  0.03327  0.29585  0.84397  1.0000
  C   C362      1.0  0.07859  0.58895  0.90531  1.0000
  H   H589      1.0  0.08269  0.29378  0.02379  1.0000
  C   C363      1.0  0.07845  0.38786  0.04294  1.0000
  C   C364      1.0  0.59545  0.49436  0.89557  1.0000
  C   C365      1.0  0.60368  0.45515  0.89409  1.0000
  H   H590      1.0  0.60838  0.51431  0.88104  1.0000
  C   C366      1.0  0.08476  0.36178  0.99633  1.0000
  H   H591      1.0  0.98857  0.26867  0.80965  1.0000
  H   H592      1.0  0.88317  0.35142  0.05246  1.0000
  H   H593      1.0  0.08680  0.23672  0.91852  1.0000
  C   C367      1.0  0.02444  0.86480  0.06140  1.0000
  S   S145      1.0  0.62493  0.84101  0.26452  1.0000
  C   C368      1.0  0.06691  0.79256  0.25221  1.0000
  C   C369      1.0  0.07447  0.77273  0.27696  1.0000
  H   H594      1.0  0.65026  0.92403  0.24878  1.0000
  H   H595      1.0  0.01179  0.07254  0.19418  1.0000
  C   C370      1.0  0.72416  0.71867  0.21668  1.0000
  H   H596      1.0  0.78352  0.67926  0.20037  1.0000
  C   C371      1.0  0.07667  0.73252  0.27675  1.0000
  S   S146      1.0  0.60236  0.86351  0.18851  1.0000
  C   C372      1.0  0.06218  0.77216  0.22720  1.0000
  C   C373      1.0  0.06583  0.73214  0.22683  1.0000
  H   H597      1.0  0.91139  0.96135  0.27196  1.0000
  H   H598      1.0  0.61264  0.08015  0.19610  1.0000
  Fe  Fe69      1.0  0.06142  0.64681  0.30195  1.0000
  N   N40       1.0  0.94924  0.73992  0.25404  1.0000
  H   H599      1.0  0.69797  0.72314  0.22850  1.0000
  Fe  Fe70      1.0  0.62393  0.81385  0.16381  1.0000
  C   C374      1.0  0.70380  0.76425  0.27958  1.0000
  H   H600      1.0  0.07770  0.78846  0.29636  1.0000
  H   H601      1.0  0.73311  0.76192  0.27581  1.0000
  H   H602      1.0  0.72122  0.62076  0.21536  1.0000
  H   H603      1.0  0.76175  0.69901  0.17028  1.0000
  H   H604      1.0  0.98546  0.74731  0.21835  1.0000
  C   C375      1.0  0.03141  0.90455  0.06075  1.0000
  H   H605      1.0  0.91197  0.71943  0.28635  1.0000
  H   H606      1.0  0.08334  0.77403  0.12080  1.0000
  H   H607      1.0  0.06752  0.80276  0.09238  1.0000
  H   H608      1.0  0.74691  0.72203  0.23188  1.0000
  H   H609      1.0  0.69661  0.65310  0.23777  1.0000
  H   H610      1.0  0.94545  0.68522  0.27508  1.0000
  C   C376      1.0  0.75905  0.67639  0.18674  1.0000
  H   H611      1.0  0.72745  0.74232  0.20109  1.0000
  H   H612      1.0  0.59888  0.77318  0.29362  1.0000
  H   H613      1.0  0.76022  0.64780  0.17619  1.0000
  C   C377      1.0  0.72200  0.65016  0.22476  1.0000
  N   N41       1.0  0.72451  0.68040  0.20310  1.0000
  C   C378      1.0  0.69275  0.67640  0.18427  1.0000
  S   S147      1.0  0.70568  0.68962  0.29677  1.0000
  H   H614      1.0  0.66626  0.67809  0.19609  1.0000
  H   H615      1.0  0.59505  0.95311  0.29199  1.0000
  H   H616      1.0  0.61845  0.95896  0.09470  1.0000
  C   C379      1.0  0.61421  0.92981  0.08536  1.0000
  S   S148      1.0  0.60719  0.08772  0.29882  1.0000
  H   H617      1.0  0.69038  0.98934  0.30269  1.0000
  H   H618      1.0  0.82765  0.89798  0.16724  1.0000
  H   H619      1.0  0.74558  0.65195  0.23936  1.0000
  H   H620      1.0  0.86878  0.99010  0.14108  1.0000
  C   C380      1.0  0.03526  0.08693  0.26200  1.0000
  C   C381      1.0  0.60566  0.04984  0.19496  1.0000
  C   C382      1.0  0.92749  0.70869  0.26774  1.0000
  H   H621      1.0  0.93998  0.79463  0.23454  1.0000
  S   S149      1.0  0.04949  0.79572  0.19657  1.0000
  H   H622      1.0  0.90210  0.96790  0.11829  1.0000
  H   H623      1.0  0.85079  0.93145  0.09559  1.0000
  C   C383      1.0  0.88649  0.96454  0.13843  1.0000
  C   C384      1.0  0.62811  0.77064  0.28962  1.0000
  Fe  Fe71      1.0  0.64955  0.89685  0.16943  1.0000
  S   S150      1.0  0.66764  0.84860  0.14145  1.0000
  S   S151      1.0  0.64323  0.95684  0.15308  1.0000
  C   C385      1.0  0.92442  0.77066  0.24504  1.0000
  C   C386      1.0  0.01668  0.92827  0.08181  1.0000
  Fe  Fe72      1.0  0.70364  0.83222  0.17709  1.0000
  S   S152      1.0  0.75979  0.80882  0.16727  1.0000
  H   H624      1.0  0.65081  0.99165  0.23161  1.0000
  S   S153      1.0  0.68971  0.88393  0.20326  1.0000
  Fe  Fe73      1.0  0.98450  0.91401  0.17272  1.0000
  S   S154      1.0  0.03995  0.90796  0.19192  1.0000
  S   S155      1.0  0.97878  0.94162  0.13078  1.0000
  Fe  Fe74      1.0  0.94350  0.87942  0.22254  1.0000
  S   S156      1.0  0.99523  0.86943  0.24604  1.0000
  S   S157      1.0  0.88895  0.86861  0.24397  1.0000
  Fe  Fe75      1.0  0.01197  0.92857  0.23123  1.0000
  S   S158      1.0  0.03521  0.97082  0.26232  1.0000
  Fe  Fe76      1.0  0.01825  0.84972  0.20475  1.0000
  S   S159      1.0  0.95830  0.94009  0.21079  1.0000
  S   S160      1.0  0.96469  0.85404  0.18249  1.0000
  H   H625      1.0  0.90448  0.89745  0.11429  1.0000
  H   H626      1.0  0.90726  0.96539  0.15534  1.0000
  H   H627      1.0  0.02196  0.95903  0.08120  1.0000
  C   C387      1.0  0.62567  0.02587  0.17688  1.0000
  S   S161      1.0  0.66104  0.79352  0.19720  1.0000
  H   H628      1.0  0.82043  0.90127  0.11638  1.0000
  C   C388      1.0  0.83722  0.92846  0.11654  1.0000
  S   S162      1.0  0.62064  0.64606  0.26222  1.0000
  H   H629      1.0  0.64843  0.03775  0.16463  1.0000
  H   H630      1.0  0.99577  0.73379  0.28089  1.0000
  H   H631      1.0  0.94658  0.99508  0.26008  1.0000
  H   H632      1.0  0.01699  0.00441  0.20888  1.0000
  C   C389      1.0  0.79538  0.82458  0.18911  1.0000
  C   C390      1.0  0.83202  0.81861  0.18089  1.0000
  C   C391      1.0  0.86098  0.83222  0.19755  1.0000
  C   C392      1.0  0.85332  0.85114  0.22277  1.0000
  C   C393      1.0  0.81668  0.85627  0.23130  1.0000
  C   C394      1.0  0.78773  0.84330  0.21439  1.0000
  C   C395      1.0  0.66094  0.93565  0.26885  1.0000
  H   H633      1.0  0.88911  0.82762  0.19102  1.0000
  H   H634      1.0  0.81065  0.87059  0.25092  1.0000
  H   H635      1.0  0.75955  0.84744  0.22109  1.0000
  H   H636      1.0  0.70107  0.82112  0.26194  1.0000
  H   H637      1.0  0.96227  0.76764  0.29306  1.0000
  C   C396      1.0  0.01906  0.06589  0.21547  1.0000
  C   C397      1.0  0.99601  0.91211  0.10395  1.0000
  H   H638      1.0  0.97291  0.85974  0.12138  1.0000
  H   H639      1.0  0.90720  0.69547  0.25321  1.0000
  C   C398      1.0  0.98917  0.87238  0.10459  1.0000
  C   C399      1.0  0.68573  0.79776  0.27186  1.0000
  C   C400      1.0  0.61677  0.98657  0.17502  1.0000
  S   S163      1.0  0.71297  0.07043  0.29324  1.0000
  C   C401      1.0  0.03207  0.01865  0.25113  1.0000
  H   H640      1.0  0.81791  0.95276  0.11917  1.0000
  H   H641      1.0  0.06468  0.82356  0.25249  1.0000
  H   H642      1.0  0.04576  0.04182  0.29151  1.0000
  H   H643      1.0  0.62825  0.90907  0.09916  1.0000
  N   N42       1.0  0.64651  0.97435  0.27477  1.0000
  H   H644      1.0  0.03862  0.10959  0.27720  1.0000
  H   H645      1.0  0.94981  0.71145  0.21397  1.0000
  H   H646      1.0  0.86548  0.92228  0.18387  1.0000
  H   H647      1.0  0.82762  0.94930  0.17088  1.0000
  C   C402      1.0  0.00277  0.84890  0.08307  1.0000
  H   H648      1.0  0.99720  0.81818  0.08352  1.0000
  H   H649      1.0  0.91071  0.89473  0.15116  1.0000
  C   C403      1.0  0.97613  0.75602  0.27401  1.0000
  H   H650      1.0  0.69153  0.93608  0.26740  1.0000
  H   H651      1.0  0.99267  0.77996  0.26443  1.0000
  C   C404      1.0  0.02200  0.02732  0.22378  1.0000
  C   C405      1.0  0.84555  0.92432  0.16646  1.0000
  C   C406      1.0  0.88944  0.89538  0.13475  1.0000
  C   C407      1.0  0.02604  0.09579  0.23450  1.0000
  H   H652      1.0  0.07467  0.68126  0.25125  1.0000
  C   C408      1.0  0.64794  0.80099  0.27700  1.0000
  Fe  Fe77      1.0  0.64359  0.84656  0.22008  1.0000
  C   C409      1.0  0.65950  0.00140  0.25275  1.0000
  H   H653      1.0  0.60164  0.72372  0.18993  1.0000
  C   C410      1.0  0.64590  0.73639  0.29616  1.0000
  H   H654      1.0  0.83798  0.80383  0.16143  1.0000
  C   C411      1.0  0.96909  0.72438  0.22938  1.0000
  N   N43       1.0  0.86465  0.92819  0.13905  1.0000
  H   H655      1.0  0.90360  0.75964  0.23002  1.0000
  N   N44       1.0  0.92867  0.00321  0.30269  1.0000
  C   C412      1.0  0.93635  0.97801  0.27840  1.0000
  H   H656      1.0  0.98863  0.70162  0.23545  1.0000
  H   H657      1.0  0.06242  0.71630  0.20748  1.0000
  H   H658      1.0  0.69006  0.00451  0.25240  1.0000
  C   C413      1.0  0.03884  0.04849  0.27017  1.0000
  C   C414      1.0  0.07258  0.71228  0.25164  1.0000
  H   H659      1.0  0.64839  0.03072  0.25615  1.0000
  H   H660      1.0  0.95801  0.95681  0.28316  1.0000
  H   H661      1.0  0.65258  0.91472  0.28549  1.0000
  H   H662      1.0  0.61537  0.71921  0.22570  1.0000
  C   C415      1.0  0.68374  0.73319  0.29103  1.0000
  C   C416      1.0  0.60584  0.97250  0.27515  1.0000
  H   H663      1.0  0.69316  0.69934  0.16802  1.0000
  H   H664      1.0  0.69249  0.64795  0.17340  1.0000
  Fe  Fe78      1.0  0.66516  0.64067  0.29351  1.0000
  H   H665      1.0  0.87408  0.86735  0.13533  1.0000
  H   H666      1.0  0.90923  0.78348  0.26310  1.0000
  C   C417      1.0  0.07694  0.80393  0.11445  1.0000
  H   H667      1.0  0.87321  0.01463  0.29044  1.0000
  C   C418      1.0  0.65975  0.98766  0.30229  1.0000
  H   H668      1.0  0.05337  0.81350  0.12776  1.0000
  H   H669      1.0  0.62854  0.92955  0.06463  1.0000
  C   C419      1.0  0.59302  0.71210  0.21075  1.0000
  H   H670      1.0  0.59390  0.00150  0.27847  1.0000
  H   H671      1.0  0.59513  0.96119  0.25501  1.0000
  H   H672      1.0  0.97019  0.04611  0.29304  1.0000
  H   H673      1.0  0.59105  0.68018  0.20866  1.0000
  H   H674      1.0  0.90731  0.04852  0.27738  1.0000
  S   S164      1.0  0.01118  0.63275  0.27716  1.0000
  C   C420      1.0  0.89926  0.03022  0.29563  1.0000
  H   H675      1.0  0.07561  0.88018  0.12201  1.0000
  Fe  Fe79      1.0  0.66373  0.10591  0.28453  1.0000
  Fe  Fe80      1.0  0.59092  0.10577  0.25586  1.0000
  H   H676      1.0  0.83865  0.05194  0.52667  1.0000
  H   H677      1.0  0.95347  0.11492  0.31704  1.0000
  C   C421      1.0  0.69834  0.07435  0.37724  1.0000
  H   H678      1.0  0.73290  0.63031  0.55105  1.0000
  C   C422      1.0  0.91674  0.97951  0.32692  1.0000
  C   C423      1.0  0.96246  0.02521  0.30979  1.0000
  H   H679      1.0  0.88318  0.98261  0.54302  1.0000
  C   C424      1.0  0.73354  0.06630  0.38687  1.0000
  H   H680      1.0  0.77676  0.05115  0.32424  1.0000
  S   S165      1.0  0.85210  0.07600  0.43525  1.0000
  H   H681      1.0  0.64971  0.01693  0.30739  1.0000
  S   S166      1.0  0.74362  0.07198  0.42237  1.0000
  S   S167      1.0  0.91235  0.08637  0.36485  1.0000
  H   H682      1.0  0.65038  0.96802  0.31941  1.0000
  H   H683      1.0  0.98620  0.00587  0.31270  1.0000
  H   H684      1.0  0.63045  0.71257  0.30536  1.0000
  H   H685      1.0  0.91029  0.99792  0.34546  1.0000
  H   H686      1.0  0.89311  0.04995  0.31344  1.0000
  H   H687      1.0  0.82924  0.94537  0.52551  1.0000
  H   H688      1.0  0.66490  0.08295  0.34108  1.0000
  Fe  Fe81      1.0  0.87457  0.10914  0.39836  1.0000
  C   C425      1.0  0.83784  0.62084  0.53992  1.0000
  C   C426      1.0  0.69177  0.07541  0.34842  1.0000
  C   C427      1.0  0.72014  0.06729  0.32928  1.0000
  C   C428      1.0  0.76161  0.05739  0.36774  1.0000
  C   C429      1.0  0.75481  0.05748  0.33898  1.0000
  H   H689      1.0  0.89159  0.96206  0.32216  1.0000
  H   H690      1.0  0.84432  0.00974  0.50564  1.0000
  H   H691      1.0  0.78876  0.05080  0.37513  1.0000
  H   H692      1.0  0.79889  0.02623  0.51422  1.0000
  H   H693      1.0  0.83021  0.64330  0.52560  1.0000
  H   H694      1.0  0.78340  0.96095  0.53382  1.0000
  H   H695      1.0  0.93862  0.95934  0.33309  1.0000
  C   C430      1.0  0.82708  0.02266  0.52252  1.0000
  Fe  Fe82      1.0  0.79836  0.10225  0.42414  1.0000
  H   H696      1.0  0.67657  0.08123  0.39203  1.0000
  C   C431      1.0  0.81203  0.95990  0.54167  1.0000
  N   N45       1.0  0.82662  0.99887  0.54813  1.0000
  H   H697      1.0  0.95883  0.04193  0.32947  1.0000
  S   S168      1.0  0.08214  0.70738  0.30808  1.0000
  H   H698      1.0  0.69526  0.62275  0.52758  1.0000
  Fe  Fe83      1.0  0.81943  0.73036  0.67674  1.0000
  S   S169      1.0  0.80076  0.68610  0.70799  1.0000
  Fe  Fe84      1.0  0.81179  0.67482  0.62813  1.0000
  C   C432      1.0  0.83586  0.62762  0.56879  1.0000
  S   S170      1.0  0.81595  0.67017  0.58115  1.0000
  Fe  Fe85      1.0  0.75785  0.66959  0.67682  1.0000
  C   C433      1.0  0.93391  0.64255  0.68847  1.0000
  C   C434      1.0  0.86449  0.99609  0.55870  1.0000
  S   S171      1.0  0.77310  0.71765  0.64732  1.0000
  S   S172      1.0  0.85952  0.69197  0.65500  1.0000
  Fe  Fe86      1.0  0.05975  0.67422  0.75846  1.0000
  S   S173      1.0  0.03434  0.67507  0.71589  1.0000
  C   C435      1.0  0.99065  0.65272  0.71391  1.0000
  H   H699      1.0  0.79004  0.85596  0.71037  1.0000
  C   C436      1.0  0.97542  0.63220  0.73657  1.0000
  C   C437      1.0  0.70945  0.67171  0.74228  1.0000
  C   C438      1.0  0.70346  0.66702  0.77111  1.0000
  H   H700      1.0  0.91846  0.64577  0.66957  1.0000
  S   S174      1.0  0.02762  0.67195  0.79880  1.0000
  H   H701      1.0  0.72898  0.69326  0.73474  1.0000
  C   C439      1.0  0.97551  0.74525  0.73893  1.0000
  C   C440      1.0  0.73519  0.09607  0.79682  1.0000
  H   H702      1.0  0.91902  0.72222  0.70683  1.0000
  C   C441      1.0  0.67443  0.09933  0.77721  1.0000
  H   H703      1.0  0.81150  0.94124  0.56062  1.0000
  H   H704      1.0  0.91637  0.69759  0.73972  1.0000
  C   C442      1.0  0.76109  0.86331  0.70579  1.0000
  H   H705      1.0  0.98182  0.67275  0.67201  1.0000
  C   C443      1.0  0.92731  0.76000  0.77219  1.0000
  H   H706      1.0  0.89808  0.76815  0.77544  1.0000
  H   H707      1.0  0.03896  0.04309  0.68148  1.0000
  H   H708      1.0  0.08047  0.02035  0.66972  1.0000
  H   H709      1.0  0.94499  0.78237  0.78236  1.0000
  N   N46       1.0  0.93656  0.75612  0.74211  1.0000
  H   H710      1.0  0.71881  0.68458  0.78577  1.0000
  H   H711      1.0  0.66262  0.08769  0.79712  1.0000
  C   C444      1.0  0.97001  0.65735  0.68973  1.0000
  H   H712      1.0  0.06532  0.06351  0.65306  1.0000
  S   S175      1.0  0.79307  0.62563  0.65554  1.0000
  H   H713      1.0  0.99450  0.76748  0.74778  1.0000
  C   C445      1.0  0.69024  0.64851  0.72334  1.0000
  C   C446      1.0  0.91270  0.72600  0.72953  1.0000
  H   H714      1.0  0.81386  0.04565  0.57587  1.0000
  C   C447      1.0  0.93079  0.79316  0.72783  1.0000
  H   H715      1.0  0.72931  0.99784  0.77779  1.0000
  C   C448      1.0  0.80292  0.01688  0.56969  1.0000
  H   H716      1.0  0.67849  0.07474  0.76272  1.0000
  H   H717      1.0  0.98096  0.71779  0.74996  1.0000
  H   H718      1.0  0.93153  0.73246  0.78351  1.0000
  H   H719      1.0  0.61013  0.67896  0.73889  1.0000
  H   H720      1.0  0.88307  0.73333  0.73137  1.0000
  H   H721      1.0  0.98339  0.74105  0.71654  1.0000
  H   H722      1.0  0.69574  0.89270  0.72131  1.0000
  H   H723      1.0  0.75784  0.94079  0.74918  1.0000
  H   H724      1.0  0.99144  0.62776  0.75508  1.0000
  Fe  Fe87      1.0  0.83758  0.64640  0.68423  1.0000
  Fe  Fe88      1.0  0.83422  0.98821  0.64538  1.0000
  S   S176      1.0  0.85646  0.99334  0.68865  1.0000
  S   S177      1.0  0.82345  0.93401  0.62065  1.0000
  Fe  Fe89      1.0  0.82289  0.07425  0.64062  1.0000
  S   S178      1.0  0.84449  0.08719  0.68355  1.0000
  H   H725      1.0  0.66247  0.98319  0.77605  1.0000
  Fe  Fe90      1.0  0.88804  0.04456  0.67202  1.0000
  S   S179      1.0  0.94857  0.04765  0.68100  1.0000
  Fe  Fe91      1.0  0.81106  0.03493  0.69650  1.0000
  S   S180      1.0  0.78004  0.02964  0.73754  1.0000
  S   S181      1.0  0.86932  0.03617  0.62785  1.0000
  S   S182      1.0  0.78596  0.02538  0.65454  1.0000
  S   S183      1.0  0.60928  0.99536  0.73313  1.0000
  H   H726      1.0  0.86518  0.97835  0.57807  1.0000
  H   H727      1.0  0.94911  0.81637  0.73616  1.0000
  H   H728      1.0  0.80636  0.92532  0.69967  1.0000
  C   C449      1.0  0.95895  0.07127  0.71243  1.0000
  H   H729      1.0  0.74411  0.89195  0.75703  1.0000
  S   S184      1.0  0.84022  0.78631  0.69487  1.0000
  H   H730      1.0  0.75692  0.85778  0.68308  1.0000
  C   C450      1.0  0.99796  0.07706  0.75309  1.0000
  C   C451      1.0  0.98650  0.05669  0.72931  1.0000
  H   H731      1.0  0.70761  0.94189  0.71386  1.0000
  H   H732      1.0  0.77190  0.92525  0.67315  1.0000
  H   H733      1.0  0.01948  0.06581  0.76584  1.0000
  H   H734      1.0  0.99892  0.02954  0.72398  1.0000
  C   C452      1.0  0.73285  0.01900  0.73545  1.0000
  C   C453      1.0  0.71342  0.02607  0.71105  1.0000
  C   C454      1.0  0.67549  0.01790  0.71015  1.0000
  C   C455      1.0  0.65694  0.00315  0.73377  1.0000
  C   C456      1.0  0.67650  0.99551  0.75801  1.0000
  C   C457      1.0  0.71436  0.00358  0.75888  1.0000
  H   H735      1.0  0.72727  0.03874  0.69310  1.0000
  H   H736      1.0  0.79111  0.90367  0.74754  1.0000
  C   C458      1.0  0.67743  0.63995  0.78101  1.0000
  H   H737      1.0  0.74308  0.84276  0.71773  1.0000
  H   H738      1.0  0.77358  0.63216  0.75096  1.0000
  H   H739      1.0  0.66034  0.02394  0.69139  1.0000
  H   H740      1.0  0.80423  0.79750  0.64186  1.0000
  H   H741      1.0  0.77111  0.96057  0.70062  1.0000
  C   C459      1.0  0.83217  0.89165  0.63910  1.0000
  C   C460      1.0  0.81470  0.85707  0.63128  1.0000
  C   C461      1.0  0.81846  0.82387  0.64760  1.0000
  C   C462      1.0  0.83953  0.82538  0.67182  1.0000
  C   C463      1.0  0.85804  0.85959  0.67904  1.0000
  C   C464      1.0  0.85469  0.89254  0.66252  1.0000
  H   H742      1.0  0.79751  0.85614  0.61301  1.0000
  H   H743      1.0  0.70709  0.90723  0.68605  1.0000
  H   H744      1.0  0.87463  0.86081  0.69763  1.0000
  H   H745      1.0  0.86933  0.91869  0.66807  1.0000
  N   N47       1.0  0.75343  0.90372  0.71329  1.0000
  C   C465      1.0  0.71424  0.91164  0.70841  1.0000
  C   C466      1.0  0.76190  0.91022  0.74310  1.0000
  C   C467      1.0  0.77667  0.92982  0.69588  1.0000
  H   H746      1.0  0.74215  0.07021  0.78423  1.0000
  S   S185      1.0  0.69901  0.65241  0.68733  1.0000
  C   C468      1.0  0.06758  0.04874  0.67357  1.0000
  H   H747      1.0  0.80112  0.99920  0.58904  1.0000
  H   H748      1.0  0.06423  0.04381  0.72928  1.0000
  H   H749      1.0  0.93627  0.79074  0.70490  1.0000
  H   H750      1.0  0.61199  0.64886  0.69173  1.0000
  H   H751      1.0  0.90187  0.80269  0.73047  1.0000
  C   C469      1.0  0.93926  0.61729  0.73528  1.0000
  C   C470      1.0  0.98182  0.11205  0.76011  1.0000
  C   C471      1.0  0.07065  0.10925  0.69850  1.0000
  C   C472      1.0  0.66415  0.62144  0.73324  1.0000
  H   H752      1.0  0.04211  0.10473  0.70676  1.0000
  C   C473      1.0  0.91818  0.62317  0.71141  1.0000
  H   H753      1.0  0.87629  0.02506  0.56385  1.0000
  C   C474      1.0  0.94201  0.10575  0.71983  1.0000
  H   H754      1.0  0.81874  0.62087  0.78714  1.0000
  H   H755      1.0  0.76157  0.11160  0.80112  1.0000
  H   H756      1.0  0.77440  0.02078  0.56220  1.0000
  H   H757      1.0  0.87588  0.11429  0.60002  1.0000
  H   H758      1.0  0.73211  0.10708  0.74150  1.0000
  N   N48       1.0  0.08911  0.07221  0.69357  1.0000
  C   C475      1.0  0.65741  0.61746  0.76207  1.0000
  C   C476      1.0  0.08017  0.78136  0.86369  1.0000
  S   S186      1.0  0.04707  0.76693  0.83919  1.0000
  C   C477      1.0  0.06845  0.92124  0.88374  1.0000
  C   C478      1.0  0.06956  0.80040  0.88835  1.0000
  H   H759      1.0  0.08242  0.96465  0.98013  1.0000
  H   H760      1.0  0.03750  0.98482  0.94487  1.0000
  S   S187      1.0  0.67209  0.63271  0.81704  1.0000
  Fe  Fe92      1.0  0.07037  0.63023  0.81197  1.0000
  H   H761      1.0  0.04988  0.92302  0.86552  1.0000
  S   S188      1.0  0.61293  0.02238  0.81369  1.0000
  S   S189      1.0  0.04449  0.03453  0.89760  1.0000
  H   H762      1.0  0.04077  0.80591  0.89243  1.0000
  S   S190      1.0  0.04442  0.83395  0.03661  1.0000
  H   H763      1.0  0.04803  0.91700  0.04398  1.0000
  Fe  Fe93      1.0  0.06771  0.71725  0.81345  1.0000
  H   H764      1.0  0.06286  0.89313  0.89430  1.0000
  C   C479      1.0  0.06508  0.99714  0.94456  1.0000
  Fe  Fe94      1.0  0.61335  0.61945  0.82940  1.0000
  S   S191      1.0  0.04943  0.04711  0.81924  1.0000
  H   H765      1.0  0.06042  0.94446  0.89861  1.0000
  H   H766      1.0  0.08777  0.82562  0.92726  1.0000
  Fe  Fe95      1.0  0.06927  0.06657  0.86114  1.0000
  C   C480      1.0  0.07547  0.02399  0.92403  1.0000
  H   H767      1.0  0.72337  0.08585  0.81717  1.0000
  S   S192      1.0  0.59162  0.64172  0.87043  1.0000
  Fe  Fe96      1.0  0.04456  0.11005  0.81023  1.0000
  H   H768      1.0  0.59198  0.65706  0.97332  1.0000
