data_image0
_chemical_formula_structural       HC4SCH2C4S2HCHC4H2C2H4C4H2CSFeSH2C2H3NS2HCSCHC2H5C2SCHCFe2HNH2SH4CHSCHCSH4CHCFeSHCSHSHSHSC3HC3HC2NHCFeCHC2HNFeSHFeH2CH3SC3HCHNFeHCHCSFeC2HC2SH2CSHC2HFeCSH2CNCH3CHNHC5HSC2H4SCHCHC2H2SCHNCH4CHCHSH5CSH2CHC2NC5SCFeNHCHFeCHC3H4CHC2HCSHCSH4CHSC2H2C5SFeH2C3HCFeSCHC3HNH2CHSH2CFeCHNH3C2NC5H2C2SC2H2SC2H2NFeCH2CH2CHCH2CH2SC3H2SCHCFeNC3FeSC3HNHCNH5CSCHSCH2SH2CH2SHSHCHC4NCHCHFeHC2H4C2FeHCHCS2HCHCH3CH2CH2CFeC2FeCHCHSH2CSC2NCHCNC2FeCH2CHC2HCFeC4HCNSH4C5FeHC2SC3HFeCHCH2SCSH2C2HCH2C2HSCH2S2FeCSCSCHSC3H3C2SHCH2SH2FeHNH2FeC6HFe2CHCSC2HCH2C2HCFeCSHCH3CSHNH4CSHCS2CH3SFeHSCHCHCSCHCSH4CHC2H2CH3CHCS2CFeC3H3SCH4CH2CH2SCSCHCNC3SH4C2H2CHCHNHFeHFeCHCH2CH2SNFeSFeHCFeSFe2CSCH2CHCFeCSC3HCNHCSH2C2HCHCNHSHS2HCSCHCHCSHCHSHSCHC3SHCHSH2FeCH2Fe2H3CHCHSCHC2HC5H2FeCFeCNH2CHFeC3HC4SCHCHCNC3H2CHCHSH2CH2C5FeH2C2SHC2HCNHSH3SC2SHNHCFeH5CSHC4H2S2C2SHSCHCHFeCH2C2HSNH2C2H3CH3SHCHC2FeSCSH2C4HSCHC2HCHSH3CHCHFeH2C2SHCSHNHCFeH2SH2C5HCH3CH3N2HC4HCH2CH2SCH2CNCSHCH2C2SNCHSHC3HSHSCNHCFeCHC4HSCH3FeNCSFeSC2HC3S2HCHC3S2FeH3C2H2CH2C2H2C4HC2HCHSHSH2FeHC2H2CSH2CH2Fe2CH2SHC2HCNHCHC2SFeH2C3SHCH2C3SH3CS3FeHSHCH3CHCH2C4H2C2H4SFeNHCFeH2CHCH4C2FeC2S2HCFe2SC2H2S2HSCFe2C2SH2CH4C6FeCHC3HSH2C2HNH3C2HCHC2HCH2SC4HC2H2SCHSC4SH2SHFeCH2CHCFeCFe2HC2S2C2FeH3SHCHC4FeHCH2SCH6SHCHSNFeH3CHCH3SCH2FeHSNSCHCHNC2SC2FeCSCHCHCHS2CH2C5SHC3H3SH2C2HCSC3H2SHCHSCHSHFeC2H3C2H2CHFeHNHFeH3C2FeC3SFe2H2NHSCHSC4HSFeCSFeC3SFeCSHFeHCSCH2CHC2HNSCSH2CNCSFeCHCHSCHC4HCH4FeHCFeHCHCHC2SHCSH2FeCHCHSC3HSCSFeSHFeSC2HC2H2CH2CHFeNC3SCSNHFeC3SH2FeHC3SHSCHSCHSCH2FeC2NCNCHCHCH4CSCH2FeH4CHS2C3FeC3HCHFeS2C2HCHFeC2H2SH3CHCSH2CHC4H3NCH3NC2HSHCHC2HC2HCS2CHSC2HSH2CHFeCSH2CH2SHFeH2SC2SFeCH3SHCFeHCHC2FeHCHNC3HSHC2Fe2HCH2CHS2HS2H2SHC3S2NCH2CH3CFeHSH2SHCHC2SHSHC2FeC3HC2H2CH2C2SCH2CHSCH3SCSC2SCH3CH2CHCHSH2CHC2NHC2FeC4HCNCHCHC3HSCHC4HFeCH2CHFeHC5FeSHCNH3CHCHS2CSHCFeHSHNCH4C2FeCH2CFe2C2HC2H2C2HSCNH2CHC2H5NC2FeCHCHFeHC2HFeCS2C4HCHCH5C4HSHSC3NCH2CH2FeH2CSC4Fe2CSNFeHSNS2H3S2HCSCHC3HCHNSHC2FeH2FeHFeHC2H3S2H2SFeS4HC2SC2H2C2H2CS3HC2H2FeC2H3SC4HCHCH2CNHC3H2C2HSHSC2S2HCFeCH3SH3CFeCSHCS2CH2FeHNHSFeHSCHCHC2H5SFeH2CH2C2HCH2FeH2CH3C2H2SHC2H3C2HSCS2CHC5HC5H2FeCHCH2C3HCS2HCSCH2FeCHSH2NC2HC2HFeHC3SC2SHSHC2SNC2HCSHFe2HS
_chemical_formula_sum              "H864 C864 S288 Fe144 N72"
_cell_length_a       27.8419
_cell_length_b       28.2059
_cell_length_c       39.2364
_cell_angle_alpha    86.3907
_cell_angle_beta     89.3956
_cell_angle_gamma    87.0921

_space_group_name_H-M_alt    "P 1"
_space_group_IT_number       1

loop_
  _space_group_symop_operation_xyz
  'x, y, z'

loop_
  _atom_site_type_symbol
  _atom_site_label
  _atom_site_symmetry_multiplicity
  _atom_site_fract_x
  _atom_site_fract_y
  _atom_site_fract_z
  _atom_site_occupancy
  H   H1        1.0  0.73897  0.63163  0.25554  1.0000
  C   C1        1.0  0.55281  0.48396  0.33316  1.0000
  C   C2        1.0  0.55519  0.78549  0.19633  1.0000
  C   C3        1.0  0.91189  0.78060  0.43223  1.0000
  C   C4        1.0  0.91223  0.50614  0.36533  1.0000
  S   S1        1.0  0.61400  0.47131  0.16214  1.0000
  C   C5        1.0  0.91170  0.69271  0.12610  1.0000
  H   H2        1.0  0.91315  0.52485  0.29959  1.0000
  H   H3        1.0  0.85412  0.54128  0.08450  1.0000
  C   C6        1.0  0.93240  0.53315  0.42029  1.0000
  C   C7        1.0  0.93608  0.73652  0.42913  1.0000
  C   C8        1.0  0.52474  0.63167  0.38629  1.0000
  C   C9        1.0  0.52348  0.65087  0.05013  1.0000
  S   S2        1.0  0.71025  0.77256  0.33868  1.0000
  S   S3        1.0  0.74269  0.72459  0.00823  1.0000
  H   H4        1.0  0.77916  0.46017  0.02953  1.0000
  C   C10       1.0  0.64411  0.68245  0.37422  1.0000
  H   H5        1.0  0.73486  0.62169  0.41586  1.0000
  C   C11       1.0  0.87142  0.71856  0.07322  1.0000
  C   C12       1.0  0.79229  0.68334  0.45917  1.0000
  C   C13       1.0  0.77252  0.72592  0.44365  1.0000
  C   C14       1.0  0.50044  0.72964  0.08703  1.0000
  H   H6        1.0  0.50630  0.59660  0.12810  1.0000
  H   H7        1.0  0.93929  0.71096  0.45093  1.0000
  C   C15       1.0  0.63495  0.69760  0.23198  1.0000
  C   C16       1.0  0.59901  0.66709  0.22475  1.0000
  H   H8        1.0  0.91761  0.59544  0.01256  1.0000
  H   H9        1.0  0.92933  0.58551  0.30180  1.0000
  H   H10       1.0  0.50347  0.53792  0.31107  1.0000
  H   H11       1.0  0.52005  0.48039  0.13387  1.0000
  C   C17       1.0  0.78611  0.65338  0.19717  1.0000
  C   C18       1.0  0.62976  0.68023  0.43504  1.0000
  C   C19       1.0  0.72497  0.61524  0.23372  1.0000
  C   C20       1.0  0.82309  0.71473  0.39357  1.0000
  H   H12       1.0  0.78170  0.67805  0.17411  1.0000
  H   H13       1.0  0.70528  0.66383  0.32614  1.0000
  C   C21       1.0  0.59195  0.65499  0.19126  1.0000
  S   S4        1.0  0.47362  0.67434  0.22437  1.0000
  Fe  Fe1       1.0  0.77781  0.47136  0.20800  1.0000
  S   S5        1.0  0.77290  0.76057  0.26725  1.0000
  H   H14       1.0  0.69248  0.73934  0.21129  1.0000
  H   H15       1.0  0.77887  0.47351  0.28184  1.0000
  C   C22       1.0  0.61559  0.69540  0.40198  1.0000
  C   C23       1.0  0.84339  0.67285  0.40948  1.0000
  H   H16       1.0  0.60211  0.77781  0.13662  1.0000
  H   H17       1.0  0.53218  0.62024  0.03544  1.0000
  H   H18       1.0  0.79119  0.67516  0.21933  1.0000
  N   N1        1.0  0.90483  0.51915  0.12293  1.0000
  S   S6        1.0  0.48028  0.70679  0.46551  1.0000
  S   S7        1.0  0.77220  0.66111  0.49929  1.0000
  H   H19       1.0  0.48128  0.51899  0.24282  1.0000
  C   C24       1.0  0.50823  0.59653  0.09976  1.0000
  S   S8        1.0  0.66240  0.64809  0.03373  1.0000
  C   C25       1.0  0.65800  0.70290  0.17206  1.0000
  H   H20       1.0  0.77248  0.77423  0.39874  1.0000
  C   C26       1.0  0.51468  0.73614  0.05291  1.0000
  C   C27       1.0  0.49839  0.65372  0.35904  1.0000
  H   H21       1.0  0.57660  0.65268  0.24522  1.0000
  H   H22       1.0  0.54148  0.57502  0.09373  1.0000
  H   H23       1.0  0.53800  0.62957  0.44038  1.0000
  H   H24       1.0  0.74342  0.60812  0.14945  1.0000
  H   H25       1.0  0.88073  0.64734  0.02033  1.0000
  C   C28       1.0  0.68831  0.57298  0.17834  1.0000
  C   C29       1.0  0.46281  0.68911  0.36525  1.0000
  S   S9        1.0  0.91589  0.75449  0.01609  1.0000
  C   C30       1.0  0.82415  0.58847  0.31707  1.0000
  H   H26       1.0  0.77349  0.48530  0.34412  1.0000
  C   C31       1.0  0.62134  0.67280  0.16494  1.0000
  Fe  Fe2       1.0  0.45495  0.66046  0.27961  1.0000
  Fe  Fe3       1.0  0.69565  0.76489  0.28354  1.0000
  H   H27       1.0  0.74460  0.74609  0.45658  1.0000
  N   N2        1.0  0.93273  0.54462  0.34934  1.0000
  H   H28       1.0  0.94035  0.58336  0.11020  1.0000
  H   H29       1.0  0.84259  0.62364  0.45362  1.0000
  S   S10       1.0  0.75455  0.47510  0.15344  1.0000
  H   H30       1.0  0.68369  0.64043  0.46553  1.0000
  H   H31       1.0  0.87009  0.65168  0.39609  1.0000
  H   H32       1.0  0.67352  0.55743  0.15636  1.0000
  H   H33       1.0  0.75792  0.76969  0.13286  1.0000
  C   C32       1.0  0.80511  0.55361  0.33945  1.0000
  H   H34       1.0  0.84240  0.60870  0.26492  1.0000
  S   S11       1.0  0.80410  0.56246  0.38314  1.0000
  C   C33       1.0  0.91195  0.49965  0.40098  1.0000
  H   H35       1.0  0.52095  0.47281  0.44620  1.0000
  C   C34       1.0  0.82783  0.65702  0.44207  1.0000
  S   S12       1.0  0.62511  0.56073  0.49348  1.0000
  H   H36       1.0  0.48854  0.46414  0.07752  1.0000
  H   H37       1.0  0.56401  0.63126  0.18584  1.0000
  H   H38       1.0  0.55165  0.75304  0.18211  1.0000
  H   H39       1.0  0.58168  0.71531  0.39774  1.0000
  C   C35       1.0  0.51903  0.52954  0.24461  1.0000
  H   H40       1.0  0.89627  0.46865  0.41342  1.0000
  C   C36       1.0  0.91012  0.48910  0.18153  1.0000
  Fe  Fe4       1.0  0.74234  0.65320  0.03670  1.0000
  S   S13       1.0  0.75692  0.52790  0.47096  1.0000
  H   H41       1.0  0.67101  0.57911  0.26382  1.0000
  C   C37       1.0  0.82700  0.58188  0.28208  1.0000
  S   S14       1.0  0.65421  0.75728  0.05978  1.0000
  H   H42       1.0  0.49134  0.76018  0.10172  1.0000
  S   S15       1.0  0.81545  0.53330  0.22547  1.0000
  H   H43       1.0  0.60684  0.68819  0.45673  1.0000
  S   S16       1.0  0.74156  0.68249  0.08863  1.0000
  H   H44       1.0  0.93306  0.52824  0.44793  1.0000
  S   S17       1.0  0.90708  0.67345  0.16922  1.0000
  C   C38       1.0  0.89337  0.48601  0.14831  1.0000
  C   C39       1.0  0.57680  0.46613  0.26620  1.0000
  C   C40       1.0  0.79102  0.50573  0.29163  1.0000
  H   H45       1.0  0.56255  0.77358  0.22342  1.0000
  C   C41       1.0  0.52616  0.69656  0.03426  1.0000
  C   C42       1.0  0.78783  0.74153  0.41075  1.0000
  C   C43       1.0  0.88604  0.51627  0.08837  1.0000
  H   H46       1.0  0.54244  0.49108  0.35917  1.0000
  C   C44       1.0  0.72730  0.60227  0.17450  1.0000
  C   C45       1.0  0.78808  0.51237  0.32680  1.0000
  N   N3        1.0  0.68690  0.65712  0.37939  1.0000
  H   H47       1.0  0.89571  0.48036  0.35052  1.0000
  C   C46       1.0  0.91540  0.73014  0.05826  1.0000
  Fe  Fe5       1.0  0.67911  0.51366  0.46696  1.0000
  C   C47       1.0  0.93203  0.55633  0.12996  1.0000
  H   H48       1.0  0.53645  0.70129  0.00757  1.0000
  C   C48       1.0  0.71702  0.64418  0.35026  1.0000
  C   C49       1.0  0.59357  0.46100  0.12118  1.0000
  H   H49       1.0  0.94494  0.65116  0.01891  1.0000
  N   N4        1.0  0.74467  0.62351  0.20191  1.0000
  Fe  Fe6       1.0  0.76093  0.51253  0.41577  1.0000
  S   S18       1.0  0.68149  0.50510  0.41035  1.0000
  H   H50       1.0  0.53684  0.52398  0.21953  1.0000
  Fe  Fe7       1.0  0.78679  0.77523  0.32175  1.0000
  H   H51       1.0  0.81937  0.63042  0.19417  1.0000
  H   H52       1.0  0.55177  0.60381  0.38171  1.0000
  C   C50       1.0  0.49783  0.68346  0.10203  1.0000
  H   H53       1.0  0.63163  0.69264  0.34853  1.0000
  H   H54       1.0  0.71547  0.60550  0.34697  1.0000
  H   H55       1.0  0.48715  0.67868  0.12863  1.0000
  S   S19       1.0  0.79387  0.59151  0.02689  1.0000
  C   C51       1.0  0.45523  0.70401  0.39843  1.0000
  C   C52       1.0  0.67274  0.65327  0.43998  1.0000
  C   C53       1.0  0.66451  0.71580  0.20568  1.0000
  H   H56       1.0  0.51634  0.77175  0.04080  1.0000
  C   C54       1.0  0.48333  0.68343  0.42530  1.0000
  H   H57       1.0  0.63780  0.54170  0.21374  1.0000
  N   N5        1.0  0.51007  0.64483  0.08372  1.0000
  Fe  Fe8       1.0  0.66234  0.72252  0.01039  1.0000
  H   H58       1.0  0.47634  0.57897  0.09072  1.0000
  C   C55       1.0  0.86969  0.69936  0.10694  1.0000
  H   H59       1.0  0.51890  0.56817  0.24886  1.0000
  C   C56       1.0  0.93837  0.52650  0.18880  1.0000
  S   S20       1.0  0.84287  0.73297  0.35243  1.0000
  Fe  Fe9       1.0  0.73463  0.75371  0.05983  1.0000
  C   C57       1.0  0.54459  0.46866  0.11415  1.0000
  C   C58       1.0  0.81078  0.54041  0.26935  1.0000
  H   H60       1.0  0.91386  0.52555  0.06890  1.0000
  C   C59       1.0  0.68666  0.58525  0.23861  1.0000
  C   C60       1.0  0.52479  0.46693  0.50114  1.0000
  S   S21       1.0  0.61078  0.65675  0.12354  1.0000
  H   H61       1.0  0.83733  0.62043  0.32686  1.0000
  H   H62       1.0  0.83555  0.69124  0.11864  1.0000
  C   C61       1.0  0.93762  0.54841  0.31202  1.0000
  S   S22       1.0  0.64177  0.71173  0.27425  1.0000
  H   H63       1.0  0.87535  0.47968  0.08393  1.0000
  C   C62       1.0  0.66811  0.56427  0.21063  1.0000
  C   C63       1.0  0.70124  0.64227  0.41173  1.0000
  H   H64       1.0  0.68101  0.71645  0.15171  1.0000
  Fe  Fe10      1.0  0.66165  0.68320  0.08338  1.0000
  C   C64       1.0  0.51701  0.64633  0.41944  1.0000
  S   S23       1.0  0.51278  0.63869  0.31735  1.0000
  H   H65       1.0  0.83853  0.72485  0.05883  1.0000
  H   H66       1.0  0.75499  0.65267  0.35468  1.0000
  C   C65       1.0  0.53081  0.51044  0.30574  1.0000
  N   N6        1.0  0.54327  0.50166  0.27280  1.0000
  C   C66       1.0  0.91422  0.63459  0.00738  1.0000
  H   H67       1.0  0.89656  0.78985  0.45660  1.0000
  H   H68       1.0  0.90036  0.46341  0.20183  1.0000
  H   H69       1.0  0.50340  0.49962  0.50434  1.0000
  C   C67       1.0  0.52676  0.45955  0.08212  1.0000
  H   H70       1.0  0.58563  0.45808  0.24008  1.0000
  N   N7        1.0  0.91301  0.64690  0.97054  1.0000
  H   H71       1.0  0.57644  0.73042  0.77821  1.0000
  C   C68       1.0  0.47820  0.71892  0.61570  1.0000
  C   C69       1.0  0.72009  0.74012  0.89761  1.0000
  C   C70       1.0  0.61247  0.65707  0.84378  1.0000
  C   C71       1.0  0.75119  0.54053  0.56712  1.0000
  C   C72       1.0  0.90901  0.63162  0.61793  1.0000
  H   H72       1.0  0.75598  0.63889  0.96451  1.0000
  S   S24       1.0  0.61466  0.75256  0.96798  1.0000
  C   C73       1.0  0.54381  0.50244  0.74116  1.0000
  C   C74       1.0  0.50169  0.72974  0.58483  1.0000
  H   H73       1.0  0.92276  0.75289  0.68131  1.0000
  H   H74       1.0  0.51468  0.58777  0.90289  1.0000
  H   H75       1.0  0.51837  0.70704  0.53468  1.0000
  H   H76       1.0  0.64847  0.55695  0.66427  1.0000
  S   S25       1.0  0.84573  0.68830  0.81780  1.0000
  C   C75       1.0  0.83526  0.57688  0.91517  1.0000
  H   H77       1.0  0.89358  0.53819  0.78409  1.0000
  C   C76       1.0  0.45456  0.69839  0.85365  1.0000
  H   H78       1.0  0.57078  0.70622  0.91553  1.0000
  C   C77       1.0  0.62086  0.48590  0.58534  1.0000
  C   C78       1.0  0.74299  0.50593  0.62459  1.0000
  H   H79       1.0  0.76359  0.49135  0.77495  1.0000
  H   H80       1.0  0.73011  0.52256  0.82839  1.0000
  S   S26       1.0  0.66425  0.48356  0.87865  1.0000
  C   C79       1.0  0.71822  0.48936  0.81990  1.0000
  H   H81       1.0  0.52434  0.59867  0.84027  1.0000
  N   N8        1.0  0.47360  0.65885  0.56250  1.0000
  C   C80       1.0  0.78910  0.46657  0.89362  1.0000
  H   H82       1.0  0.63507  0.61318  0.96181  1.0000
  H   H83       1.0  0.54850  0.62946  0.67245  1.0000
  H   H84       1.0  0.54877  0.52463  0.71787  1.0000
  H   H85       1.0  0.86491  0.53180  0.99509  1.0000
  C   C81       1.0  0.91113  0.58946  0.60106  1.0000
  H   H86       1.0  0.72806  0.51687  0.93175  1.0000
  C   C82       1.0  0.61682  0.65846  0.65894  1.0000
  H   H87       1.0  0.47010  0.46914  0.96748  1.0000
  S   S27       1.0  0.64424  0.71837  0.52854  1.0000
  H   H88       1.0  0.57005  0.60656  0.54486  1.0000
  H   H89       1.0  0.87515  0.72271  0.52359  1.0000
  H   H90       1.0  0.52277  0.76102  0.58175  1.0000
  H   H91       1.0  0.63805  0.56936  0.90480  1.0000
  H   H92       1.0  0.75103  0.71643  0.89343  1.0000
  C   C83       1.0  0.68513  0.53937  0.66521  1.0000
  S   S28       1.0  0.74605  0.78863  0.83857  1.0000
  H   H93       1.0  0.88477  0.57906  0.71091  1.0000
  H   H94       1.0  0.85324  0.71987  0.91183  1.0000
  C   C84       1.0  0.49753  0.61846  0.88924  1.0000
  H   H95       1.0  0.77930  0.63087  0.90389  1.0000
  C   C85       1.0  0.85931  0.54908  0.94104  1.0000
  C   C86       1.0  0.62888  0.61286  0.85829  1.0000
  N   N9        1.0  0.51370  0.46551  0.74166  1.0000
  C   C87       1.0  0.44902  0.69213  0.88920  1.0000
  C   C88       1.0  0.46889  0.62860  0.53385  1.0000
  C   C89       1.0  0.58900  0.51432  0.60403  1.0000
  C   C90       1.0  0.49945  0.69883  0.55845  1.0000
  C   C91       1.0  0.81654  0.77919  0.64094  1.0000
  S   S29       1.0  0.57246  0.49652  0.64590  1.0000
  C   C92       1.0  0.78068  0.46104  0.00185  1.0000
  Fe  Fe11      1.0  0.72493  0.71182  0.52783  1.0000
  N   N10       1.0  0.78609  0.46469  0.93095  1.0000
  H   H96       1.0  0.46627  0.59076  0.54289  1.0000
  C   C93       1.0  0.58321  0.57235  0.55574  1.0000
  H   H97       1.0  0.86821  0.63327  0.52417  1.0000
  Fe  Fe12      1.0  0.73042  0.63681  0.78413  1.0000
  C   C94       1.0  0.69331  0.57347  0.60640  1.0000
  H   H98       1.0  0.91257  0.68046  0.87358  1.0000
  C   C95       1.0  0.47158  0.65276  0.90704  1.0000
  C   C96       1.0  0.45155  0.67836  0.61948  1.0000
  C   C97       1.0  0.58864  0.68048  0.89975  1.0000
  H   H99       1.0  0.59324  0.54044  0.77013  1.0000
  H   H100      1.0  0.48647  0.48579  0.69180  1.0000
  H   H101      1.0  0.89791  0.51750  0.72459  1.0000
  H   H102      1.0  0.68075  0.50261  0.67627  1.0000
  C   C98       1.0  0.80919  0.58630  0.98381  1.0000
  H   H103      1.0  0.54713  0.58063  0.60409  1.0000
  C   C99       1.0  0.59982  0.62528  0.95050  1.0000
  C   C100      1.0  0.91250  0.67112  0.90077  1.0000
  H   H104      1.0  0.75179  0.74171  0.65037  1.0000
  C   C101      1.0  0.48231  0.66503  0.83607  1.0000
  S   S30       1.0  0.73844  0.65127  0.83913  1.0000
  H   H105      1.0  0.85485  0.69852  0.97409  1.0000
  C   C102      1.0  0.79789  0.60924  0.92366  1.0000
  S   S31       1.0  0.66053  0.61035  0.76767  1.0000
  H   H106      1.0  0.57856  0.72528  0.85347  1.0000
  H   H107      1.0  0.57186  0.60591  0.73189  1.0000
  H   H108      1.0  0.70308  0.60111  0.55422  1.0000
  H   H109      1.0  0.58568  0.65631  0.96425  1.0000
  C   C103      1.0  0.65101  0.76290  0.93204  1.0000
  H   H110      1.0  0.68815  0.68410  0.65316  1.0000
  S   S32       1.0  0.88334  0.67750  0.72344  1.0000
  C   C104      1.0  0.89658  0.59008  0.56708  1.0000
  C   C105      1.0  0.63320  0.50040  0.55163  1.0000
  H   H111      1.0  0.77455  0.50131  0.88219  1.0000
  H   H112      1.0  0.88820  0.52393  0.93470  1.0000
  C   C106      1.0  0.50281  0.62454  0.85379  1.0000
  C   C107      1.0  0.68497  0.46348  0.83939  1.0000
  C   C108      1.0  0.85803  0.71563  0.69105  1.0000
  C   C109      1.0  0.59781  0.62178  0.71461  1.0000
  C   C110      1.0  0.58433  0.63581  0.68108  1.0000
  S   S33       1.0  0.80200  0.59745  0.78069  1.0000
  Fe  Fe13      1.0  0.81319  0.61935  0.83390  1.0000
  H   H113      1.0  0.86759  0.75029  0.56353  1.0000
  H   H114      1.0  0.82711  0.46274  0.88484  1.0000
  C   C111      1.0  0.56904  0.51163  0.77052  1.0000
  C   C112      1.0  0.87951  0.63299  0.55057  1.0000
  C   C113      1.0  0.74920  0.49154  0.98244  1.0000
  H   H115      1.0  0.92582  0.55675  0.61386  1.0000
  C   C114      1.0  0.44918  0.64881  0.59231  1.0000
  Fe  Fe14      1.0  0.77005  0.71866  0.81873  1.0000
  S   S34       1.0  0.85290  0.57047  0.87260  1.0000
  C   C115      1.0  0.75231  0.49282  0.94675  1.0000
  H   H116      1.0  0.75423  0.47904  0.64428  1.0000
  C   C116      1.0  0.69077  0.73209  0.92634  1.0000
  C   C117      1.0  0.71506  0.57466  0.57407  1.0000
  C   C118      1.0  0.86440  0.78284  0.65006  1.0000
  H   H117      1.0  0.72324  0.51466  0.99500  1.0000
  N   N11       1.0  0.70715  0.53922  0.63110  1.0000
  H   H118      1.0  0.81970  0.71811  0.54716  1.0000
  H   H119      1.0  0.65793  0.47843  0.53760  1.0000
  C   C119      1.0  0.85920  0.71856  0.54958  1.0000
  H   H120      1.0  0.48114  0.74166  0.63674  1.0000
  S   S35       1.0  0.59847  0.67689  0.61757  1.0000
  H   H121      1.0  0.76800  0.54083  0.54209  1.0000
  H   H122      1.0  0.66442  0.59934  0.61126  1.0000
  C   C120      1.0  0.88549  0.75044  0.67464  1.0000
  Fe  Fe15      1.0  0.82862  0.66905  0.76499  1.0000
  C   C121      1.0  0.61340  0.54314  0.53645  1.0000
  H   H123      1.0  0.78886  0.68494  0.69451  1.0000
  N   N12       1.0  0.94137  0.56757  0.74644  1.0000
  H   H124      1.0  0.47580  0.57097  0.79772  1.0000
  H   H125      1.0  0.71269  0.65697  0.71205  1.0000
  H   H126      1.0  0.89963  0.55782  0.55335  1.0000
  C   C122      1.0  0.67672  0.65180  0.70365  1.0000
  C   C123      1.0  0.62547  0.60374  0.89363  1.0000
  N   N13       1.0  0.60534  0.63724  0.91383  1.0000
  C   C124      1.0  0.76518  0.50575  0.59240  1.0000
  C   C125      1.0  0.59265  0.69137  0.86462  1.0000
  C   C126      1.0  0.56501  0.73512  0.72424  1.0000
  C   C127      1.0  0.57795  0.75711  0.69294  1.0000
  C   C128      1.0  0.84619  0.55364  0.97525  1.0000
  H   H127      1.0  0.61380  0.66415  0.81635  1.0000
  H   H128      1.0  0.57383  0.59681  0.95470  1.0000
  C   C129      1.0  0.56304  0.48321  0.80044  1.0000
  C   C130      1.0  0.57069  0.55785  0.58935  1.0000
  S   S36       1.0  0.47098  0.64785  0.95165  1.0000
  C   C131      1.0  0.87952  0.69346  0.92229  1.0000
  C   C132      1.0  0.73711  0.47180  0.78961  1.0000
  H   H129      1.0  0.47329  0.49918  0.90676  1.0000
  H   H130      1.0  0.56138  0.74757  0.66959  1.0000
  S   S37       1.0  0.73180  0.70159  0.58465  1.0000
  C   C133      1.0  0.92565  0.55795  0.77917  1.0000
  C   C134      1.0  0.66299  0.66665  0.67021  1.0000
  H   H131      1.0  0.66856  0.76691  0.79342  1.0000
  H   H132      1.0  0.93773  0.54726  0.69513  1.0000
  N   N14       1.0  0.87770  0.67417  0.56731  1.0000
  Fe  Fe16      1.0  0.65210  0.71577  0.58543  1.0000
  C   C135      1.0  0.64411  0.62941  0.72588  1.0000
  H   H133      1.0  0.79272  0.47865  0.58685  1.0000
  H   H134      1.0  0.47534  0.60457  0.73801  1.0000
  C   C136      1.0  0.45212  0.55731  0.77953  1.0000
  H   H135      1.0  0.70758  0.55837  0.68258  1.0000
  H   H136      1.0  0.64387  0.58569  0.84220  1.0000
  C   C137      1.0  0.91406  0.55211  0.71777  1.0000
  H   H137      1.0  0.50850  0.77534  0.90252  1.0000
  C   C138      1.0  0.89200  0.67380  0.60056  1.0000
  H   H138      1.0  0.58210  0.49039  0.82339  1.0000
  H   H139      1.0  0.89163  0.70644  0.61361  1.0000
  C   C139      1.0  0.80985  0.71237  0.68223  1.0000
  H   H140      1.0  0.53888  0.70778  0.72544  1.0000
  H   H141      1.0  0.69840  0.70153  0.94377  1.0000
  S   S38       1.0  0.75596  0.70716  0.76404  1.0000
  C   C140      1.0  0.88047  0.68103  0.95739  1.0000
  C   C141      1.0  0.78484  0.61397  0.95800  1.0000
  C   C142      1.0  0.58653  0.74797  0.75407  1.0000
  H   H142      1.0  0.93738  0.56636  0.83255  1.0000
  H   H143      1.0  0.50021  0.63054  0.51616  1.0000
  S   S39       1.0  0.49581  0.67563  0.79275  1.0000
  C   C143      1.0  0.78911  0.74407  0.65701  1.0000
  H   H144      1.0  0.92184  0.63225  0.64395  1.0000
  C   C144      1.0  0.70979  0.77915  0.87468  1.0000
  Fe  Fe17      1.0  0.73523  0.78084  0.58226  1.0000
  N   N15       1.0  0.61958  0.78226  0.75281  1.0000
  C   C145      1.0  0.45185  0.57629  0.74568  1.0000
  C   C146      1.0  0.94549  0.62492  0.94955  1.0000
  C   C147      1.0  0.94552  0.63648  0.91439  1.0000
  Fe  Fe18      1.0  0.44708  0.73136  0.76622  1.0000
  S   S40       1.0  0.73447  0.79029  0.52534  1.0000
  C   C148      1.0  0.61255  0.79120  0.69173  1.0000
  C   C149      1.0  0.89917  0.82533  0.16578  1.0000
  C   C150      1.0  0.65508  0.89071  0.39747  1.0000
  H   H145      1.0  0.82636  0.04724  0.21786  1.0000
  N   N16       1.0  0.92765  0.80154  0.37295  1.0000
  H   H146      1.0  0.49462  0.95593  0.43404  1.0000
  C   C151      1.0  0.93859  0.06089  0.30474  1.0000
  N   N17       1.0  0.59370  0.81470  0.18238  1.0000
  H   H147      1.0  0.54130  0.83217  0.07964  1.0000
  H   H148      1.0  0.66220  0.79930  0.45863  1.0000
  H   H149      1.0  0.54232  0.79563  0.39797  1.0000
  H   H150      1.0  0.79482  0.90834  0.09230  1.0000
  H   H151      1.0  0.49353  0.11266  0.50419  1.0000
  C   C152      1.0  0.80481  0.92922  0.39328  1.0000
  S   S41       1.0  0.46768  0.09715  0.28062  1.0000
  C   C153      1.0  0.65374  0.83443  0.44691  1.0000
  H   H152      1.0  0.55162  0.08781  0.09386  1.0000
  S   S42       1.0  0.57486  0.02311  0.23769  1.0000
  C   C154      1.0  0.73816  0.99566  0.31648  1.0000
  H   H153      1.0  0.67638  0.87211  0.05003  1.0000
  H   H154      1.0  0.52121  0.85390  0.13823  1.0000
  S   S43       1.0  0.92458  0.00632  0.25015  1.0000
  H   H155      1.0  0.94514  0.05395  0.08400  1.0000
  H   H156      1.0  0.91828  0.94276  0.30883  1.0000
  C   C155      1.0  0.66691  0.84546  0.41278  1.0000
  H   H157      1.0  0.78007  0.01655  0.19887  1.0000
  H   H158      1.0  0.71998  0.01627  0.04741  1.0000
  S   S44       1.0  0.78479  0.85444  0.31258  1.0000
  H   H159      1.0  0.79625  0.94191  0.36734  1.0000
  S   S45       1.0  0.68400  0.84296  0.27105  1.0000
  H   H160      1.0  0.57839  0.97571  0.05300  1.0000
  C   C156      1.0  0.51352  0.83721  0.43841  1.0000
  H   H161      1.0  0.89026  0.84746  0.40640  1.0000
  C   C157      1.0  0.53085  0.09812  0.04102  1.0000
  C   C158      1.0  0.93755  0.02851  0.36365  1.0000
  C   C159      1.0  0.49201  0.08034  0.32061  1.0000
  C   C160      1.0  0.56615  0.94907  0.07162  1.0000
  N   N18       1.0  0.78322  0.00727  0.25321  1.0000
  C   C161      1.0  0.78505  0.88793  0.40740  1.0000
  H   H162      1.0  0.51083  0.80638  0.45620  1.0000
  C   C162      1.0  0.79611  0.87183  0.44088  1.0000
  H   H163      1.0  0.79742  0.03268  0.33546  1.0000
  Fe  Fe19      1.0  0.54665  0.01225  0.18550  1.0000
  H   H164      1.0  0.68666  0.94591  0.07956  1.0000
  C   C163      1.0  0.77680  0.11009  0.03391  1.0000
  C   C164      1.0  0.74124  0.98413  0.25611  1.0000
  H   H165      1.0  0.78017  0.84024  0.45231  1.0000
  H   H166      1.0  0.52710  0.94708  0.37601  1.0000
  H   H167      1.0  0.46925  0.85480  0.49532  1.0000
  H   H168      1.0  0.83554  0.88488  0.48585  1.0000
  C   C165      1.0  0.91269  0.90676  0.12411  1.0000
  C   C166      1.0  0.93031  0.01586  0.29360  1.0000
  Fe  Fe20      1.0  0.71894  0.03463  0.46939  1.0000
  H   H169      1.0  0.83272  0.98323  0.21609  1.0000
  C   C167      1.0  0.71146  0.10756  0.25694  1.0000
  H   H170      1.0  0.56575  0.08162  0.30367  1.0000
  C   C168      1.0  0.71785  0.97836  0.28770  1.0000
  S   S46       1.0  0.78863  0.88769  0.21610  1.0000
  S   S47       1.0  0.59746  0.06059  0.15775  1.0000
  H   H171      1.0  0.68839  0.89837  0.14375  1.0000
  C   C169      1.0  0.53365  0.11147  0.07487  1.0000
  H   H172      1.0  0.52039  0.80649  0.19491  1.0000
  C   C170      1.0  0.80682  0.01378  0.21980  1.0000
  H   H173      1.0  0.59905  0.05722  0.36107  1.0000
  H   H174      1.0  0.72515  0.97106  0.23373  1.0000
  H   H175      1.0  0.65240  0.91206  0.20058  1.0000
  C   C171      1.0  0.54535  0.86816  0.08666  1.0000
  H   H176      1.0  0.45146  0.91502  0.48248  1.0000
  H   H177      1.0  0.64620  0.08448  0.28111  1.0000
  C   C172      1.0  0.66208  0.87467  0.15464  1.0000
  H   H178      1.0  0.59082  0.85893  0.22450  1.0000
  H   H179      1.0  0.48222  0.84168  0.25467  1.0000
  C   C173      1.0  0.56132  0.90236  0.06251  1.0000
  Fe  Fe21      1.0  0.62643  0.05751  0.43118  1.0000
  C   C174      1.0  0.61361  0.80671  0.15107  1.0000
  C   C175      1.0  0.55594  0.96110  0.10523  1.0000
  Fe  Fe22      1.0  0.76291  0.84003  0.25949  1.0000
  C   C176      1.0  0.62812  0.86848  0.46532  1.0000
  H   H180      1.0  0.84980  0.98691  0.40217  1.0000
  C   C177      1.0  0.78180  0.01782  0.31350  1.0000
  H   H181      1.0  0.88785  0.85516  0.34290  1.0000
  S   S48       1.0  0.57591  0.88522  0.02150  1.0000
  H   H182      1.0  0.83655  0.04255  0.27906  1.0000
  H   H183      1.0  0.87049  0.00329  0.46192  1.0000
  C   C178      1.0  0.64820  0.83647  0.13681  1.0000
  S   S49       1.0  0.77241  0.82042  0.06685  1.0000
  C   C179      1.0  0.82734  0.89726  0.45971  1.0000
  C   C180      1.0  0.69654  0.94426  0.05287  1.0000
  N   N19       1.0  0.49998  0.88169  0.44816  1.0000
  C   C181      1.0  0.60750  0.85185  0.20014  1.0000
  H   H184      1.0  0.46007  0.97011  0.06095  1.0000
  C   C182      1.0  0.54179  0.07498  0.32509  1.0000
  N   N20       1.0  0.90486  0.86478  0.10985  1.0000
  C   C183      1.0  0.53155  0.83092  0.40550  1.0000
  C   C184      1.0  0.89875  0.82433  0.13020  1.0000
  Fe  Fe23      1.0  0.93571  0.06777  0.21278  1.0000
  C   C185      1.0  0.50470  0.92067  0.42607  1.0000
  H   H185      1.0  0.91668  0.95662  0.45685  1.0000
  H   H186      1.0  0.47960  0.85383  0.29908  1.0000
  C   C186      1.0  0.52252  0.91573  0.39299  1.0000
  H   H187      1.0  0.76395  0.79640  0.19189  1.0000
  C   C187      1.0  0.45955  0.85803  0.27470  1.0000
  C   C188      1.0  0.69506  0.10909  0.31776  1.0000
  H   H188      1.0  0.55210  0.86645  0.35765  1.0000
  C   C189      1.0  0.83515  0.95428  0.41303  1.0000
  Fe  Fe24      1.0  0.51846  0.08274  0.23759  1.0000
  C   C190      1.0  0.90599  0.86816  0.18056  1.0000
  C   C191      1.0  0.79133  0.89885  0.14708  1.0000
  C   C192      1.0  0.92944  0.98359  0.35238  1.0000
  C   C193      1.0  0.53638  0.87053  0.38277  1.0000
  H   H189      1.0  0.89109  0.89692  0.05983  1.0000
  C   C194      1.0  0.78787  0.88388  0.11396  1.0000
  N   N21       1.0  0.84599  0.93819  0.44579  1.0000
  S   S50       1.0  0.69755  0.08939  0.21659  1.0000
  H   H190      1.0  0.84355  0.06835  0.03692  1.0000
  H   H191      1.0  0.68384  0.96128  0.28977  1.0000
  H   H192      1.0  0.76092  0.86873  0.39243  1.0000
  H   H193      1.0  0.71955  0.99274  0.34090  1.0000
  C   C195      1.0  0.54027  0.92655  0.12944  1.0000
  C   C196      1.0  0.80391  0.02335  0.28146  1.0000
  C   C197      1.0  0.92497  0.97750  0.31748  1.0000
  C   C198      1.0  0.64201  0.88226  0.18663  1.0000
  C   C199      1.0  0.53418  0.88045  0.11985  1.0000
  Fe  Fe25      1.0  0.71768  0.10152  0.40619  1.0000
  H   H194      1.0  0.90493  0.86979  0.20815  1.0000
  C   C200      1.0  0.76691  0.80577  0.13683  1.0000
  C   C201      1.0  0.69063  0.90269  0.03600  1.0000
  S   S51       1.0  0.93967  0.86262  0.49964  1.0000
  C   C202      1.0  0.47962  0.05738  0.38039  1.0000
  C   C203      1.0  0.77038  0.82084  0.17018  1.0000
  C   C204      1.0  0.52932  0.05227  0.38502  1.0000
  H   H195      1.0  0.92825  0.81894  0.31907  1.0000
  Fe  Fe26      1.0  0.70650  0.85042  0.32485  1.0000
  C   C205      1.0  0.63065  0.92475  0.41632  1.0000
  H   H196      1.0  0.59688  0.94004  0.46404  1.0000
  C   C206      1.0  0.78284  0.86739  0.17521  1.0000
  H   H197      1.0  0.67216  0.10086  0.33953  1.0000
  H   H198      1.0  0.66379  0.83030  0.11195  1.0000
  S   S52       1.0  0.55162  0.03506  0.42550  1.0000
  C   C207      1.0  0.90823  0.81297  0.40373  1.0000
  S   S53       1.0  0.76431  0.97910  0.49942  1.0000
  H   H199      1.0  0.87658  0.95441  0.49317  1.0000
  H   H200      1.0  0.94203  0.09078  0.28637  1.0000
  C   C208      1.0  0.94185  0.06729  0.33987  1.0000
  C   C209      1.0  0.94445  0.99919  0.04819  1.0000
  H   H201      1.0  0.54597  0.06393  0.03434  1.0000
  C   C210      1.0  0.87911  0.96438  0.46543  1.0000
  H   H202      1.0  0.88051  0.83503  0.06468  1.0000
  H   H203      1.0  0.92690  0.95341  0.37060  1.0000
  C   C211      1.0  0.91297  0.90916  0.15969  1.0000
  C   C212      1.0  0.82906  0.10347  0.08332  1.0000
  H   H204      1.0  0.86248  0.09066  0.09517  1.0000
  S   S54       1.0  0.91376  0.05385  0.15980  1.0000
  C   C213      1.0  0.90463  0.86262  0.07259  1.0000
  H   H205      1.0  0.80092  0.93484  0.15093  1.0000
  H   H206      1.0  0.62092  0.95948  0.40441  1.0000
  S   S55       1.0  0.94241  0.03515  0.40756  1.0000
  S   S56       1.0  0.52882  0.93922  0.17201  1.0000
  Fe  Fe27      1.0  0.61975  0.07739  0.21007  1.0000
  C   C214      1.0  0.71517  0.98357  0.03494  1.0000
  S   S57       1.0  0.69814  0.02551  0.41517  1.0000
  C   C215      1.0  0.92386  0.83640  0.34366  1.0000
  S   S58       1.0  0.64546  0.05951  0.48600  1.0000
  C   C216      1.0  0.46096  0.07216  0.34833  1.0000
  H   H207      1.0  0.68576  0.81888  0.39846  1.0000
  S   S59       1.0  0.66881  0.90606  0.35467  1.0000
  C   C217      1.0  0.68036  0.09988  0.28477  1.0000
  C   C218      1.0  0.77585  0.83740  0.10878  1.0000
  C   C219      1.0  0.56055  0.06143  0.35750  1.0000
  H   H208      1.0  0.55995  0.99703  0.11224  1.0000
  H   H209      1.0  0.90800  0.00826  0.04015  1.0000
  H   H210      1.0  0.45550  0.05051  0.40172  1.0000
  C   C220      1.0  0.61692  0.91365  0.45009  1.0000
  C   C221      1.0  0.81863  0.09125  0.05015  1.0000
  S   S60       1.0  0.48651  0.06751  0.18763  1.0000
  H   H211      1.0  0.91797  0.93876  0.10800  1.0000
  C   C222      1.0  0.48226  0.88828  0.48288  1.0000
  H   H212      1.0  0.91797  0.94253  0.17120  1.0000
  H   H213      1.0  0.51145  0.90063  0.49855  1.0000
  S   S61       1.0  0.74485  0.10808  0.45911  1.0000
  H   H214      1.0  0.94152  0.85397  0.06295  1.0000
  H   H215      1.0  0.45734  0.00446  0.11799  1.0000
  Fe  Fe28      1.0  0.53956  0.11709  0.16458  1.0000
  H   H216      1.0  0.44702  0.92915  0.31639  1.0000
  N   N22       1.0  0.44701  0.90816  0.26509  1.0000
  H   H217      1.0  0.89330  0.79327  0.18178  1.0000
  H   H218      1.0  0.89235  0.79127  0.11894  1.0000
  Fe  Fe29      1.0  0.91052  0.99379  0.96482  1.0000
  C   C223      1.0  0.44894  0.90548  0.57932  1.0000
  C   C224      1.0  0.84014  0.86186  0.84884  1.0000
  C   C225      1.0  0.80869  0.12025  0.58703  1.0000
  C   C226      1.0  0.76868  0.86150  0.76016  1.0000
  C   C227      1.0  0.72734  0.98081  0.00058  1.0000
  C   C228      1.0  0.67556  0.07237  0.82044  1.0000
  H   H219      1.0  0.47874  0.86511  0.99897  1.0000
  Fe  Fe30      1.0  0.63418  0.00758  0.93265  1.0000
  Fe  Fe31      1.0  0.44708  0.80495  0.70768  1.0000
  C   C229      1.0  0.47471  0.95903  0.69827  1.0000
  H   H220      1.0  0.86636  0.09692  0.53696  1.0000
  C   C230      1.0  0.75517  0.90203  0.73974  1.0000
  S   S62       1.0  0.60471  0.06738  0.72883  1.0000
  C   C231      1.0  0.69318  0.11784  0.81618  1.0000
  C   C232      1.0  0.50383  0.97974  0.72125  1.0000
  H   H221      1.0  0.90843  0.91217  0.87466  1.0000
  C   C233      1.0  0.89306  0.84996  0.95022  1.0000
  H   H222      1.0  0.62271  0.80833  0.66742  1.0000
  H   H223      1.0  0.63007  0.08065  0.59777  1.0000
  C   C234      1.0  0.46157  0.85688  0.63190  1.0000
  C   C235      1.0  0.67954  0.04666  0.85209  1.0000
  H   H224      1.0  0.83731  0.09473  0.59524  1.0000
  C   C236      1.0  0.54186  0.92851  0.83226  1.0000
  Fe  Fe32      1.0  0.64742  0.99999  0.71907  1.0000
  C   C237      1.0  0.70228  0.06601  0.87918  1.0000
  S   S63       1.0  0.50544  0.93290  0.86854  1.0000
  H   H225      1.0  0.64583  0.90940  0.65447  1.0000
  C   C238      1.0  0.69865  0.90151  0.61437  1.0000
  H   H226      1.0  0.50990  0.00212  0.77225  1.0000
  H   H227      1.0  0.72706  0.88791  0.63152  1.0000
  H   H228      1.0  0.83868  0.79940  0.96048  1.0000
  C   C239      1.0  0.48658  0.98713  0.75421  1.0000
  S   S64       1.0  0.70607  0.03448  0.91887  1.0000
  H   H229      1.0  0.65859  0.05719  0.79938  1.0000
  N   N23       1.0  0.85769  0.85873  0.88401  1.0000
  H   H230      1.0  0.83328  0.89100  0.64860  1.0000
  H   H231      1.0  0.80308  0.87848  0.84790  1.0000
  H   H232      1.0  0.60167  0.96576  0.52132  1.0000
  H   H233      1.0  0.86320  0.88367  0.83149  1.0000
  C   C240      1.0  0.55946  0.89299  0.77853  1.0000
  S   S65       1.0  0.84556  0.09420  0.90818  1.0000
  H   H234      1.0  0.80978  0.08316  0.82551  1.0000
  C   C241      1.0  0.85458  0.82348  0.94138  1.0000
  S   S66       1.0  0.56858  0.04101  0.90678  1.0000
  S   S67       1.0  0.65515  0.01706  0.66307  1.0000
  C   C242      1.0  0.63340  0.80323  0.72210  1.0000
  H   H235      1.0  0.83748  0.94957  0.54822  1.0000
  H   H236      1.0  0.66325  0.83951  0.99350  1.0000
  H   H237      1.0  0.93578  0.87347  0.57206  1.0000
  S   S68       1.0  0.61088  0.93301  0.93114  1.0000
  Fe  Fe33      1.0  0.82793  0.06785  0.96177  1.0000
  H   H238      1.0  0.81202  0.07405  0.52090  1.0000
  S   S69       1.0  0.90357  0.06904  0.97995  1.0000
  C   C243      1.0  0.89399  0.88623  0.89296  1.0000
  H   H239      1.0  0.83062  0.06667  0.76342  1.0000
  C   C244      1.0  0.86745  0.98916  0.81488  1.0000
  H   H240      1.0  0.81984  0.80151  0.76679  1.0000
  C   C245      1.0  0.48827  0.83853  0.94881  1.0000
  S   S70       1.0  0.50667  0.97504  0.96120  1.0000
  C   C246      1.0  0.80841  0.83293  0.75093  1.0000
  H   H241      1.0  0.87270  0.94899  0.73493  1.0000
  C   C247      1.0  0.49652  0.81094  0.89109  1.0000
  S   S71       1.0  0.60784  0.01724  0.98592  1.0000
  H   H242      1.0  0.63437  0.98176  0.79052  1.0000
  H   H243      1.0  0.80743  0.80766  0.90084  1.0000
  H   H244      1.0  0.94303  0.90206  0.93234  1.0000
  H   H245      1.0  0.55108  0.86821  0.75976  1.0000
  C   C248      1.0  0.82938  0.11597  0.81884  1.0000
  H   H246      1.0  0.60973  0.82574  0.91348  1.0000
  C   C249      1.0  0.92426  0.99329  0.75534  1.0000
  C   C250      1.0  0.67047  0.92470  0.55751  1.0000
  H   H247      1.0  0.72805  0.83077  0.99272  1.0000
  H   H248      1.0  0.88773  0.88384  0.67362  1.0000
  C   C251      1.0  0.53213  0.89521  0.80863  1.0000
  H   H249      1.0  0.58664  0.98505  0.84422  1.0000
  H   H250      1.0  0.52126  0.81820  0.95582  1.0000
  H   H251      1.0  0.50287  0.87182  0.81337  1.0000
  C   C252      1.0  0.64033  0.80171  0.90895  1.0000
  H   H252      1.0  0.66023  0.82979  0.72098  1.0000
  C   C253      1.0  0.83462  0.84598  0.72155  1.0000
  S   S72       1.0  0.49362  0.84373  0.66955  1.0000
  S   S73       1.0  0.62571  0.92583  0.73247  1.0000
  C   C254      1.0  0.78213  0.91397  0.71046  1.0000
  Fe  Fe34      1.0  0.54020  0.04547  0.96018  1.0000
  C   C255      1.0  0.81100  0.97240  0.56039  1.0000
  C   C256      1.0  0.91296  0.88144  0.92585  1.0000
  C   C257      1.0  0.93725  0.01765  0.78363  1.0000
  H   H253      1.0  0.47356  0.80551  0.86882  1.0000
  H   H254      1.0  0.66539  0.10904  0.54245  1.0000
  H   H255      1.0  0.65899  0.82953  0.78129  1.0000
  S   S74       1.0  0.93665  0.01323  0.91171  1.0000
  C   C258      1.0  0.77075  0.99136  0.54224  1.0000
  H   H256      1.0  0.84938  0.96989  0.60785  1.0000
  H   H257      1.0  0.74865  0.85277  0.78328  1.0000
  H   H258      1.0  0.72460  0.92449  0.74709  1.0000
  H   H259      1.0  0.77181  0.94589  0.69491  1.0000
  C   C259      1.0  0.57926  0.95919  0.82605  1.0000
  H   H260      1.0  0.55935  0.93281  0.54678  1.0000
  H   H261      1.0  0.50450  0.91547  0.61550  1.0000
  C   C260      1.0  0.59576  0.92477  0.77181  1.0000
  H   H262      1.0  0.85501  0.94010  0.67078  1.0000
  H   H263      1.0  0.45905  0.93459  0.56191  1.0000
  S   S75       1.0  0.71785  0.02781  0.73316  1.0000
  C   C261      1.0  0.62023  0.11585  0.58680  1.0000
  S   S76       1.0  0.46651  0.80751  0.76266  1.0000
  C   C262      1.0  0.72087  0.93883  0.98447  1.0000
  H   H264      1.0  0.46999  0.07005  0.85572  1.0000
  C   C263      1.0  0.58817  0.95853  0.54782  1.0000
  N   N24       1.0  0.62648  0.93839  0.57050  1.0000
  C   C264      1.0  0.47478  0.89453  0.60944  1.0000
  C   C265      1.0  0.61740  0.93258  0.60481  1.0000
  C   C266      1.0  0.85089  0.90099  0.67221  1.0000
  S   S77       1.0  0.83336  0.99070  0.95040  1.0000
  H   H265      1.0  0.70504  0.03439  0.54453  1.0000
  H   H266      1.0  0.82144  0.94663  0.78697  1.0000
  H   H267      1.0  0.86865  0.10772  0.82105  1.0000
  H   H268      1.0  0.66607  0.01137  0.85539  1.0000
  C   C267      1.0  0.73633  0.02022  0.55834  1.0000
  C   C268      1.0  0.70724  0.90632  0.57926  1.0000
  H   H269      1.0  0.57309  0.99265  0.55702  1.0000
  H   H270      1.0  0.84058  0.82596  0.83870  1.0000
  C   C269      1.0  0.90926  0.01482  0.81367  1.0000
  H   H271      1.0  0.86606  0.82411  0.71506  1.0000
  C   C270      1.0  0.65317  0.91372  0.62724  1.0000
  H   H272      1.0  0.54228  0.10610  0.53465  1.0000
  N   N25       1.0  0.82196  0.88659  0.70215  1.0000
  H   H273      1.0  0.45004  0.03470  0.91287  1.0000
  Fe  Fe35      1.0  0.72317  0.04911  0.67747  1.0000
  H   H274      1.0  0.74111  0.01124  0.98620  1.0000
  Fe  Fe36      1.0  0.92185  0.08836  0.92571  1.0000
  C   C271      1.0  0.67020  0.81026  0.88047  1.0000
  H   H275      1.0  0.71572  0.05305  0.60475  1.0000
  C   C272      1.0  0.85379  0.96634  0.78615  1.0000
  H   H276      1.0  0.74225  0.89603  0.56887  1.0000
  H   H277      1.0  0.54003  0.98868  0.71394  1.0000
  C   C273      1.0  0.83726  0.82827  0.90783  1.0000
  H   H278      1.0  0.88534  0.81012  0.63763  1.0000
  H   H279      1.0  0.58249  0.94298  0.61510  1.0000
  S   S78       1.0  0.79194  0.81772  0.60859  1.0000
  N   N26       1.0  0.70237  0.90052  0.00218  1.0000
  Fe  Fe37      1.0  0.54228  0.96736  0.91022  1.0000
  S   S79       1.0  0.76684  0.10316  0.99051  1.0000
  Fe  Fe38      1.0  0.57720  0.94587  0.98203  1.0000
  H   H280      1.0  0.67755  0.92813  0.53020  1.0000
  C   C274      1.0  0.81751  0.98349  0.59427  1.0000
  Fe  Fe39      1.0  0.65444  0.79617  0.53195  1.0000
  S   S80       1.0  0.83135  0.98470  0.85173  1.0000
  Fe  Fe40      1.0  0.61942  0.08726  0.67379  1.0000
  Fe  Fe41      1.0  0.67641  0.09756  0.73676  1.0000
  C   C275      1.0  0.88251  0.96784  0.75665  1.0000
  S   S81       1.0  0.93069  0.81900  0.76950  1.0000
  C   C276      1.0  0.46688  0.11673  0.58703  1.0000
  H   H281      1.0  0.73039  0.93751  0.95763  1.0000
  H   H282      1.0  0.92003  0.03237  0.83584  1.0000
  C   C277      1.0  0.50467  0.11988  0.53035  1.0000
  H   H283      1.0  0.90731  0.84646  0.97598  1.0000
  C   C278      1.0  0.74200  0.03004  0.59259  1.0000
  Fe  Fe42      1.0  0.85840  0.01708  0.89831  1.0000
  C   C279      1.0  0.64137  0.79503  0.78460  1.0000
  S   S82       1.0  0.79256  0.02761  0.65219  1.0000
  C   C280      1.0  0.81079  0.12083  0.72447  1.0000
  C   C281      1.0  0.46455  0.86518  0.97331  1.0000
  C   C282      1.0  0.60597  0.95758  0.79562  1.0000
  H   H284      1.0  0.66236  0.84073  0.86285  1.0000
  C   C283      1.0  0.78289  0.01209  0.61043  1.0000
  N   N27       1.0  0.47262  0.09786  0.55591  1.0000
  H   H285      1.0  0.48808  0.95175  0.67301  1.0000
  C   C284      1.0  0.69741  0.85596  0.98551  1.0000
  S   S83       1.0  0.68864  0.12192  0.68212  1.0000
  H   H286      1.0  0.69633  0.86183  0.95726  1.0000
  H   H287      1.0  0.45413  0.04280  0.52421  1.0000
  C   C285      1.0  0.82951  0.10665  0.52746  1.0000
  C   C286      1.0  0.45003  0.05760  0.54903  1.0000
  H   H288      1.0  0.81358  0.09675  0.70396  1.0000
  C   C287      1.0  0.82059  0.10405  0.75812  1.0000
  H   H289      1.0  0.52834  0.83033  0.88179  1.0000
  C   C288      1.0  0.72009  0.11153  0.87492  1.0000
  N   N28       1.0  0.47040  0.83849  0.91646  1.0000
  H   H290      1.0  0.60331  0.11890  0.93988  1.0000
  S   S84       1.0  0.50255  0.11377  0.97376  1.0000
  H   H291      1.0  0.61350  0.79926  0.80481  1.0000
  S   S85       1.0  0.60807  0.85473  0.50691  1.0000
  S   S86       1.0  0.65601  0.79419  0.58895  1.0000
  H   H292      1.0  0.44841  0.00139  0.81327  1.0000
  C   C289      1.0  0.64432  0.31477  0.09484  1.0000
  S   S87       1.0  0.85367  0.22654  0.49095  1.0000
  C   C290      1.0  0.72396  0.32455  0.30163  1.0000
  H   H293      1.0  0.87194  0.35209  0.48827  1.0000
  C   C291      1.0  0.52745  0.34449  0.25542  1.0000
  H   H294      1.0  0.47116  0.21866  0.19666  1.0000
  C   C292      1.0  0.77447  0.24077  0.40230  1.0000
  S   S88       1.0  0.90239  0.14177  0.21160  1.0000
  H   H295      1.0  0.57015  0.23683  0.04010  1.0000
  C   C293      1.0  0.70800  0.28950  0.32524  1.0000
  H   H296      1.0  0.71110  0.15234  0.03936  1.0000
  S   S89       1.0  0.53311  0.43013  0.01745  1.0000
  H   H297      1.0  0.91535  0.37056  0.36868  1.0000
  S   S90       1.0  0.71661  0.36663  0.16969  1.0000
  C   C294      1.0  0.90049  0.31675  0.23577  1.0000
  H   H298      1.0  0.70557  0.26925  0.08203  1.0000
  C   C295      1.0  0.79724  0.13411  0.10030  1.0000
  C   C296      1.0  0.90633  0.20450  0.03437  1.0000
  C   C297      1.0  0.74376  0.13840  0.05171  1.0000
  S   S91       1.0  0.78019  0.43484  0.42571  1.0000
  H   H299      1.0  0.80648  0.22905  0.35298  1.0000
  C   C298      1.0  0.69166  0.34890  0.36648  1.0000
  H   H300      1.0  0.50906  0.34745  0.06621  1.0000
  S   S92       1.0  0.66787  0.36369  0.40614  1.0000
  H   H301      1.0  0.49714  0.28969  0.08572  1.0000
  H   H302      1.0  0.66419  0.19959  0.13485  1.0000
  Fe  Fe43      1.0  0.88620  0.13004  0.15706  1.0000
  C   C299      1.0  0.86372  0.28499  0.23550  1.0000
  H   H303      1.0  0.77982  0.13334  0.24008  1.0000
  H   H304      1.0  0.66303  0.43960  0.10096  1.0000
  Fe  Fe44      1.0  0.68829  0.44187  0.17450  1.0000
  Fe  Fe45      1.0  0.91083  0.19068  0.45995  1.0000
  H   H305      1.0  0.65737  0.21866  0.04705  1.0000
  H   H306      1.0  0.64800  0.22505  0.27970  1.0000
  H   H307      1.0  0.70380  0.27964  0.45311  1.0000
  C   C300      1.0  0.44995  0.35539  0.49876  1.0000
  H   H308      1.0  0.72789  0.18833  0.17897  1.0000
  C   C301      1.0  0.94179  0.39109  0.35500  1.0000
  H   H309      1.0  0.87083  0.45721  0.14312  1.0000
  S   S93       1.0  0.73991  0.30900  0.26030  1.0000
  C   C302      1.0  0.48048  0.33862  0.24481  1.0000
  H   H310      1.0  0.50553  0.16430  0.36837  1.0000
  C   C303      1.0  0.75403  0.15057  0.08480  1.0000
  C   C304      1.0  0.58743  0.44802  0.32673  1.0000
  H   H311      1.0  0.71062  0.42011  0.35061  1.0000
  C   C305      1.0  0.52746  0.19044  0.37890  1.0000
  C   C306      1.0  0.59503  0.32454  0.09016  1.0000
  C   C307      1.0  0.80460  0.25157  0.37445  1.0000
  C   C308      1.0  0.50571  0.35142  0.18564  1.0000
  C   C309      1.0  0.51304  0.15534  0.08387  1.0000
  H   H312      1.0  0.85517  0.30064  0.35288  1.0000
  H   H313      1.0  0.92620  0.20194  0.05811  1.0000
  Fe  Fe46      1.0  0.74365  0.37216  0.22288  1.0000
  C   C310      1.0  0.69143  0.30177  0.35745  1.0000
  Fe  Fe47      1.0  0.76832  0.44932  0.48065  1.0000
  C   C311      1.0  0.51769  0.30859  0.06510  1.0000
  N   N29       1.0  0.91929  0.30268  0.17723  1.0000
  H   H314      1.0  0.73080  0.22026  0.45986  1.0000
  H   H315      1.0  0.70804  0.25286  0.31855  1.0000
  C   C312      1.0  0.73947  0.35362  0.04140  1.0000
  H   H316      1.0  0.56600  0.22428  0.45411  1.0000
  Fe  Fe48      1.0  0.66922  0.13237  0.47084  1.0000
  C   C313      1.0  0.91049  0.35675  0.48213  1.0000
  C   C314      1.0  0.68342  0.21979  0.21784  1.0000
  C   C315      1.0  0.50786  0.12891  0.01622  1.0000
  H   H317      1.0  0.57984  0.36801  0.17778  1.0000
  C   C316      1.0  0.62830  0.25035  0.26129  1.0000
  C   C317      1.0  0.74053  0.12658  0.32256  1.0000
  C   C318      1.0  0.60717  0.43642  0.06331  1.0000
  C   C319      1.0  0.58086  0.38406  0.49373  1.0000
  S   S94       1.0  0.76355  0.13057  0.36351  1.0000
  C   C320      1.0  0.47426  0.31153  0.49433  1.0000
  H   H318      1.0  0.60421  0.42656  0.34773  1.0000
  C   C321      1.0  0.50828  0.15805  0.43686  1.0000
  H   H319      1.0  0.72945  0.17418  0.09790  1.0000
  C   C322      1.0  0.61326  0.23400  0.16812  1.0000
  N   N30       1.0  0.77189  0.26889  0.42947  1.0000
  C   C323      1.0  0.81645  0.31838  0.02456  1.0000
  C   C324      1.0  0.93671  0.40162  0.31995  1.0000
  C   C325      1.0  0.76733  0.32720  0.01869  1.0000
  H   H320      1.0  0.46912  0.24187  0.25699  1.0000
  H   H321      1.0  0.91688  0.34295  0.45647  1.0000
  C   C326      1.0  0.54955  0.22360  0.35667  1.0000
  H   H322      1.0  0.47129  0.21813  0.06626  1.0000
  C   C327      1.0  0.55210  0.35961  0.19643  1.0000
  H   H323      1.0  0.48251  0.13709  0.42339  1.0000
  S   S95       1.0  0.89416  0.16890  0.40770  1.0000
  H   H324      1.0  0.73906  0.38884  0.08880  1.0000
  H   H325      1.0  0.84239  0.27777  0.25838  1.0000
  C   C328      1.0  0.69331  0.20566  0.18486  1.0000
  H   H326      1.0  0.54444  0.22355  0.32931  1.0000
  H   H327      1.0  0.63926  0.28690  0.26521  1.0000
  C   C329      1.0  0.60444  0.24702  0.20149  1.0000
  C   C330      1.0  0.92774  0.32562  0.20611  1.0000
  C   C331      1.0  0.66708  0.27661  0.07914  1.0000
  C   C332      1.0  0.83193  0.29164  0.37445  1.0000
  C   C333      1.0  0.82929  0.31994  0.40238  1.0000
  Fe  Fe49      1.0  0.78521  0.40035  0.15373  1.0000
  H   H328      1.0  0.48735  0.17786  0.45623  1.0000
  H   H329      1.0  0.57765  0.35438  0.10239  1.0000
  C   C334      1.0  0.48715  0.17242  0.02550  1.0000
  C   C335      1.0  0.59084  0.25900  0.05543  1.0000
  S   S96       1.0  0.50104  0.38011  0.38330  1.0000
  H   H330      1.0  0.58936  0.24854  0.26728  1.0000
  C   C336      1.0  0.55780  0.44317  0.05668  1.0000
  C   C337      1.0  0.80949  0.35844  0.07725  1.0000
  H   H331      1.0  0.73944  0.39839  0.29327  1.0000
  C   C338      1.0  0.83745  0.33369  0.05385  1.0000
  N   N31       1.0  0.56921  0.29749  0.06997  1.0000
  H   H332      1.0  0.59952  0.36034  0.23927  1.0000
  S   S97       1.0  0.70880  0.44445  0.22936  1.0000
  H   H333      1.0  0.56924  0.26228  0.20785  1.0000
  H   H334      1.0  0.45282  0.33028  0.26345  1.0000
  H   H335      1.0  0.70164  0.36134  0.03653  1.0000
  S   S98       1.0  0.81473  0.39951  0.20649  1.0000
  C   C339      1.0  0.79874  0.30809  0.42977  1.0000
  C   C340      1.0  0.77014  0.13715  0.29439  1.0000
  S   S99       1.0  0.83706  0.37645  0.11375  1.0000
  H   H336      1.0  0.75339  0.26723  0.48237  1.0000
  N   N32       1.0  0.53287  0.19149  0.41347  1.0000
  H   H337      1.0  0.90597  0.38966  0.30686  1.0000
  C   C341      1.0  0.72568  0.37152  0.31100  1.0000
  Fe  Fe50      1.0  0.70023  0.42810  0.42496  1.0000
  H   H338      1.0  0.80530  0.15068  0.29807  1.0000
  H   H339      1.0  0.83351  0.12975  0.50372  1.0000
  H   H340      1.0  0.87464  0.25542  0.15321  1.0000
  H   H341      1.0  0.58522  0.23948  0.14905  1.0000
  H   H342      1.0  0.67896  0.27450  0.37550  1.0000
  C   C342      1.0  0.70980  0.38370  0.34356  1.0000
  S   S100      1.0  0.49449  0.35120  0.14185  1.0000
  H   H343      1.0  0.75271  0.21011  0.40187  1.0000
  C   C343      1.0  0.58365  0.25762  0.40525  1.0000
  C   C344      1.0  0.73821  0.25858  0.45756  1.0000
  C   C345      1.0  0.75581  0.12723  0.26163  1.0000
  C   C346      1.0  0.76051  0.36890  0.07097  1.0000
  H   H344      1.0  0.71122  0.21460  0.23707  1.0000
  H   H345      1.0  0.53517  0.13280  0.44973  1.0000
  S   S101      1.0  0.81306  0.15661  0.13898  1.0000
  S   S102      1.0  0.54314  0.33417  0.29839  1.0000
  C   C347      1.0  0.57726  0.25774  0.37006  1.0000
  C   C348      1.0  0.56159  0.22363  0.42668  1.0000
  S   S103      1.0  0.51700  0.17444  0.12535  1.0000
  H   H346      1.0  0.91777  0.39515  0.48112  1.0000
  S   S104      1.0  0.47406  0.28437  0.45545  1.0000
  C   C349      1.0  0.46985  0.34117  0.20984  1.0000
  H   H347      1.0  0.83718  0.20209  0.05898  1.0000
  C   C350      1.0  0.56315  0.35544  0.23124  1.0000
  H   H348      1.0  0.87547  0.32623  0.05838  1.0000
  Fe  Fe51      1.0  0.48217  0.34824  0.33473  1.0000
  C   C351      1.0  0.65765  0.21213  0.16006  1.0000
  H   H349      1.0  0.60326  0.35200  0.49053  1.0000
  H   H350      1.0  0.62564  0.41038  0.28789  1.0000
  C   C352      1.0  0.85408  0.26316  0.20553  1.0000
  C   C353      1.0  0.64016  0.24831  0.05945  1.0000
  H   H351      1.0  0.60486  0.28416  0.41599  1.0000
  S   S105      1.0  0.64416  0.13266  0.41700  1.0000
  N   N33       1.0  0.63887  0.23857  0.22606  1.0000
  H   H352      1.0  0.66468  0.33722  0.11013  1.0000
  H   H353      1.0  0.82510  0.23894  0.20490  1.0000
  C   C354      1.0  0.88232  0.27258  0.17639  1.0000
  C   C355      1.0  0.48917  0.18526  0.05921  1.0000
  H   H354      1.0  0.79666  0.33023  0.45136  1.0000
  H   H355      1.0  0.74530  0.35395  0.50223  1.0000
  H   H356      1.0  0.85058  0.35094  0.40279  1.0000
  C   C356      1.0  0.85638  0.20388  0.03487  1.0000
  H   H357      1.0  0.59354  0.28449  0.35325  1.0000
  H   H358      1.0  0.50557  0.29826  0.03988  1.0000
  H   H359      1.0  0.90813  0.33431  0.25880  1.0000
  S   S106      1.0  0.56578  0.13804  0.21488  1.0000
  H   H360      1.0  0.63137  0.42378  0.04380  1.0000
  C   C357      1.0  0.62505  0.44513  0.09569  1.0000
  H   H361      1.0  0.93707  0.34555  0.13301  1.0000
  C   C358      1.0  0.59964  0.43907  0.29307  1.0000
  C   C359      1.0  0.56289  0.41014  0.46471  1.0000
  Fe  Fe52      1.0  0.45178  0.32848  0.40855  1.0000
  S   S107      1.0  0.64831  0.19548  0.50035  1.0000
  C   C360      1.0  0.53477  0.45190  0.46849  1.0000
  S   S108      1.0  0.68987  0.43607  0.48079  1.0000
  H   H362      1.0  0.57140  0.39827  0.43948  1.0000
  H   H363      1.0  0.46842  0.19603  0.00690  1.0000
  C   C361      1.0  0.92505  0.32258  0.54028  1.0000
  C   C362      1.0  0.87431  0.21054  0.60561  1.0000
  C   C363      1.0  0.93047  0.20998  0.00320  1.0000
  C   C364      1.0  0.58531  0.20203  0.71670  1.0000
  H   H364      1.0  0.87812  0.29231  0.79503  1.0000
  S   S109      1.0  0.87378  0.19817  0.64971  1.0000
  C   C365      1.0  0.59596  0.20730  0.55858  1.0000
  H   H365      1.0  0.70984  0.21469  0.55921  1.0000
  C   C366      1.0  0.62705  0.14792  0.93585  1.0000
  C   C367      1.0  0.74690  0.35083  0.52975  1.0000
  H   H366      1.0  0.85205  0.21123  0.91921  1.0000
  C   C368      1.0  0.51420  0.25546  0.83620  1.0000
  H   H367      1.0  0.48422  0.14897  0.59228  1.0000
  S   S110      1.0  0.93855  0.36836  0.99811  1.0000
  H   H368      1.0  0.84241  0.41081  0.93723  1.0000
  H   H369      1.0  0.78989  0.18241  0.69161  1.0000
  H   H370      1.0  0.55704  0.16227  0.88788  1.0000
  C   C369      1.0  0.48670  0.19434  0.71254  1.0000
  H   H371      1.0  0.80327  0.20571  0.79783  1.0000
  C   C370      1.0  0.71470  0.13787  0.84355  1.0000
  H   H372      1.0  0.58821  0.24328  0.54834  1.0000
  Fe  Fe53      1.0  0.58623  0.34001  0.71140  1.0000
  H   H373      1.0  0.44746  0.25304  0.66481  1.0000
  H   H374      1.0  0.65582  0.23370  0.87700  1.0000
  C   C371      1.0  0.71745  0.31744  0.58391  1.0000
  C   C372      1.0  0.73681  0.18730  0.56718  1.0000
  S   S111      1.0  0.67398  0.28643  0.60736  1.0000
  H   H375      1.0  0.60628  0.12770  0.86920  1.0000
  C   C373      1.0  0.65651  0.21189  0.90078  1.0000
  S   S112      1.0  0.74150  0.30308  0.98362  1.0000
  H   H376      1.0  0.59370  0.33981  0.84880  1.0000
  N   N34       1.0  0.80060  0.13120  0.55307  1.0000
  H   H377      1.0  0.92606  0.23890  0.75805  1.0000
  C   C374      1.0  0.53306  0.29851  0.78280  1.0000
  Fe  Fe54      1.0  0.63987  0.42346  0.91384  1.0000
  H   H378      1.0  0.48260  0.24303  0.78800  1.0000
  H   H379      1.0  0.64279  0.40177  0.84243  1.0000
  S   S113      1.0  0.81382  0.41874  0.52425  1.0000
  H   H380      1.0  0.81083  0.25297  0.93858  1.0000
  H   H381      1.0  0.78499  0.23693  0.73884  1.0000
  C   C375      1.0  0.49654  0.30596  0.55408  1.0000
  C   C376      1.0  0.87708  0.29817  0.76741  1.0000
  C   C377      1.0  0.49791  0.28722  0.52188  1.0000
  C   C378      1.0  0.55961  0.22166  0.68829  1.0000
  C   C379      1.0  0.57003  0.31844  0.83540  1.0000
  H   H382      1.0  0.53551  0.45193  0.55493  1.0000
  C   C380      1.0  0.84934  0.33620  0.75240  1.0000
  H   H383      1.0  0.49172  0.25687  0.95908  1.0000
  H   H384      1.0  0.92286  0.22241  0.94896  1.0000
  H   H385      1.0  0.82816  0.35980  0.76810  1.0000
  C   C381      1.0  0.62630  0.17670  0.54064  1.0000
  H   H386      1.0  0.45309  0.44233  0.71597  1.0000
  H   H387      1.0  0.55223  0.21526  0.60348  1.0000
  H   H388      1.0  0.89716  0.35904  0.65341  1.0000
  N   N35       1.0  0.85537  0.21184  0.97357  1.0000
  N   N36       1.0  0.87725  0.31582  0.69685  1.0000
  H   H389      1.0  0.48537  0.40696  0.77099  1.0000
  C   C382      1.0  0.93466  0.35482  0.85987  1.0000
  C   C383      1.0  0.82817  0.21661  0.94169  1.0000
  C   C384      1.0  0.75208  0.34115  0.60091  1.0000
  C   C385      1.0  0.63936  0.13140  0.55514  1.0000
  H   H390      1.0  0.71410  0.20140  0.97698  1.0000
  C   C386      1.0  0.86551  0.22333  0.53467  1.0000
  H   H391      1.0  0.80044  0.18961  0.94194  1.0000
  H   H392      1.0  0.89627  0.29697  0.64632  1.0000
  C   C387      1.0  0.54425  0.28379  0.85356  1.0000
  H   H393      1.0  0.84041  0.33047  0.64994  1.0000
  H   H394      1.0  0.92692  0.25591  0.69548  1.0000
  S   S114      1.0  0.66413  0.34757  0.90770  1.0000
  C   C388      1.0  0.84816  0.36910  0.86020  1.0000
  H   H395      1.0  0.79251  0.20636  0.00460  1.0000
  H   H396      1.0  0.59559  0.18935  0.85609  1.0000
  C   C389      1.0  0.58770  0.14562  0.60382  1.0000
  N   N37       1.0  0.62657  0.17500  0.90569  1.0000
  C   C390      1.0  0.90447  0.27823  0.71130  1.0000
  S   S115      1.0  0.66095  0.30675  0.70631  1.0000
  H   H397      1.0  0.80979  0.38929  0.59565  1.0000
  C   C391      1.0  0.79549  0.19963  0.74401  1.0000
  H   H398      1.0  0.80545  0.27103  0.54500  1.0000
  H   H399      1.0  0.49210  0.15513  0.76162  1.0000
  C   C392      1.0  0.83437  0.24836  0.55593  1.0000
  C   C393      1.0  0.48979  0.45420  0.71028  1.0000
  S   S116      1.0  0.46771  0.36947  0.60027  1.0000
  N   N38       1.0  0.57101  0.39911  0.52564  1.0000
  C   C394      1.0  0.79791  0.16889  0.71751  1.0000
  H   H400      1.0  0.82948  0.37539  0.70570  1.0000
  S   S117      1.0  0.89907  0.43705  0.77509  1.0000
  H   H401      1.0  0.62391  0.20509  0.71812  1.0000
  C   C395      1.0  0.89600  0.40273  0.81359  1.0000
  C   C396      1.0  0.90297  0.19371  0.54883  1.0000
  C   C397      1.0  0.59475  0.16301  0.87832  1.0000
  H   H402      1.0  0.51078  0.42572  0.69766  1.0000
  S   S118      1.0  0.52318  0.30883  0.73898  1.0000
  H   H403      1.0  0.59543  0.33415  0.55239  1.0000
  S   S119      1.0  0.93602  0.12967  0.72303  1.0000
  C   C398      1.0  0.59309  0.37309  0.55549  1.0000
  N   N39       1.0  0.51073  0.21871  0.68695  1.0000
  H   H404      1.0  0.71223  0.25112  0.92252  1.0000
  C   C399      1.0  0.80583  0.18171  0.77732  1.0000
  Fe  Fe55      1.0  0.58835  0.33179  0.92180  1.0000
  C   C400      1.0  0.78369  0.37029  0.58239  1.0000
  H   H405      1.0  0.81904  0.41350  0.81794  1.0000
  C   C401      1.0  0.54327  0.43991  0.52962  1.0000
  C   C402      1.0  0.74421  0.17572  0.60179  1.0000
  C   C403      1.0  0.48403  0.23980  0.65725  1.0000
  C   C404      1.0  0.83871  0.24200  0.59134  1.0000
  H   H406      1.0  0.58041  0.16394  0.76580  1.0000
  S   S120      1.0  0.68198  0.40204  0.65492  1.0000
  C   C405      1.0  0.90416  0.21520  0.97294  1.0000
  H   H407      1.0  0.92760  0.17480  0.53250  1.0000
  H   H408      1.0  0.81300  0.25973  0.60768  1.0000
  H   H409      1.0  0.62993  0.38507  0.55914  1.0000
  Fe  Fe56      1.0  0.68436  0.38118  0.71073  1.0000
  N   N40       1.0  0.81775  0.13438  0.78401  1.0000
  C   C406      1.0  0.81632  0.43384  0.94978  1.0000
  S   S121      1.0  0.56241  0.40820  0.92308  1.0000
  Fe  Fe57      1.0  0.93985  0.15746  0.66861  1.0000
  S   S122      1.0  0.60189  0.32193  0.97797  1.0000
  C   C407      1.0  0.56521  0.32519  0.79982  1.0000
  C   C408      1.0  0.47082  0.34878  0.55902  1.0000
  H   H410      1.0  0.93536  0.16329  0.59549  1.0000
  C   C409      1.0  0.68672  0.40440  0.79692  1.0000
  C   C410      1.0  0.51135  0.17393  0.74116  1.0000
  C   C411      1.0  0.76473  0.16386  0.54297  1.0000
  S   S123      1.0  0.61101  0.41174  0.72128  1.0000
  S   S124      1.0  0.57565  0.35673  0.65548  1.0000
  H   H411      1.0  0.81357  0.36431  0.87240  1.0000
  C   C412      1.0  0.85131  0.39685  0.82950  1.0000
  H   H412      1.0  0.50296  0.15926  0.53163  1.0000
  C   C413      1.0  0.56084  0.17868  0.74347  1.0000
  C   C414      1.0  0.57590  0.19150  0.58987  1.0000
  C   C415      1.0  0.71572  0.32116  0.54825  1.0000
  S   S125      1.0  0.68918  0.14912  0.77637  1.0000
  S   S126      1.0  0.74439  0.40788  0.73991  1.0000
  Fe  Fe58      1.0  0.67579  0.34429  0.96412  1.0000
  H   H413      1.0  0.81867  0.14184  0.83804  1.0000
  H   H414      1.0  0.44816  0.19101  0.71105  1.0000
  H   H415      1.0  0.58544  0.35178  0.78575  1.0000
  C   C416      1.0  0.68830  0.22207  0.92640  1.0000
  C   C417      1.0  0.93762  0.38088  0.82836  1.0000
  H   H416      1.0  0.67432  0.37164  0.78803  1.0000
  H   H417      1.0  0.75858  0.17324  0.51614  1.0000
  C   C418      1.0  0.77994  0.37642  0.54688  1.0000
  H   H418      1.0  0.51595  0.25298  0.51846  1.0000
  H   H419      1.0  0.76821  0.43798  0.88373  1.0000
  C   C419      1.0  0.53264  0.44544  0.80062  1.0000
  C   C420      1.0  0.78037  0.14195  0.61185  1.0000
  H   H420      1.0  0.57895  0.23942  0.66742  1.0000
  H   H421      1.0  0.50235  0.27077  0.64505  1.0000
  C   C421      1.0  0.88996  0.34946  0.87591  1.0000
  C   C422      1.0  0.66911  0.42117  0.82779  1.0000
  C   C423      1.0  0.90436  0.26855  0.74672  1.0000
  C   C424      1.0  0.87768  0.32622  0.65979  1.0000
  H   H422      1.0  0.72255  0.19369  0.62068  1.0000
  C   C425      1.0  0.50841  0.43679  0.77075  1.0000
  C   C426      1.0  0.90739  0.18725  0.58447  1.0000
  H   H423      1.0  0.72792  0.17328  0.84034  1.0000
  C   C427      1.0  0.65854  0.15690  0.96188  1.0000
  H   H424      1.0  0.78739  0.13329  0.63865  1.0000
  S   S127      1.0  0.88636  0.32191  0.91686  1.0000
  H   H425      1.0  0.49593  0.22721  0.84998  1.0000
  S   S128      1.0  0.54846  0.27554  0.89799  1.0000
  H   H426      1.0  0.65994  0.13415  0.98522  1.0000
  H   H427      1.0  0.83915  0.40841  0.00030  1.0000
  Fe  Fe59      1.0  0.65236  0.33028  0.65092  1.0000
  H   H428      1.0  0.68935  0.30236  0.53501  1.0000
  C   C428      1.0  0.72128  0.42937  0.77806  1.0000
  C   C429      1.0  0.85020  0.34488  0.71695  1.0000
  H   H429      1.0  0.75433  0.33703  0.62842  1.0000
  H   H430      1.0  0.88978  0.33666  0.54779  1.0000
  C   C430      1.0  0.68923  0.19431  0.95709  1.0000
  S   S129      1.0  0.65878  0.42191  0.96935  1.0000
  H   H431      1.0  0.51422  0.28654  0.57542  1.0000
  H   H432      1.0  0.57158  0.37883  0.57903  1.0000
  C   C431      1.0  0.50736  0.26384  0.80105  1.0000
  H   H433      1.0  0.52757  0.42322  0.82381  1.0000
  H   H434      1.0  0.48045  0.21271  0.63826  1.0000
  Fe  Fe60      1.0  0.60608  0.42636  0.66486  1.0000
  Fe  Fe61      1.0  0.58339  0.40010  0.97835  1.0000
  C   C432      1.0  0.81448  0.43205  0.98546  1.0000
  H   H435      1.0  0.93954  0.28710  0.58982  1.0000
  H   H436      1.0  0.63577  0.45265  0.59673  1.0000
  S   S130      1.0  0.56147  0.12531  0.64230  1.0000
  H   H437      1.0  0.45887  0.31150  0.94646  1.0000
  C   C433      1.0  0.45523  0.27307  0.95346  1.0000
  C   C434      1.0  0.44806  0.37396  0.53123  1.0000
  H   H438      1.0  0.73715  0.12661  0.89612  1.0000
  C   C435      1.0  0.83136  0.20666  0.00402  1.0000
  N   N41       1.0  0.94141  0.33054  0.50755  1.0000
  H   H439      1.0  0.83872  0.30078  0.00600  1.0000
  C   C436      1.0  0.38045  0.54188  0.12618  1.0000
  H   H440      1.0  0.19452  0.59831  0.26840  1.0000
  C   C437      1.0  0.21891  0.74398  0.36341  1.0000
  C   C438      1.0  0.39828  0.57838  0.14409  1.0000
  S   S131      1.0  0.29808  0.61460  0.05492  1.0000
  Fe  Fe62      1.0  0.40753  0.73923  0.47707  1.0000
  H   H441      1.0  0.28399  0.53315  0.46942  1.0000
  H   H442      1.0  0.17529  0.64193  0.42462  1.0000
  C   C439      1.0  0.95211  0.57297  0.40381  1.0000
  C   C440      1.0  0.24995  0.50312  0.04886  1.0000
  C   C441      1.0  0.00684  0.51488  0.02849  1.0000
  S   S132      1.0  0.43081  0.56478  0.18135  1.0000
  H   H443      1.0  0.38708  0.47652  0.49976  1.0000
  C   C442      1.0  0.14524  0.58602  0.05076  1.0000
  H   H444      1.0  0.07243  0.74579  0.37866  1.0000
  H   H445      1.0  0.25400  0.57626  0.12683  1.0000
  C   C443      1.0  0.04035  0.54123  0.09137  1.0000
  C   C444      1.0  0.19691  0.72356  0.11965  1.0000
  C   C445      1.0  0.30511  0.73608  0.37159  1.0000
  S   S133      1.0  0.16417  0.76698  0.02274  1.0000
  H   H446      1.0  0.30518  0.48414  0.15700  1.0000
  H   H447      1.0  0.32481  0.58191  0.32890  1.0000
  H   H448      1.0  0.37641  0.75212  0.08850  1.0000
  C   C446      1.0  0.95601  0.70359  0.11109  1.0000
  S   S134      1.0  0.20747  0.49332  0.25586  1.0000
  S   S135      1.0  0.40196  0.60550  0.27108  1.0000
  S   S136      1.0  0.43815  0.50354  0.38009  1.0000
  Fe  Fe63      1.0  0.41657  0.62377  0.21588  1.0000
  H   H449      1.0  0.33442  0.52470  0.08547  1.0000
  S   S137      1.0  0.06388  0.55910  0.12940  1.0000
  H   H450      1.0  0.96725  0.74948  0.34539  1.0000
  C   C447      1.0  0.06791  0.60908  0.37396  1.0000
  H   H451      1.0  0.40185  0.65406  0.14697  1.0000
  H   H452      1.0  0.23483  0.56066  0.01176  1.0000
  H   H453      1.0  0.26616  0.60670  0.23215  1.0000
  C   C448      1.0  0.13131  0.57314  0.01869  1.0000
  H   H454      1.0  0.16950  0.65286  0.24763  1.0000
  C   C449      1.0  0.38734  0.62588  0.13349  1.0000
  H   H455      1.0  0.96207  0.76243  0.50328  1.0000
  H   H456      1.0  0.38532  0.74049  0.15144  1.0000
  C   C450      1.0  0.41929  0.56906  0.42683  1.0000
  C   C451      1.0  0.26542  0.46647  0.49450  1.0000
  C   C452      1.0  0.02896  0.57593  0.06536  1.0000
  C   C453      1.0  0.15862  0.74884  0.06596  1.0000
  H   H457      1.0  0.34790  0.67369  0.09773  1.0000
  H   H458      1.0  0.23380  0.71323  0.49104  1.0000
  C   C454      1.0  0.20580  0.48969  0.30041  1.0000
  C   C455      1.0  0.16686  0.59373  0.18665  1.0000
  H   H459      1.0  0.31584  0.78243  0.20352  1.0000
  H   H460      1.0  0.28305  0.48413  0.30433  1.0000
  H   H461      1.0  0.34166  0.54525  0.36668  1.0000
  H   H462      1.0  0.12842  0.49530  0.30464  1.0000
  S   S138      1.0  0.01059  0.75624  0.18547  1.0000
  Fe  Fe64      1.0  0.08172  0.77923  0.44899  1.0000
  N   N42       1.0  0.28836  0.59959  0.37500  1.0000
  H   H463      1.0  0.96672  0.60930  0.35536  1.0000
  C   C456      1.0  0.18933  0.64925  0.02337  1.0000
  Fe  Fe65      1.0  0.07645  0.50078  0.17006  1.0000
  H   H464      1.0  0.30481  0.59057  0.17667  1.0000
  H   H465      1.0  0.08118  0.75531  0.06702  1.0000
  C   C457      1.0  0.39646  0.50233  0.47957  1.0000
  H   H466      1.0  0.98875  0.69771  0.12568  1.0000
  C   C458      1.0  0.19699  0.72935  0.48770  1.0000
  H   H467      1.0  0.18601  0.63451  0.07785  1.0000
  H   H468      1.0  0.28289  0.48233  0.36741  1.0000
  H   H469      1.0  0.34436  0.69296  0.33647  1.0000
  H   H470      1.0  0.38945  0.50507  0.13416  1.0000
  C   C459      1.0  0.24650  0.52382  0.01572  1.0000
  C   C460      1.0  0.40355  0.58415  0.45850  1.0000
  Fe  Fe66      1.0  0.13933  0.47316  0.44136  1.0000
  C   C461      1.0  0.24924  0.48579  0.31813  1.0000
  C   C462      1.0  0.06073  0.68822  0.34637  1.0000
  S   S139      1.0  0.95807  0.70765  0.25456  1.0000
  S   S140      1.0  0.08959  0.70027  0.44614  1.0000
  H   H471      1.0  0.07527  0.73174  0.12896  1.0000
  C   C463      1.0  0.94972  0.56014  0.16283  1.0000
  Fe  Fe67      1.0  0.13917  0.47530  0.23162  1.0000
  Fe  Fe68      1.0  0.00374  0.76899  0.24098  1.0000
  S   S141      1.0  0.39987  0.72112  0.28017  1.0000
  C   C464      1.0  0.41215  0.48720  0.44767  1.0000
  C   C465      1.0  0.07119  0.70770  0.37734  1.0000
  H   H472      1.0  0.19152  0.70632  0.32219  1.0000
  H   H473      1.0  0.42811  0.59504  0.40656  1.0000
  S   S142      1.0  0.03614  0.64401  0.21042  1.0000
  S   S143      1.0  0.04397  0.61351  0.30697  1.0000
  H   H474      1.0  0.33678  0.74404  0.38548  1.0000
  S   S144      1.0  0.40313  0.69372  0.02858  1.0000
  C   C466      1.0  0.18768  0.58442  0.15504  1.0000
  Fe  Fe69      1.0  0.07568  0.71060  0.20117  1.0000
  Fe  Fe70      1.0  0.32726  0.67396  0.02234  1.0000
  C   C467      1.0  0.30379  0.46533  0.18193  1.0000
  C   C468      1.0  0.26601  0.59109  0.17928  1.0000
  S   S145      1.0  0.27373  0.66503  0.28887  1.0000
  H   H475      1.0  0.06678  0.57093  0.37267  1.0000
  H   H476      1.0  0.25646  0.64506  0.45011  1.0000
  C   C469      1.0  0.28694  0.78647  0.22199  1.0000
  H   H477      1.0  0.13442  0.56574  0.07366  1.0000
  H   H478      1.0  0.18291  0.71949  0.46292  1.0000
  H   H479      1.0  0.12803  0.59613  0.18884  1.0000
  H   H480      1.0  0.05306  0.71138  0.32407  1.0000
  C   C470      1.0  0.38939  0.78024  0.10283  1.0000
  C   C471      1.0  0.24919  0.48490  0.35377  1.0000
  C   C472      1.0  0.20260  0.61284  0.37848  1.0000
  C   C473      1.0  0.24384  0.59759  0.36089  1.0000
  C   C474      1.0  0.22327  0.71519  0.33564  1.0000
  C   C475      1.0  0.35732  0.63697  0.10548  1.0000
  Fe  Fe71      1.0  0.41269  0.72918  0.22388  1.0000
  C   C476      1.0  0.95606  0.72532  0.39773  1.0000
  H   H481      1.0  0.36199  0.60486  0.36025  1.0000
  C   C477      1.0  0.29302  0.61622  0.40672  1.0000
  C   C478      1.0  0.33450  0.47608  0.20789  1.0000
  C   C479      1.0  0.17260  0.61359  0.24649  1.0000
  H   H482      1.0  0.40066  0.62173  0.46252  1.0000
  S   S146      1.0  0.06272  0.49962  0.43314  1.0000
  H   H483      1.0  0.08322  0.60525  0.42775  1.0000
  H   H484      1.0  0.99205  0.73077  0.06546  1.0000
  C   C480      1.0  0.25990  0.75495  0.38103  1.0000
  C   C481      1.0  0.26869  0.69835  0.32500  1.0000
  H   H485      1.0  0.13630  0.59914  0.24972  1.0000
  N   N43       1.0  0.19496  0.60129  0.21398  1.0000
  H   H486      1.0  0.32824  0.61804  0.41779  1.0000
  H   H487      1.0  0.96835  0.59907  0.41859  1.0000
  H   H488      1.0  0.23997  0.58462  0.33570  1.0000
  C   C482      1.0  0.34941  0.55297  0.09868  1.0000
  C   C483      1.0  0.24396  0.60029  0.21057  1.0000
  H   H489      1.0  0.18375  0.75762  0.37133  1.0000
  C   C484      1.0  0.25250  0.63173  0.42508  1.0000
  H   H490      1.0  0.12842  0.49482  0.36801  1.0000
  C   C485      1.0  0.20703  0.63000  0.41078  1.0000
  C   C486      1.0  0.11341  0.74629  0.08166  1.0000
  H   H491      1.0  0.03387  0.61308  0.06923  1.0000
  C   C487      1.0  0.16208  0.49134  0.35417  1.0000
  H   H492      1.0  0.16618  0.78025  0.22937  1.0000
  H   H493      1.0  0.44117  0.48651  0.02538  1.0000
  S   S147      1.0  0.35647  0.67969  0.21040  1.0000
  C   C488      1.0  0.01303  0.56269  0.03385  1.0000
  C   C489      1.0  0.17414  0.62451  0.05319  1.0000
  C   C490      1.0  0.33782  0.60053  0.08843  1.0000
  C   C491      1.0  0.05931  0.63888  0.34468  1.0000
  H   H494      1.0  0.16755  0.61111  0.36703  1.0000
  C   C492      1.0  0.30949  0.70790  0.34344  1.0000
  C   C493      1.0  0.03465  0.49321  0.08606  1.0000
  H   H495      1.0  0.97174  0.58937  0.16810  1.0000
  H   H496      1.0  0.16501  0.57891  0.13355  1.0000
  S   S148      1.0  0.29705  0.74884  0.01550  1.0000
  C   C494      1.0  0.07728  0.62846  0.40499  1.0000
  H   H497      1.0  0.22927  0.71444  0.13417  1.0000
  S   S149      1.0  0.06971  0.51841  0.22486  1.0000
  C   C495      1.0  0.39114  0.55098  0.48464  1.0000
  C   C496      1.0  0.11008  0.73324  0.11670  1.0000
  C   C497      1.0  0.16209  0.49177  0.31835  1.0000
  C   C498      1.0  0.23756  0.58308  0.15135  1.0000
  S   S150      1.0  0.20724  0.49506  0.41571  1.0000
  H   H498      1.0  0.97434  0.69095  0.39496  1.0000
  H   H499      1.0  0.23944  0.52389  0.07024  1.0000
  S   S151      1.0  0.14982  0.70956  0.17961  1.0000
  H   H500      1.0  0.42900  0.73259  0.40294  1.0000
  Fe  Fe72      1.0  0.37394  0.76808  0.01634  1.0000
  C   C499      1.0  0.01745  0.48004  0.05466  1.0000
  H   H501      1.0  0.35989  0.50365  0.20342  1.0000
  H   H502      1.0  0.15464  0.64695  0.49528  1.0000
  C   C500      1.0  0.20575  0.48889  0.37174  1.0000
  H   H503      1.0  0.10956  0.54271  0.01653  1.0000
  C   C501      1.0  0.07884  0.67769  0.40670  1.0000
  Fe  Fe73      1.0  0.34809  0.66706  0.26693  1.0000
  C   C502      1.0  0.42262  0.52071  0.42108  1.0000
  Fe  Fe74      1.0  0.02852  0.66715  0.26374  1.0000
  Fe  Fe75      1.0  0.05868  0.49889  0.49017  1.0000
  H   H504      1.0  0.21387  0.67751  0.02541  1.0000
  C   C503      1.0  0.33125  0.58202  0.35678  1.0000
  C   C504      1.0  0.15200  0.72272  0.13568  1.0000
  S   S152      1.0  0.07324  0.73040  0.25524  1.0000
  S   S153      1.0  0.33723  0.70620  0.46936  1.0000
  C   C505      1.0  0.20019  0.73661  0.08488  1.0000
  C   C506      1.0  0.95790  0.72208  0.07699  1.0000
  Fe  Fe76      1.0  0.97023  0.69129  0.19987  1.0000
  H   H505      1.0  0.97509  0.53796  0.30460  1.0000
  H   H506      1.0  0.19863  0.76862  0.48582  1.0000
  H   H507      1.0  0.23175  0.76775  0.18787  1.0000
  S   S154      1.0  0.13698  0.48027  0.49772  1.0000
  H   H508      1.0  0.23511  0.73681  0.07277  1.0000
  C   C507      1.0  0.39425  0.77376  0.13845  1.0000
  H   H509      1.0  0.38399  0.51731  0.03071  1.0000
  C   C508      1.0  0.95159  0.57832  0.36810  1.0000
  C   C509      1.0  0.20278  0.78530  0.23692  1.0000
  C   C510      1.0  0.26907  0.51567  0.49227  1.0000
  C   C511      1.0  0.23989  0.77819  0.21321  1.0000
  Fe  Fe77      1.0  0.31082  0.78040  0.45372  1.0000
  H   H510      1.0  0.44238  0.70629  0.34442  1.0000
  C   C512      1.0  0.95201  0.75864  0.36981  1.0000
  H   H511      1.0  0.15011  0.77873  0.29615  1.0000
  H   H512      1.0  0.04377  0.46623  0.10596  1.0000
  S   S155      1.0  0.14912  0.46445  0.17604  1.0000
  C   C513      1.0  0.40449  0.49222  0.01450  1.0000
  H   H513      1.0  0.00717  0.58954  0.01335  1.0000
  H   H514      1.0  0.95087  0.52964  0.21463  1.0000
  H   H515      1.0  0.03902  0.46079  0.30472  1.0000
  H   H516      1.0  0.35576  0.45963  0.26013  1.0000
  H   H517      1.0  0.26107  0.67752  0.88225  1.0000
  H   H518      1.0  0.05056  0.47063  0.62359  1.0000
  S   S156      1.0  0.25322  0.52640  0.94698  1.0000
  H   H519      1.0  0.23594  0.58209  0.57706  1.0000
  C   C514      1.0  0.04266  0.50634  0.90025  1.0000
  H   H520      1.0  0.17328  0.77584  0.54321  1.0000
  S   S157      1.0  0.10020  0.75787  0.68100  1.0000
  N   N44       1.0  0.16633  0.71326  0.51627  1.0000
  Fe  Fe78      1.0  0.31957  0.72690  0.52236  1.0000
  H   H521      1.0  0.03528  0.70502  0.86649  1.0000
  H   H522      1.0  0.14583  0.61566  0.68297  1.0000
  H   H523      1.0  0.16645  0.66277  0.94012  1.0000
  C   C515      1.0  0.29608  0.59639  0.73640  1.0000
  H   H524      1.0  0.34219  0.55454  0.98275  1.0000
  C   C516      1.0  0.20965  0.47185  0.75308  1.0000
  H   H525      1.0  0.02518  0.62125  0.62762  1.0000
  H   H526      1.0  0.99216  0.60343  0.71438  1.0000
  H   H527      1.0  0.97104  0.61868  0.89786  1.0000
  S   S158      1.0  0.28630  0.72328  0.71069  1.0000
  C   C517      1.0  0.37129  0.54247  0.96628  1.0000
  H   H528      1.0  0.03936  0.47821  0.56061  1.0000
  H   H529      1.0  0.43624  0.64055  0.51910  1.0000
  Fe  Fe79      1.0  0.09601  0.76125  0.99427  1.0000
  H   H530      1.0  0.02786  0.78506  0.87117  1.0000
  S   S159      1.0  0.98875  0.75148  0.93451  1.0000
  N   N45       1.0  0.08951  0.49125  0.89492  1.0000
  S   S160      1.0  0.12997  0.67626  0.76294  1.0000
  C   C518      1.0  0.21070  0.58653  0.74103  1.0000
  H   H531      1.0  0.33035  0.60258  0.74785  1.0000
  C   C519      1.0  0.14637  0.59936  0.98943  1.0000
  H   H532      1.0  0.30769  0.45811  0.70138  1.0000
  N   N46       1.0  0.17471  0.63713  0.99209  1.0000
  C   C520      1.0  0.06334  0.68344  0.85495  1.0000
  C   C521      1.0  0.21651  0.54861  0.57626  1.0000
  S   S161      1.0  0.33380  0.66346  0.96661  1.0000
  C   C522      1.0  0.25804  0.46898  0.74300  1.0000
  C   C523      1.0  0.44470  0.51169  0.92349  1.0000
  Fe  Fe80      1.0  0.40769  0.68935  0.97206  1.0000
  C   C524      1.0  0.39237  0.50245  0.76582  1.0000
  S   S162      1.0  0.27260  0.68053  0.55573  1.0000
  C   C525      1.0  0.23065  0.47180  0.55084  1.0000
  H   H533      1.0  0.99442  0.47521  0.82602  1.0000
  C   C526      1.0  0.40915  0.54437  0.91065  1.0000
  H   H534      1.0  0.10216  0.61910  0.54238  1.0000
  C   C527      1.0  0.18627  0.45882  0.69513  1.0000
  H   H535      1.0  0.25747  0.58030  0.51796  1.0000
  S   S163      1.0  0.04549  0.54144  0.67374  1.0000
  S   S164      1.0  0.29385  0.52138  0.85349  1.0000
  C   C528      1.0  0.28360  0.71089  0.66774  1.0000
  H   H536      1.0  0.23682  0.63668  0.85380  1.0000
  H   H537      1.0  0.22161  0.52877  0.60144  1.0000
  C   C529      1.0  0.10312  0.47255  0.86479  1.0000
  C   C530      1.0  0.39289  0.52076  0.73169  1.0000
  C   C531      1.0  0.17350  0.78387  0.80442  1.0000
  C   C532      1.0  0.32739  0.78416  0.87909  1.0000
  C   C533      1.0  0.00770  0.50085  0.87560  1.0000
  S   S165      1.0  0.06959  0.63313  0.91692  1.0000
  H   H538      1.0  0.19929  0.69985  0.96590  1.0000
  C   C534      1.0  0.25469  0.59297  0.75654  1.0000
  C   C535      1.0  0.18983  0.73120  0.85416  1.0000
  C   C536      1.0  0.27771  0.69147  0.59886  1.0000
  H   H539      1.0  0.97127  0.59786  0.95982  1.0000
  H   H540      1.0  0.43302  0.66960  0.64333  1.0000
  H   H541      1.0  0.03179  0.52154  0.92401  1.0000
  S   S166      1.0  0.44421  0.50958  0.59389  1.0000
  H   H542      1.0  0.05901  0.72243  0.80584  1.0000
  H   H543      1.0  0.13645  0.47000  0.73654  1.0000
  C   C537      1.0  0.23995  0.68051  0.62131  1.0000
  C   C538      1.0  0.37184  0.55935  0.93198  1.0000
  H   H544      1.0  0.11947  0.74954  0.59087  1.0000
  C   C539      1.0  0.99225  0.59825  0.80084  1.0000
  S   S167      1.0  0.02014  0.56010  0.51426  1.0000
  C   C540      1.0  0.12069  0.61605  0.85884  1.0000
  C   C541      1.0  0.12781  0.72665  0.57018  1.0000
  C   C542      1.0  0.42281  0.52016  0.78962  1.0000
  H   H545      1.0  0.16380  0.55774  0.66794  1.0000
  H   H546      1.0  0.34331  0.58366  0.92197  1.0000
  S   S168      1.0  0.10548  0.75905  0.93772  1.0000
  H   H547      1.0  0.37016  0.50657  0.71320  1.0000
  C   C543      1.0  0.24872  0.58484  0.68673  1.0000
  H   H548      1.0  0.16198  0.60358  0.81339  1.0000
  S   S169      1.0  0.00133  0.71998  0.62223  1.0000
  C   C544      1.0  0.95055  0.57350  0.80680  1.0000
  H   H549      1.0  0.19664  0.77566  0.62080  1.0000
  S   S170      1.0  0.98655  0.49973  0.98872  1.0000
  H   H550      1.0  0.17859  0.58403  0.75674  1.0000
  Fe  Fe81      1.0  0.03102  0.46864  0.69553  1.0000
  C   C545      1.0  0.03872  0.54561  0.62951  1.0000
  C   C546      1.0  0.98109  0.59353  0.74032  1.0000
  H   H551      1.0  0.34776  0.72027  0.59370  1.0000
  H   H552      1.0  0.17753  0.55750  0.57255  1.0000
  H   H553      1.0  0.42777  0.61774  0.59529  1.0000
  C   C547      1.0  0.10776  0.68237  0.57010  1.0000
  C   C548      1.0  0.96088  0.77437  0.52894  1.0000
  H   H554      1.0  0.21281  0.68378  0.67285  1.0000
  H   H555      1.0  0.25644  0.59533  0.78392  1.0000
  C   C549      1.0  0.03652  0.50934  0.57520  1.0000
  H   H556      1.0  0.08397  0.67093  0.59073  1.0000
  Fe  Fe82      1.0  0.98870  0.75437  0.99141  1.0000
  H   H557      1.0  0.21875  0.77061  0.76066  1.0000
  N   N47       1.0  0.40670  0.51101  0.97885  1.0000
  H   H558      1.0  0.24669  0.58232  0.65936  1.0000
  Fe  Fe83      1.0  0.35632  0.46875  0.84994  1.0000
  H   H559      1.0  0.01228  0.61013  0.82198  1.0000
  H   H560      1.0  0.97021  0.51074  0.88065  1.0000
  H   H561      1.0  0.28575  0.47371  0.76132  1.0000
  C   C550      1.0  0.04242  0.50506  0.61076  1.0000
  C   C551      1.0  0.02599  0.55391  0.55866  1.0000
  Fe  Fe84      1.0  0.37253  0.52210  0.56876  1.0000
  C   C552      1.0  0.42335  0.55709  0.72150  1.0000
  C   C553      1.0  0.11800  0.65332  0.54318  1.0000
  C   C554      1.0  0.19286  0.66219  0.96116  1.0000
  S   S171      1.0  0.37021  0.74760  0.78015  1.0000
  Fe  Fe85      1.0  0.08220  0.73171  0.73453  1.0000
  Fe  Fe86      1.0  0.32044  0.46700  0.62529  1.0000
  H   H562      1.0  0.13281  0.78614  0.85146  1.0000
  H   H563      1.0  0.32510  0.59557  0.68537  1.0000
  N   N48       1.0  0.20812  0.58264  0.70657  1.0000
  H   H564      1.0  0.15633  0.51341  0.91228  1.0000
  S   S172      1.0  0.19304  0.48352  0.79514  1.0000
  C   C555      1.0  0.14781  0.66928  0.51648  1.0000
  H   H565      1.0  0.03976  0.62786  0.76229  1.0000
  S   S173      1.0  0.33367  0.54420  0.61584  1.0000
  C   C556      1.0  0.25576  0.67025  0.85503  1.0000
  C   C557      1.0  0.12527  0.49307  0.92189  1.0000
  C   C558      1.0  0.07646  0.69296  0.82063  1.0000
  C   C559      1.0  0.13442  0.62601  0.82478  1.0000
  H   H566      1.0  0.41040  0.55788  0.88415  1.0000
  S   S174      1.0  0.43294  0.72714  0.71030  1.0000
  Fe  Fe87      1.0  0.28110  0.48361  0.90440  1.0000
  C   C560      1.0  0.16246  0.76888  0.83802  1.0000
  S   S175      1.0  0.04893  0.69896  0.99969  1.0000
  Fe  Fe88      1.0  0.31029  0.74020  0.95991  1.0000
  C   C561      1.0  0.08554  0.64510  0.87405  1.0000
  C   C562      1.0  0.02851  0.59010  0.61294  1.0000
  C   C563      1.0  0.97669  0.74325  0.55615  1.0000
  S   S176      1.0  0.36567  0.57167  0.52223  1.0000
  Fe  Fe89      1.0  0.02181  0.75201  0.67064  1.0000
  C   C564      1.0  0.06946  0.46747  0.83938  1.0000
  S   S177      1.0  0.39272  0.75284  0.53185  1.0000
  H   H567      1.0  0.98167  0.76233  0.82137  1.0000
  Fe  Fe90      1.0  0.40363  0.52569  0.64184  1.0000
  H   H568      1.0  0.13532  0.56202  0.70858  1.0000
  C   C565      1.0  0.11238  0.66450  0.80560  1.0000
  S   S178      1.0  0.25286  0.76545  0.92246  1.0000
  C   C566      1.0  0.15773  0.74141  0.54307  1.0000
  H   H569      1.0  0.01240  0.62854  0.56496  1.0000
  H   H570      1.0  0.26612  0.70483  0.79027  1.0000
  C   C567      1.0  0.29321  0.59213  0.70128  1.0000
  H   H571      1.0  0.13793  0.58628  0.87346  1.0000
  C   C568      1.0  0.44271  0.49498  0.95781  1.0000
  C   C569      1.0  0.16112  0.57947  0.69060  1.0000
  H   H572      1.0  0.20826  0.66496  0.61202  1.0000
  N   N49       1.0  0.22750  0.70955  0.83746  1.0000
  S   S179      1.0  0.42706  0.49414  0.83134  1.0000
  C   C570      1.0  0.00775  0.60820  0.76739  1.0000
  S   S180      1.0  0.42874  0.57682  0.67845  1.0000
  H   H573      1.0  0.11003  0.51034  0.94455  1.0000
  H   H574      1.0  0.98873  0.70726  0.55138  1.0000
  C   C571      1.0  0.25357  0.54210  0.51969  1.0000
  N   N50       1.0  0.23495  0.52004  0.54857  1.0000
  C   C572      1.0  0.02124  0.48081  0.84507  1.0000
  S   S181      1.0  0.38528  0.76593  0.95991  1.0000
  Fe  Fe91      1.0  0.05321  0.70132  0.94255  1.0000
  C   C573      1.0  0.24255  0.69102  0.65563  1.0000
  H   H575      1.0  0.13639  0.58869  0.96457  1.0000
  C   C574      1.0  0.02120  0.59415  0.57762  1.0000
  H   H576      1.0  0.35316  0.73711  0.65468  1.0000
  S   S182      1.0  0.00579  0.71849  0.72266  1.0000
  C   C575      1.0  0.97915  0.75932  0.58904  1.0000
  H   H577      1.0  0.34679  0.75470  0.89254  1.0000
  C   C576      1.0  0.21087  0.76051  0.78718  1.0000
  C   C577      1.0  0.31842  0.71210  0.61086  1.0000
  C   C578      1.0  0.23751  0.72302  0.80412  1.0000
  C   C579      1.0  0.32156  0.72146  0.64541  1.0000
  H   H578      1.0  0.29221  0.66578  0.84345  1.0000
  C   C580      1.0  0.25978  0.49791  0.98783  1.0000
  H   H579      1.0  0.42890  0.71865  0.90287  1.0000
  H   H580      1.0  0.18115  0.71981  0.88032  1.0000
  H   H581      1.0  0.22710  0.64424  0.95304  1.0000
  H   H582      1.0  0.43879  0.72969  0.83999  1.0000
  Fe  Fe92      1.0  0.35724  0.75075  0.72401  1.0000
  H   H583      1.0  0.36995  0.47347  0.77338  1.0000
  C   C581      1.0  0.17387  0.46731  0.72897  1.0000
  Fe  Fe93      1.0  0.25176  0.46443  0.83284  1.0000
  H   H584      1.0  0.14009  0.46061  0.86029  1.0000
  C   C582      1.0  0.27043  0.46096  0.70894  1.0000
  H   H585      1.0  0.25359  0.89372  0.36444  1.0000
  C   C583      1.0  0.34608  0.98290  0.37581  1.0000
  H   H586      1.0  0.04238  0.02829  0.35844  1.0000
  C   C584      1.0  0.17224  0.81026  0.29199  1.0000
  C   C585      1.0  0.04158  0.83396  0.31000  1.0000
  S   S183      1.0  0.98242  0.84269  0.25396  1.0000
  H   H587      1.0  0.04254  0.00574  0.41682  1.0000
  C   C586      1.0  0.01259  0.01305  0.08324  1.0000
  S   S184      1.0  0.02461  0.82663  0.42300  1.0000
  H   H588      1.0  0.32599  0.93981  0.04857  1.0000
  H   H589      1.0  0.14177  0.10518  0.37769  1.0000
  Fe  Fe94      1.0  0.29131  0.93989  0.26584  1.0000
  C   C587      1.0  0.31056  0.08556  0.14031  1.0000
  H   H590      1.0  0.03683  0.91869  0.03512  1.0000
  C   C588      1.0  0.21940  0.07549  0.32575  1.0000
  H   H591      1.0  0.32158  0.90709  0.47104  1.0000
  S   S185      1.0  0.15444  0.06368  0.27552  1.0000
  C   C589      1.0  0.19426  0.93965  0.12348  1.0000
  C   C590      1.0  0.41545  0.00136  0.24724  1.0000
  C   C591      1.0  0.19054  0.95113  0.08835  1.0000
  H   H592      1.0  0.09854  0.01126  0.21837  1.0000
  S   S186      1.0  0.39800  0.83168  0.04147  1.0000
  C   C592      1.0  0.16823  0.92051  0.06761  1.0000
  S   S187      1.0  0.27021  0.02783  0.01976  1.0000
  Fe  Fe95      1.0  0.11765  0.85778  0.49019  1.0000
  S   S188      1.0  0.14035  0.83004  0.44003  1.0000
  H   H593      1.0  0.42595  0.01748  0.01066  1.0000
  Fe  Fe96      1.0  0.01179  0.85406  0.47467  1.0000
  S   S189      1.0  0.16887  0.93067  0.02339  1.0000
  C   C593      1.0  0.01696  0.94854  0.04532  1.0000
  C   C594      1.0  0.40195  0.82299  0.08585  1.0000
  H   H594      1.0  0.03011  0.99436  0.17410  1.0000
  C   C595      1.0  0.42422  0.98685  0.28132  1.0000
  C   C596      1.0  0.04333  0.93265  0.31364  1.0000
  H   H595      1.0  0.12220  0.09236  0.19343  1.0000
  H   H596      1.0  0.19113  0.10858  0.15422  1.0000
  C   C597      1.0  0.03385  0.92346  0.15724  1.0000
  H   H597      1.0  0.42602  0.83830  0.27768  1.0000
  H   H598      1.0  0.04378  0.84936  0.14720  1.0000
  C   C598      1.0  0.06690  0.90257  0.33833  1.0000
  H   H599      1.0  0.39229  0.85469  0.35769  1.0000
  Fe  Fe97      1.0  0.22351  0.93375  0.20776  1.0000
  N   N51       1.0  0.28312  0.87940  0.04844  1.0000
  C   C599      1.0  0.27998  0.88116  0.01108  1.0000
  C   C600      1.0  0.18156  0.09615  0.30583  1.0000
  C   C601      1.0  0.28663  0.91718  0.46014  1.0000
  S   S190      1.0  0.41839  0.80348  0.20127  1.0000
  C   C602      1.0  0.40360  0.09651  0.07015  1.0000
  S   S191      1.0  0.39426  0.98120  0.43629  1.0000
  N   N52       1.0  0.21234  0.79994  0.26860  1.0000
  H   H600      1.0  0.26660  0.81725  0.30318  1.0000
  Fe  Fe98      1.0  0.21051  0.01406  0.25443  1.0000
  C   C603      1.0  0.05988  0.12276  0.02814  1.0000
  C   C604      1.0  0.19809  0.94367  0.43131  1.0000
  C   C605      1.0  0.33185  0.96239  0.34616  1.0000
  S   S192      1.0  0.06348  0.91219  0.46831  1.0000
  H   H601      1.0  0.08627  0.82797  0.20174  1.0000
  H   H602      1.0  0.30755  0.98209  0.32868  1.0000
  Fe  Fe99      1.0  0.34799  0.04506  0.44816  1.0000
  H   H603      1.0  0.04347  0.00052  0.24191  1.0000
  C   C606      1.0  0.14808  0.87940  0.08200  1.0000
  C   C607      1.0  0.07016  0.03052  0.42099  1.0000
  C   C608      1.0  0.37963  0.89059  0.36256  1.0000
  S   S193      1.0  0.34390  0.05696  0.50381  1.0000
  H   H604      1.0  0.04595  0.09192  0.04206  1.0000
  S   S194      1.0  0.00889  0.09065  0.19763  1.0000
  C   C609      1.0  0.42134  0.85376  0.13998  1.0000
  H   H605      1.0  0.30244  0.88587  0.41272  1.0000
  S   S195      1.0  0.21148  0.93507  0.26408  1.0000
  C   C610      1.0  0.25151  0.08234  0.09570  1.0000
  H   H606      1.0  0.33304  0.80687  0.26168  1.0000
  S   S196      1.0  0.21485  0.01267  0.19770  1.0000
  C   C611      1.0  0.03833  0.97481  0.06959  1.0000
  H   H607      1.0  0.23170  0.03902  0.32274  1.0000
  H   H608      1.0  0.41678  0.89070  0.41009  1.0000
  Fe  Fe100     1.0  0.29458  0.01089  0.20529  1.0000
  C   C612      1.0  0.07757  0.98371  0.23233  1.0000
  C   C613      1.0  0.41046  0.81056  0.15699  1.0000
  N   N53       1.0  0.09074  0.05498  0.39387  1.0000
  C   C614      1.0  0.42236  0.07059  0.09896  1.0000
  N   N54       1.0  0.40522  0.07741  0.03896  1.0000
  C   C615      1.0  0.96520  0.02453  0.07329  1.0000
  H   H609      1.0  0.20627  0.98269  0.07714  1.0000
  C   C616      1.0  0.24013  0.10145  0.35062  1.0000
  H   H610      1.0  0.21348  0.96213  0.13913  1.0000
  C   C617      1.0  0.04254  0.95795  0.18018  1.0000
  H   H611      1.0  0.24071  0.81892  0.05549  1.0000
  H   H612      1.0  0.04322  0.97081  0.31499  1.0000
  H   H613      1.0  0.27150  0.02365  0.13135  1.0000
  H   H614      1.0  0.29628  0.87097  0.14664  1.0000
  C   C618      1.0  0.41799  0.85962  0.10443  1.0000
  S   S197      1.0  0.33413  0.89077  0.30200  1.0000
  C   C619      1.0  0.01756  0.91345  0.28795  1.0000
  H   H615      1.0  0.19482  0.87897  0.37943  1.0000
  H   H616      1.0  0.09902  0.96990  0.25486  1.0000
  Fe  Fe101     1.0  0.26544  0.07085  0.49441  1.0000
  H   H617      1.0  0.42786  0.89266  0.09136  1.0000
  H   H618      1.0  0.40307  0.03775  0.24025  1.0000
  H   H619      1.0  0.04044  0.79591  0.30882  1.0000
  H   H620      1.0  0.18494  0.81985  0.31730  1.0000
  C   C620      1.0  0.37729  0.95723  0.39865  1.0000
  H   H621      1.0  0.34456  0.10406  0.01043  1.0000
  S   S198      1.0  0.28979  0.01961  0.26145  1.0000
  S   S199      1.0  0.30370  0.93151  0.21008  1.0000
  C   C621      1.0  0.38432  0.10499  0.00943  1.0000
  C   C622      1.0  0.39396  0.91114  0.39201  1.0000
  C   C623      1.0  0.44256  0.02478  0.09576  1.0000
  Fe  Fe102     1.0  0.22843  0.09776  0.01196  1.0000
  C   C624      1.0  0.26242  0.84369  0.06762  1.0000
  C   C625      1.0  0.06630  0.85313  0.33653  1.0000
  C   C626      1.0  0.25181  0.94103  0.47929  1.0000
  H   H622      1.0  0.44324  0.89693  0.21203  1.0000
  C   C627      1.0  0.97092  0.96229  0.03340  1.0000
  H   H623      1.0  0.06656  0.01944  0.47594  1.0000
  Fe  Fe103     1.0  0.08186  0.87983  0.41890  1.0000
  S   S200      1.0  0.09434  0.92709  0.37243  1.0000
  S   S201      1.0  0.25404  0.79348  0.41406  1.0000
  C   C628      1.0  0.14117  0.09313  0.43208  1.0000
  C   C629      1.0  0.42471  0.03243  0.03551  1.0000
  H   H624      1.0  0.10156  0.89042  0.24104  1.0000
  C   C630      1.0  0.30865  0.91220  0.06383  1.0000
  H   H625      1.0  0.26882  0.08518  0.36635  1.0000
  Fe  Fe104     1.0  0.98454  0.08311  0.14439  1.0000
  C   C631      1.0  0.12598  0.08566  0.39909  1.0000
  C   C632      1.0  0.08397  0.03765  0.45445  1.0000
  H   H626      1.0  0.22551  0.06290  0.08274  1.0000
  H   H627      1.0  0.35751  0.11385  0.29639  1.0000
  S   S202      1.0  0.38290  0.81190  0.45606  1.0000
  H   H628      1.0  0.18002  0.97247  0.47999  1.0000
  H   H629      1.0  0.16329  0.95383  0.42032  1.0000
  H   H630      1.0  0.08480  0.82979  0.35560  1.0000
  C   C633      1.0  0.15204  0.86781  0.11709  1.0000
  H   H631      1.0  0.41628  0.97978  0.19552  1.0000
  C   C634      1.0  0.07324  0.86432  0.19566  1.0000
  S   S203      1.0  0.18610  0.87963  0.18052  1.0000
  H   H632      1.0  0.95191  0.86282  0.34517  1.0000
  H   H633      1.0  0.10448  0.02822  0.34519  1.0000
  C   C635      1.0  0.29654  0.80032  0.25459  1.0000
  H   H634      1.0  0.12482  0.10041  0.07943  1.0000
  C   C636      1.0  0.08209  0.89992  0.21774  1.0000
  C   C637      1.0  0.31319  0.91019  0.09941  1.0000
  C   C638      1.0  0.27592  0.90612  0.42693  1.0000
  C   C639      1.0  0.22110  0.90737  0.37812  1.0000
  H   H635      1.0  0.13843  0.83485  0.12791  1.0000
  H   H636      1.0  0.43379  0.88244  0.15405  1.0000
  H   H637      1.0  0.99789  0.93669  0.26952  1.0000
  N   N55       1.0  0.06711  0.94614  0.20969  1.0000
  C   C640      1.0  0.17575  0.89763  0.13773  1.0000
  H   H638      1.0  0.33295  0.93651  0.11162  1.0000
  H   H639      1.0  0.07479  0.96550  0.07775  1.0000
  H   H640      1.0  0.06817  0.08324  0.34466  1.0000
  N   N56       1.0  0.23231  0.91982  0.41278  1.0000
  C   C641      1.0  0.25865  0.80660  0.27784  1.0000
  C   C642      1.0  0.29300  0.87322  0.11906  1.0000
  H   H641      1.0  0.42133  0.08618  0.12356  1.0000
  S   S204      1.0  0.06478  0.80250  0.50131  1.0000
  H   H642      1.0  0.20554  0.93892  0.36294  1.0000
  C   C643      1.0  0.11982  0.06909  0.45995  1.0000
  H   H643      1.0  0.01581  0.93337  0.13339  1.0000
  C   C644      1.0  0.42277  0.96887  0.22214  1.0000
  C   C645      1.0  0.26749  0.83970  0.10311  1.0000
  H   H644      1.0  0.25896  0.94849  0.50546  1.0000
  C   C646      1.0  0.27703  0.06037  0.12345  1.0000
  C   C647      1.0  0.34895  0.91637  0.33950  1.0000
  H   H645      1.0  0.42240  0.07645  0.34503  1.0000
  C   C648      1.0  0.20726  0.95448  0.46486  1.0000
  S   S205      1.0  0.03999  0.04650  0.11259  1.0000
  S   S206      1.0  0.36221  0.12074  0.43200  1.0000
  C   C649      1.0  0.04940  0.87635  0.16505  1.0000
  H   H646      1.0  0.33310  0.01854  0.38096  1.0000
  S   S207      1.0  0.34332  0.05764  0.17436  1.0000
  C   C650      1.0  0.07569  0.04835  0.35886  1.0000
  C   C651      1.0  0.01658  0.86439  0.28603  1.0000
  H   H647      1.0  0.25019  0.81186  0.11824  1.0000
  S   S208      1.0  0.26836  0.05303  0.43965  1.0000
  H   H648      1.0  0.13104  0.85557  0.06582  1.0000
  H   H649      1.0  0.13050  0.07572  0.48573  1.0000
  C   C652      1.0  0.44074  0.94006  0.28979  1.0000
  H   H650      1.0  0.14929  0.84065  0.28115  1.0000
  Fe  Fe105     1.0  0.95110  0.11099  0.41894  1.0000
  C   C653      1.0  0.43820  0.92204  0.23163  1.0000
  S   S209      1.0  0.28853  0.79942  0.50622  1.0000
  H   H651      1.0  0.16827  0.11855  0.43611  1.0000
  H   H652      1.0  0.41790  0.01156  0.30112  1.0000
  C   C654      1.0  0.44390  0.00549  0.06382  1.0000
  H   H653      1.0  0.94772  0.10215  0.34851  1.0000
  H   H654      1.0  0.06529  0.11043  0.85315  1.0000
  S   S210      1.0  0.05078  0.09698  0.71510  1.0000
  H   H655      1.0  0.30663  0.90071  0.64524  1.0000
  Fe  Fe106     1.0  0.31535  0.05712  0.70094  1.0000
  H   H656      1.0  0.39795  0.09140  0.98499  1.0000
  H   H657      1.0  0.22855  0.04024  0.65556  1.0000
  S   S211      1.0  0.36993  0.82817  0.71518  1.0000
  C   C655      1.0  0.28867  0.00286  0.63255  1.0000
  C   C656      1.0  0.27666  0.85935  0.84322  1.0000
  S   S212      1.0  0.15963  0.06518  0.00080  1.0000
  Fe  Fe107     1.0  0.20276  0.99655  0.00309  1.0000
  C   C657      1.0  0.22112  0.80286  0.62601  1.0000
  H   H658      1.0  0.40469  0.91409  0.98301  1.0000
  H   H659      1.0  0.43303  0.11095  0.63669  1.0000
  H   H660      1.0  0.96960  0.03742  0.78272  1.0000
  S   S213      1.0  0.32104  0.99214  0.67068  1.0000
  H   H661      1.0  0.04895  0.01697  0.91971  1.0000
  C   C658      1.0  0.98088  0.94073  0.63594  1.0000
  Fe  Fe108     1.0  0.38798  0.82369  0.77048  1.0000
  H   H662      1.0  0.38649  0.80078  0.84537  1.0000
  C   C659      1.0  0.01124  0.85971  0.86192  1.0000
  H   H663      1.0  0.09555  0.83670  0.56799  1.0000
  C   C660      1.0  0.37350  0.04216  0.90558  1.0000
  C   C661      1.0  0.17737  0.91545  0.58865  1.0000
  Fe  Fe109     1.0  0.18442  0.07213  0.94655  1.0000
  H   H664      1.0  0.29944  0.05475  0.89069  1.0000
  C   C662      1.0  0.10364  0.86278  0.61802  1.0000
  H   H665      1.0  0.12275  0.99026  0.89341  1.0000
  N   N57       1.0  0.25427  0.85379  0.66551  1.0000
  C   C663      1.0  0.32462  0.84810  0.83493  1.0000
  C   C664      1.0  0.10224  0.10934  0.84440  1.0000
  C   C665      1.0  0.28247  0.87324  0.64007  1.0000
  H   H666      1.0  0.41241  0.80091  0.64160  1.0000
  S   S214      1.0  0.25009  0.11132  0.95721  1.0000
  H   H667      1.0  0.29959  0.98549  0.54780  1.0000
  C   C666      1.0  0.09610  0.91883  0.96178  1.0000
  C   C667      1.0  0.40574  0.89346  0.93109  1.0000
  Fe  Fe110     1.0  0.04096  0.80943  0.93530  1.0000
  Fe  Fe111     1.0  0.35360  0.10683  0.76052  1.0000
  H   H668      1.0  0.15186  0.04951  0.70467  1.0000
  C   C668      1.0  0.06310  0.97257  0.56264  1.0000
  H   H669      1.0  0.06914  0.96807  0.71889  1.0000
  H   H670      1.0  0.02462  0.98318  0.95554  1.0000
  C   C669      1.0  0.34790  0.07711  0.85004  1.0000
  H   H671      1.0  0.13434  0.85288  0.97785  1.0000
  S   S215      1.0  0.29608  0.05436  0.75661  1.0000
  S   S216      1.0  0.03836  0.87444  0.89924  1.0000
  H   H672      1.0  0.07403  0.02093  0.96156  1.0000
  S   S217      1.0  0.37924  0.89130  0.53348  1.0000
  S   S218      1.0  0.11834  0.89331  0.68197  1.0000
  H   H673      1.0  0.31285  0.86375  0.00028  1.0000
  H   H674      1.0  0.95324  0.10461  0.85577  1.0000
  S   S219      1.0  0.22234  0.00038  0.94761  1.0000
  H   H675      1.0  0.96867  0.90805  0.62507  1.0000
  C   C670      1.0  0.15947  0.92278  0.90697  1.0000
  C   C671      1.0  0.42144  0.04635  0.89548  1.0000
  C   C672      1.0  0.96395  0.80617  0.59477  1.0000
  S   S220      1.0  0.36076  0.01848  0.94692  1.0000
  S   S221      1.0  0.17266  0.87758  0.52704  1.0000
  N   N58       1.0  0.09311  0.95686  0.93844  1.0000
  C   C673      1.0  0.24094  0.02572  0.57053  1.0000
  H   H676      1.0  0.06875  0.96432  0.53625  1.0000
  H   H677      1.0  0.18472  0.92512  0.88582  1.0000
  C   C674      1.0  0.33658  0.05796  0.88297  1.0000
  H   H678      1.0  0.27572  0.91849  0.00039  1.0000
  H   H679      1.0  0.00292  0.92844  0.57015  1.0000
  H   H680      1.0  0.19077  0.85608  0.92912  1.0000
  C   C675      1.0  0.08627  0.97602  0.74239  1.0000
  Fe  Fe112     1.0  0.97967  0.06756  0.70451  1.0000
  H   H681      1.0  0.21876  0.88986  0.70496  1.0000
  S   S222      1.0  0.03535  0.81658  0.99171  1.0000
  H   H682      1.0  0.37631  0.94532  0.74869  1.0000
  H   H683      1.0  0.06584  0.96773  0.82808  1.0000
  S   S223      1.0  0.12437  0.09435  0.91117  1.0000
  H   H684      1.0  0.02242  0.11047  0.98167  1.0000
  C   C676      1.0  0.19779  0.10724  0.82176  1.0000
  H   H685      1.0  0.41742  0.86824  0.88119  1.0000
  C   C677      1.0  0.02623  0.95207  0.58212  1.0000
  C   C678      1.0  0.16294  0.88409  0.93102  1.0000
  S   S224      1.0  0.37786  0.10318  0.70605  1.0000
  H   H686      1.0  0.24808  0.86266  0.00281  1.0000
  S   S225      1.0  0.97720  0.09219  0.64913  1.0000
  H   H687      1.0  0.30063  0.87555  0.58631  1.0000
  C   C679      1.0  0.42004  0.03573  0.57346  1.0000
  C   C680      1.0  0.30774  0.98623  0.60216  1.0000
  Fe  Fe113     1.0  0.36292  0.82349  0.51048  1.0000
  C   C681      1.0  0.43776  0.09541  0.61223  1.0000
  C   C682      1.0  0.16543  0.91926  0.62312  1.0000
  C   C683      1.0  0.09373  0.00256  0.57781  1.0000
  H   H688      1.0  0.07535  0.84200  0.62930  1.0000
  C   C684      1.0  0.41091  0.87780  0.57125  1.0000
  C   C685      1.0  0.34969  0.80997  0.85234  1.0000
  H   H689      1.0  0.20656  0.93504  0.57745  1.0000
  H   H690      1.0  0.42728  0.94265  0.81312  1.0000
  C   C686      1.0  0.08754  0.01123  0.61218  1.0000
  H   H691      1.0  0.13636  0.99456  0.68739  1.0000
  H   H692      1.0  0.11210  0.03322  0.62437  1.0000
  C   C687      1.0  0.42855  0.94679  0.70816  1.0000
  C   C688      1.0  0.98347  0.79933  0.82680  1.0000
  S   S226      1.0  0.35241  0.87927  0.80120  1.0000
  C   C689      1.0  0.15269  0.88538  0.56881  1.0000
  H   H693      1.0  0.96542  0.81864  0.61998  1.0000
  H   H694      1.0  0.20173  0.80341  0.67907  1.0000
  C   C690      1.0  0.39848  0.83943  0.59335  1.0000
  H   H695      1.0  0.99264  0.93065  0.66256  1.0000
  S   S227      1.0  0.26407  0.11816  0.68582  1.0000
  C   C691      1.0  0.24946  0.82269  0.59989  1.0000
  H   H696      1.0  0.12297  0.01822  0.56328  1.0000
  H   H697      1.0  0.99061  0.93220  0.84560  1.0000
  H   H698      1.0  0.31947  0.08868  0.83242  1.0000
  S   S228      1.0  0.41183  0.10557  0.79953  1.0000
  C   C692      1.0  0.41395  0.05481  0.60528  1.0000
  S   S229      1.0  0.21162  0.04182  0.53179  1.0000
  C   C693      1.0  0.27973  0.79588  0.88784  1.0000
  C   C694      1.0  0.24459  0.02894  0.63211  1.0000
  S   S230      1.0  0.00020  0.82623  0.68384  1.0000
  C   C695      1.0  0.13094  0.88194  0.95842  1.0000
  H   H699      1.0  0.19175  0.99694  0.70977  1.0000
  H   H700      1.0  0.26102  0.84188  0.71919  1.0000
  H   H701      1.0  0.38782  0.99342  0.80035  1.0000
  C   C696      1.0  0.05844  0.99649  0.94405  1.0000
  H   H702      1.0  0.25698  0.88810  0.82908  1.0000
  H   H703      1.0  0.04549  0.99766  0.65755  1.0000
  C   C697      1.0  0.12799  0.99710  0.80306  1.0000
  H   H704      1.0  0.21612  0.09283  0.87495  1.0000
  C   C698      1.0  0.43000  0.86591  0.90733  1.0000
  H   H705      1.0  0.37461  0.91626  0.92350  1.0000
  S   S231      1.0  0.96041  0.99320  0.71851  1.0000
  H   H706      1.0  0.39036  0.03859  0.62434  1.0000
  H   H707      1.0  0.18438  0.02487  0.77108  1.0000
  C   C699      1.0  0.05023  0.99046  0.63087  1.0000
  H   H708      1.0  0.40098  0.00472  0.56742  1.0000
  C   C700      1.0  0.42292  0.89262  0.96437  1.0000
  C   C701      1.0  0.42537  0.97827  0.79931  1.0000
  N   N59       1.0  0.02041  0.96100  0.61586  1.0000
  H   H709      1.0  0.28232  0.89793  0.70240  1.0000
  C   C702      1.0  0.22410  0.81879  0.65891  1.0000
  C   C703      1.0  0.22071  0.04021  0.60116  1.0000
  Fe  Fe114     1.0  0.07716  0.82973  0.69822  1.0000
  C   C704      1.0  0.42293  0.82982  0.62417  1.0000
  C   C705      1.0  0.06296  0.96478  0.77339  1.0000
  C   C706      1.0  0.12433  0.95937  0.91131  1.0000
  C   C707      1.0  0.15344  0.01010  0.70928  1.0000
  H   H710      1.0  0.36953  0.81754  0.58701  1.0000
  C   C708      1.0  0.15051  0.00745  0.77161  1.0000
  N   N60       1.0  0.12962  0.99696  0.74180  1.0000
  C   C709      1.0  0.25420  0.87179  0.69975  1.0000
  H   H711      1.0  0.21645  0.84024  0.87498  1.0000
  C   C710      1.0  0.27994  0.85852  0.60680  1.0000
  H   H712      1.0  0.18723  0.06132  0.60083  1.0000
  C   C711      1.0  0.25387  0.83247  0.86924  1.0000
  C   C712      1.0  0.39607  0.08152  0.84021  1.0000
  C   C713      1.0  0.98937  0.89519  0.84007  1.0000
  H   H713      1.0  0.14419  0.00679  0.82649  1.0000
  S   S232      1.0  0.94804  0.93617  0.99826  1.0000
  C   C714      1.0  0.08392  0.97559  0.80390  1.0000
  H   H714      1.0  0.24684  0.81128  0.57417  1.0000
  C   C715      1.0  0.43270  0.06671  0.86314  1.0000
  C   C716      1.0  0.16029  0.11682  0.79839  1.0000
  C   C717      1.0  0.12928  0.89218  0.63802  1.0000
  C   C718      1.0  0.11499  0.85980  0.58325  1.0000
  H   H715      1.0  0.23473  0.10692  0.81300  1.0000
  Fe  Fe115     1.0  0.99102  0.79353  0.73661  1.0000
  C   C719      1.0  0.00922  0.81200  0.85494  1.0000
  H   H716      1.0  0.18540  0.94201  0.63838  1.0000
  H   H717      1.0  0.34109  0.96479  0.60244  1.0000
  C   C720      1.0  0.96343  0.88250  0.81199  1.0000
  H   H718      1.0  0.02847  0.94838  0.77357  1.0000
  Fe  Fe116     1.0  0.28597  0.03822  0.96380  1.0000
  H   H719      1.0  0.07210  0.91730  0.98356  1.0000
  C   C721      1.0  0.28429  0.99820  0.57113  1.0000
  C   C722      1.0  0.95995  0.83463  0.80570  1.0000
  C   C723      1.0  0.18730  0.09932  0.85671  1.0000
  C   C724      1.0  0.13939  0.10106  0.86793  1.0000
  C   C725      1.0  0.11262  0.11718  0.80968  1.0000
  Fe  Fe117     1.0  0.24945  0.11936  0.74172  1.0000
  S   S233      1.0  0.06638  0.80457  0.75276  1.0000
  H   H720      1.0  0.40574  0.93049  0.69044  1.0000
  C   C726      1.0  0.41227  0.95497  0.74122  1.0000
  N   N61       1.0  0.44148  0.97428  0.76391  1.0000
  H   H721      1.0  0.15277  0.81315  0.79165  1.0000
  H   H722      1.0  0.95023  0.96743  0.63702  1.0000
  H   H723      1.0  0.94625  0.90961  0.79509  1.0000
  C   C727      1.0  0.94660  0.82146  0.53460  1.0000
  H   H724      1.0  0.08361  0.12436  0.79165  1.0000
  C   C728      1.0  0.94683  0.83707  0.56768  1.0000
  H   H725      1.0  0.24847  0.42037  0.16761  1.0000
  S   S234      1.0  0.24441  0.17900  0.38888  1.0000
  S   S235      1.0  0.96845  0.23824  0.44244  1.0000
  C   C729      1.0  0.27083  0.26222  0.29380  1.0000
  S   S236      1.0  0.35514  0.35508  0.15762  1.0000
  H   H726      1.0  0.02718  0.30771  0.24108  1.0000
  C   C730      1.0  0.34024  0.30638  0.27645  1.0000
  Fe  Fe118     1.0  0.95639  0.21195  0.39124  1.0000
  H   H727      1.0  0.05379  0.21380  0.11022  1.0000
  S   S237      1.0  0.09102  0.18599  0.47243  1.0000
  H   H728      1.0  0.34894  0.32664  0.00774  1.0000
  N   N62       1.0  0.15254  0.33136  0.35251  1.0000
  C   C731      1.0  0.15734  0.40937  0.05603  1.0000
  H   H729      1.0  0.17293  0.20513  0.33821  1.0000
  H   H730      1.0  0.10530  0.22421  0.25982  1.0000
  H   H731      1.0  0.06714  0.25134  0.40572  1.0000
  H   H732      1.0  0.15511  0.23302  0.40697  1.0000
  C   C732      1.0  0.40860  0.19963  0.27091  1.0000
  C   C733      1.0  0.30264  0.25821  0.23624  1.0000
  Fe  Fe119     1.0  0.97385  0.16332  0.19040  1.0000
  C   C734      1.0  0.25452  0.26873  0.45116  1.0000
  H   H733      1.0  0.37049  0.28560  0.50073  1.0000
  H   H734      1.0  0.20986  0.37834  0.35058  1.0000
  C   C735      1.0  0.14068  0.26368  0.39155  1.0000
  Fe  Fe120     1.0  0.01852  0.17491  0.45103  1.0000
  Fe  Fe121     1.0  0.28188  0.13039  0.42884  1.0000
  C   C736      1.0  0.97037  0.21107  0.30140  1.0000
  C   C737      1.0  0.10097  0.31255  0.13857  1.0000
  H   H735      1.0  0.97757  0.16634  0.25902  1.0000
  C   C738      1.0  0.34073  0.27226  0.45241  1.0000
  C   C739      1.0  0.18632  0.16918  0.33465  1.0000
  H   H736      1.0  0.34356  0.15277  0.14286  1.0000
  H   H737      1.0  0.03414  0.32021  0.36939  1.0000
  C   C740      1.0  0.98683  0.31490  0.49857  1.0000
  C   C741      1.0  0.20000  0.17828  0.17188  1.0000
  H   H738      1.0  0.16789  0.44110  0.04003  1.0000
  S   S238      1.0  0.38565  0.37662  0.40388  1.0000
  C   C742      1.0  0.28320  0.43026  0.02674  1.0000
  N   N63       1.0  0.14573  0.20237  0.21631  1.0000
  H   H739      1.0  0.29870  0.19128  0.09352  1.0000
  H   H740      1.0  0.30768  0.14107  0.27171  1.0000
  C   C743      1.0  0.18865  0.36337  0.00872  1.0000
  H   H741      1.0  0.23801  0.34966  0.25055  1.0000
  C   C744      1.0  0.09116  0.27363  0.39069  1.0000
  C   C745      1.0  0.29223  0.15496  0.10208  1.0000
  H   H742      1.0  0.20974  0.28508  0.37271  1.0000
  H   H743      1.0  0.13373  0.16135  0.08739  1.0000
  H   H744      1.0  0.20705  0.34108  0.31497  1.0000
  H   H745      1.0  0.24292  0.21897  0.25607  1.0000
  H   H746      1.0  0.21786  0.27907  0.49872  1.0000
  N   N64       1.0  0.29373  0.28507  0.50304  1.0000
  C   C746      1.0  0.25947  0.12944  0.08481  1.0000
  C   C747      1.0  0.12778  0.23913  0.23865  1.0000
  Fe  Fe122     1.0  0.43396  0.42571  0.37427  1.0000
  C   C748      1.0  0.18521  0.36211  0.33298  1.0000
  H   H747      1.0  0.17731  0.32725  0.09155  1.0000
  C   C749      1.0  0.20422  0.28306  0.05233  1.0000
  H   H748      1.0  0.29732  0.39398  0.03108  1.0000
  Fe  Fe123     1.0  0.35041  0.13327  0.48731  1.0000
  H   H749      1.0  0.00295  0.32589  0.29982  1.0000
  C   C750      1.0  0.37816  0.15481  0.22747  1.0000
  C   C751      1.0  0.41222  0.17259  0.20419  1.0000
  H   H750      1.0  0.00083  0.32344  0.47315  1.0000
  Fe  Fe124     1.0  0.04660  0.42292  0.44162  1.0000
  C   C752      1.0  0.10389  0.34077  0.35105  1.0000
  S   S239      1.0  0.41876  0.39859  0.32314  1.0000
  S   S240      1.0  0.38902  0.35267  0.07650  1.0000
  C   C753      1.0  0.00286  0.23620  0.24608  1.0000
  C   C754      1.0  0.98135  0.40608  0.37218  1.0000
  C   C755      1.0  0.31803  0.13294  0.12973  1.0000
  C   C756      1.0  0.18300  0.21186  0.19441  1.0000
  H   H751      1.0  0.41571  0.44978  0.44360  1.0000
  C   C757      1.0  0.27168  0.42921  0.18806  1.0000
  H   H752      1.0  0.13519  0.15848  0.29539  1.0000
  C   C758      1.0  0.23686  0.36612  0.22413  1.0000
  H   H753      1.0  0.98765  0.31337  0.15419  1.0000
  H   H754      1.0  0.43417  0.33464  0.20161  1.0000
  H   H755      1.0  0.19963  0.38014  0.21894  1.0000
  H   H756      1.0  0.36399  0.29972  0.22442  1.0000
  H   H757      1.0  0.22999  0.18602  0.15492  1.0000
  C   C759      1.0  0.18533  0.32575  0.06450  1.0000
  C   C760      1.0  0.04936  0.33277  0.08993  1.0000
  C   C761      1.0  0.99797  0.29089  0.29107  1.0000
  C   C762      1.0  0.29959  0.41541  0.24496  1.0000
  H   H758      1.0  0.33237  0.17225  0.30516  1.0000
  S   S241      1.0  0.96571  0.43632  0.25770  1.0000
  H   H759      1.0  0.09321  0.15305  0.23259  1.0000
  S   S242      1.0  0.30511  0.31836  0.34098  1.0000
  C   C763      1.0  0.16490  0.14286  0.31039  1.0000
  C   C764      1.0  0.01608  0.43212  0.35429  1.0000
  C   C765      1.0  0.12355  0.16024  0.21580  1.0000
  N   N65       1.0  0.17824  0.36534  0.04281  1.0000
  C   C766      1.0  0.21619  0.28109  0.01784  1.0000
  H   H760      1.0  0.16561  0.39150  0.31791  1.0000
  H   H761      1.0  0.19914  0.24608  0.19383  1.0000
  C   C767      1.0  0.26959  0.24400  0.26148  1.0000
  H   H762      1.0  0.41320  0.16174  0.17816  1.0000
  H   H763      1.0  0.35255  0.13054  0.21897  1.0000
  Fe  Fe125     1.0  0.03586  0.44803  0.23156  1.0000
  H   H764      1.0  0.15799  0.25686  0.24989  1.0000
  H   H765      1.0  0.11755  0.40856  0.05678  1.0000
  C   C768      1.0  0.29891  0.26605  0.43438  1.0000
  S   S243      1.0  0.23034  0.15517  0.04847  1.0000
  C   C769      1.0  0.25253  0.27807  0.48573  1.0000
  C   C770      1.0  0.44334  0.21791  0.24832  1.0000
  C   C771      1.0  0.17815  0.13496  0.17151  1.0000
  C   C772      1.0  0.26878  0.45664  0.05456  1.0000
  Fe  Fe126     1.0  0.11708  0.40435  0.49977  1.0000
  Fe  Fe127     1.0  0.33411  0.28021  0.15381  1.0000
  C   C773      1.0  0.07261  0.31229  0.37027  1.0000
  S   S244      1.0  0.12361  0.39601  0.44364  1.0000
  N   N66       1.0  0.09144  0.15033  0.04337  1.0000
  Fe  Fe128     1.0  0.37695  0.34444  0.35369  1.0000
  H   H766      1.0  0.21074  0.25196  0.06971  1.0000
  S   S245      1.0  0.29387  0.29606  0.10516  1.0000
  N   N67       1.0  0.37633  0.16877  0.26023  1.0000
  S   S246      1.0  0.43920  0.29142  0.36081  1.0000
  S   S247      1.0  0.27127  0.14914  0.48316  1.0000
  H   H767      1.0  0.39442  0.14246  0.00947  1.0000
  H   H768      1.0  0.37557  0.26873  0.43997  1.0000
  H   H769      1.0  0.95644  0.35019  0.20665  1.0000
  S   S248      1.0  0.36422  0.22953  0.03650  1.0000
  S   S249      1.0  0.96184  0.12821  0.47335  1.0000
  H   H770      1.0  0.29722  0.39715  0.27001  1.0000
  C   C774      1.0  0.10734  0.13681  0.07828  1.0000
  S   S250      1.0  0.10464  0.40634  0.24428  1.0000
  C   C775      1.0  0.34180  0.14791  0.28462  1.0000
  H   H771      1.0  0.24493  0.25153  0.31317  1.0000
  C   C776      1.0  0.98337  0.20101  0.26797  1.0000
  C   C777      1.0  0.17115  0.29316  0.37219  1.0000
  C   C778      1.0  0.97644  0.25648  0.31246  1.0000
  H   H772      1.0  0.08519  0.38407  0.11776  1.0000
  C   C779      1.0  0.01189  0.44135  0.31880  1.0000
  H   H773      1.0  0.40789  0.20983  0.29709  1.0000
  N   N68       1.0  0.27016  0.40456  0.21913  1.0000
  S   S251      1.0  0.98656  0.39060  0.41584  1.0000
  H   H774      1.0  0.10800  0.23806  0.15427  1.0000
  C   C780      1.0  0.01177  0.28056  0.25794  1.0000
  C   C781      1.0  0.33796  0.28941  0.24370  1.0000
  Fe  Fe129     1.0  0.32157  0.36872  0.10610  1.0000
  H   H775      1.0  0.43188  0.37444  0.47743  1.0000
  H   H776      1.0  0.36759  0.33045  0.28218  1.0000
  Fe  Fe130     1.0  0.42043  0.33190  0.12820  1.0000
  H   H777      1.0  0.07599  0.13701  0.09596  1.0000
  Fe  Fe131     1.0  0.10977  0.39863  0.18798  1.0000
  H   H778      1.0  0.95378  0.18449  0.31807  1.0000
  C   C782      1.0  0.04119  0.28458  0.08760  1.0000
  C   C783      1.0  0.10886  0.18942  0.02593  1.0000
  H   H779      1.0  0.03194  0.35916  0.07247  1.0000
  H   H780      1.0  0.24592  0.33803  0.20613  1.0000
  H   H781      1.0  0.38826  0.13232  0.07274  1.0000
  S   S252      1.0  0.00542  0.26590  0.05544  1.0000
  S   S253      1.0  0.01388  0.22589  0.20342  1.0000
  H   H782      1.0  0.30103  0.25824  0.40762  1.0000
  H   H783      1.0  0.17044  0.41379  0.08231  1.0000
  S   S254      1.0  0.03726  0.43339  0.17619  1.0000
  Fe  Fe132     1.0  0.36380  0.27830  0.07937  1.0000
  S   S255      1.0  0.40203  0.25552  0.12812  1.0000
  S   S256      1.0  0.01244  0.15250  0.39756  1.0000
  S   S257      1.0  0.29914  0.23636  0.19571  1.0000
  S   S258      1.0  0.95501  0.15808  0.13561  1.0000
  H   H784      1.0  0.08893  0.37038  0.33498  1.0000
  C   C784      1.0  0.22326  0.14817  0.35528  1.0000
  C   C785      1.0  0.30599  0.29360  0.30124  1.0000
  S   S259      1.0  0.03774  0.42349  0.49829  1.0000
  C   C786      1.0  0.97209  0.42597  0.30174  1.0000
  C   C787      1.0  0.06190  0.25069  0.11109  1.0000
  H   H785      1.0  0.22200  0.26228  0.43778  1.0000
  H   H786      1.0  0.04659  0.44413  0.36759  1.0000
  C   C788      1.0  0.33751  0.28188  0.48690  1.0000
  C   C789      1.0  0.09258  0.26453  0.13610  1.0000
  H   H787      1.0  0.10522  0.26620  0.22349  1.0000
  H   H788      1.0  0.13314  0.21171  0.03820  1.0000
  C   C790      1.0  0.07891  0.34685  0.11576  1.0000
  S   S260      1.0  0.13920  0.32962  0.16998  1.0000
  S   S261      1.0  0.27191  0.43283  0.09681  1.0000
  S   S262      1.0  0.95435  0.27198  0.35198  1.0000
  H   H789      1.0  0.01240  0.44305  0.05074  1.0000
  C   C791      1.0  0.13952  0.12588  0.19348  1.0000
  C   C792      1.0  0.33242  0.45113  0.23966  1.0000
  H   H790      1.0  0.23200  0.24843  0.00837  1.0000
  H   H791      1.0  0.27655  0.44593  0.47304  1.0000
  Fe  Fe133     1.0  0.00240  0.31963  0.01132  1.0000
  C   C793      1.0  0.44481  0.20454  0.21466  1.0000
  C   C794      1.0  0.94933  0.31163  0.14684  1.0000
  H   H792      1.0  0.94801  0.28247  0.12914  1.0000
  H   H793      1.0  0.38662  0.45783  0.01611  1.0000
  H   H794      1.0  0.32434  0.18461  0.98115  1.0000
  S   S263      1.0  0.13044  0.33643  0.92574  1.0000
  C   C795      1.0  0.14603  0.15401  0.56617  1.0000
  C   C796      1.0  0.05472  0.16347  0.53676  1.0000
  C   C797      1.0  0.39157  0.33544  0.73902  1.0000
  C   C798      1.0  0.39556  0.23407  0.56786  1.0000
  H   H795      1.0  0.41725  0.25759  0.55241  1.0000
  C   C799      1.0  0.17281  0.21879  0.90793  1.0000
  H   H796      1.0  0.33720  0.13172  0.56347  1.0000
  C   C800      1.0  0.97994  0.15291  0.81591  1.0000
  H   H797      1.0  0.37374  0.34001  0.65335  1.0000
  H   H798      1.0  0.28874  0.43058  0.97161  1.0000
  C   C801      1.0  0.99714  0.27466  0.55408  1.0000
  N   N69       1.0  0.30718  0.34305  0.72599  1.0000
  H   H799      1.0  0.13850  0.45632  0.93021  1.0000
  C   C802      1.0  0.09010  0.35110  0.82653  1.0000
  C   C803      1.0  0.31236  0.28800  0.93207  1.0000
  C   C804      1.0  0.95276  0.29452  0.56406  1.0000
  H   H800      1.0  0.19913  0.24110  0.91972  1.0000
  H   H801      1.0  0.39515  0.26764  0.84455  1.0000
  C   C805      1.0  0.42476  0.20153  0.93120  1.0000
  C   C806      1.0  0.27827  0.45088  0.99317  1.0000
  H   H802      1.0  0.30125  0.21481  0.92307  1.0000
  S   S264      1.0  0.31540  0.41453  0.82470  1.0000
  H   H803      1.0  0.23244  0.36189  0.71780  1.0000
  S   S265      1.0  0.23345  0.43110  0.88429  1.0000
  C   C807      1.0  0.40529  0.17673  0.90536  1.0000
  C   C808      1.0  0.31083  0.23953  0.94153  1.0000
  S   S266      1.0  0.30479  0.17178  0.75096  1.0000
  S   S267      1.0  0.97041  0.14848  0.91883  1.0000
  H   H804      1.0  0.25326  0.22340  0.87108  1.0000
  C   C809      1.0  0.13473  0.34962  0.80971  1.0000
  Fe  Fe134     1.0  0.07021  0.38665  0.74237  1.0000
  C   C810      1.0  0.16617  0.21553  0.67278  1.0000
  H   H805      1.0  0.18232  0.39438  0.99129  1.0000
  H   H806      1.0  0.17283  0.17267  0.51572  1.0000
  H   H807      1.0  0.10747  0.23085  0.80014  1.0000
  S   S268      1.0  0.38755  0.44986  0.65512  1.0000
  H   H808      1.0  0.39821  0.13949  0.90997  1.0000
  H   H809      1.0  0.21719  0.32027  0.96885  1.0000
  H   H810      1.0  0.07786  0.25036  0.62446  1.0000
  C   C811      1.0  0.39478  0.20042  0.87387  1.0000
  Fe  Fe135     1.0  0.30116  0.38617  0.87835  1.0000
  C   C812      1.0  0.08807  0.34680  0.86239  1.0000
  S   S269      1.0  0.00954  0.28935  0.96018  1.0000
  H   H811      1.0  0.97209  0.38477  0.81585  1.0000
  C   C813      1.0  0.99809  0.21195  0.86859  1.0000
  S   S270      1.0  0.35156  0.44642  0.57516  1.0000
  S   S271      1.0  0.17197  0.12900  0.75499  1.0000
  C   C814      1.0  0.06532  0.17190  0.97577  1.0000
  H   H812      1.0  0.05372  0.34786  0.87540  1.0000
  H   H813      1.0  0.02453  0.26044  0.82905  1.0000
  Fe  Fe136     1.0  0.99308  0.42128  0.98191  1.0000
  H   H814      1.0  0.07353  0.26136  0.70254  1.0000
  N   N70       1.0  0.43374  0.24861  0.92593  1.0000
  H   H815      1.0  0.05062  0.27233  0.51403  1.0000
  S   S272      1.0  0.99979  0.31190  0.64851  1.0000
  Fe  Fe137     1.0  0.32427  0.16408  0.69610  1.0000
  H   H816      1.0  0.28926  0.34639  0.67311  1.0000
  S   S273      1.0  0.34809  0.43618  0.90317  1.0000
  C   C815      1.0  0.04950  0.36715  0.60304  1.0000
  H   H817      1.0  0.25207  0.36661  0.76026  1.0000
  C   C816      1.0  0.19560  0.30566  0.65292  1.0000
  H   H818      1.0  0.26116  0.23063  0.80824  1.0000
  C   C817      1.0  0.40359  0.24860  0.86875  1.0000
  C   C818      1.0  0.08005  0.28539  0.61175  1.0000
  H   H819      1.0  0.01942  0.16761  0.52555  1.0000
  H   H820      1.0  0.43286  0.26976  0.97695  1.0000
  H   H821      1.0  0.33492  0.33722  0.77660  1.0000
  H   H822      1.0  0.15463  0.18017  0.68026  1.0000
  H   H823      1.0  0.42029  0.33198  0.75765  1.0000
  S   S274      1.0  0.24858  0.44257  0.64285  1.0000
  Fe  Fe138     1.0  0.00678  0.16220  0.72792  1.0000
  H   H824      1.0  0.14613  0.32930  0.69135  1.0000
  H   H825      1.0  0.24515  0.30845  0.74447  1.0000
  C   C819      1.0  0.33815  0.17375  0.60770  1.0000
  H   H826      1.0  0.10117  0.22231  0.86301  1.0000
  H   H827      1.0  0.21467  0.19020  0.63391  1.0000
  C   C820      1.0  0.33897  0.25345  0.99812  1.0000
  C   C821      1.0  0.00893  0.22642  0.83479  1.0000
  H   H828      1.0  0.02365  0.39541  0.60897  1.0000
  C   C822      1.0  0.97861  0.16780  0.87615  1.0000
  H   H829      1.0  0.43196  0.18304  0.95567  1.0000
  H   H830      1.0  0.24190  0.40620  0.52566  1.0000
  Fe  Fe139     1.0  0.00450  0.36775  0.68555  1.0000
  H   H831      1.0  0.10999  0.23187  0.97822  1.0000
  H   H832      1.0  0.24179  0.27094  0.61657  1.0000
  C   C823      1.0  0.29098  0.29269  0.53963  1.0000
  H   H833      1.0  0.18754  0.23443  0.77232  1.0000
  H   H834      1.0  0.42930  0.40775  0.53466  1.0000
  H   H835      1.0  0.08673  0.41004  0.56511  1.0000
  C   C824      1.0  0.32448  0.31968  0.95631  1.0000
  C   C825      1.0  0.05955  0.15117  0.57189  1.0000
  H   H836      1.0  0.00540  0.23475  0.88890  1.0000
  H   H837      1.0  0.96684  0.33854  0.87168  1.0000
  S   S275      1.0  0.00746  0.19485  0.67470  1.0000
  H   H838      1.0  0.43980  0.33410  0.69559  1.0000
  C   C826      1.0  0.32428  0.22232  0.97440  1.0000
  C   C827      1.0  0.10863  0.24861  0.71387  1.0000
  H   H839      1.0  0.25757  0.31378  0.54588  1.0000
  H   H840      1.0  0.10597  0.21086  0.72348  1.0000
  H   H841      1.0  0.05729  0.35527  0.81192  1.0000
  C   C828      1.0  0.25694  0.34484  0.73768  1.0000
  C   C829      1.0  0.11504  0.29352  0.58630  1.0000
  H   H842      1.0  0.05582  0.17961  0.94915  1.0000
  S   S276      1.0  0.30275  0.30705  0.88919  1.0000
  C   C830      1.0  0.13963  0.22944  0.81552  1.0000
  S   S277      1.0  0.96050  0.43592  0.68868  1.0000
  S   S278      1.0  0.07458  0.40239  0.68606  1.0000
  C   C831      1.0  0.09611  0.20082  0.99190  1.0000
  H   H843      1.0  0.37987  0.18149  0.85354  1.0000
  C   C832      1.0  0.09562  0.17120  0.51645  1.0000
  C   C833      1.0  0.40260  0.33634  0.70422  1.0000
  C   C834      1.0  0.13629  0.22477  0.85111  1.0000
  C   C835      1.0  0.34994  0.16337  0.57392  1.0000
  C   C836      1.0  0.23445  0.45545  0.68507  1.0000
  H   H844      1.0  0.11488  0.26951  0.73625  1.0000
  C   C837      1.0  0.96809  0.13882  0.84980  1.0000
  C   C838      1.0  0.35475  0.21474  0.62120  1.0000
  C   C839      1.0  0.24622  0.44425  0.52400  1.0000
  C   C840      1.0  0.13068  0.34077  0.88111  1.0000
  C   C841      1.0  0.11656  0.33837  0.56903  1.0000
  H   H845      1.0  0.29097  0.25772  0.55433  1.0000
  H   H846      1.0  0.20739  0.33259  0.87865  1.0000
  Fe  Fe140     1.0  0.96526  0.41915  0.74515  1.0000
  C   C842      1.0  0.10533  0.14610  0.58652  1.0000
  H   H847      1.0  0.13940  0.26465  0.57912  1.0000
  C   C843      1.0  0.22122  0.22487  0.85557  1.0000
  H   H848      1.0  0.32523  0.35720  0.94928  1.0000
  H   H849      1.0  0.18153  0.14978  0.57726  1.0000
  C   C844      1.0  0.37960  0.19322  0.55428  1.0000
  C   C845      1.0  0.18472  0.23156  0.79992  1.0000
  C   C846      1.0  0.34333  0.33852  0.74953  1.0000
  H   H850      1.0  0.96923  0.21128  0.00256  1.0000
  C   C847      1.0  0.36551  0.33998  0.68047  1.0000
  S   S279      1.0  0.13858  0.35465  0.76522  1.0000
  S   S280      1.0  0.15522  0.34817  0.53427  1.0000
  H   H851      1.0  0.21154  0.34164  0.81572  1.0000
  C   C848      1.0  0.16143  0.29880  0.67892  1.0000
  S   S281      1.0  0.39867  0.18021  0.51311  1.0000
  C   C849      1.0  0.21538  0.26634  0.63685  1.0000
  H   H852      1.0  0.32208  0.31233  0.54786  1.0000
  H   H853      1.0  0.20572  0.34134  0.64482  1.0000
  Fe  Fe141     1.0  0.05754  0.34896  0.94800  1.0000
  C   C850      1.0  0.33760  0.30242  0.98948  1.0000
  H   H854      1.0  0.31619  0.15009  0.62310  1.0000
  S   S282      1.0  0.02147  0.21289  0.76752  1.0000
  H   H855      1.0  0.39532  0.27728  0.61097  1.0000
  H   H856      1.0  0.13653  0.23137  0.91659  1.0000
  N   N71       1.0  0.17677  0.22342  0.87064  1.0000
  C   C851      1.0  0.22591  0.22911  0.82001  1.0000
  C   C852      1.0  0.17700  0.34293  0.82854  1.0000
  H   H857      1.0  0.01762  0.25066  0.57170  1.0000
  C   C853      1.0  0.00138  0.19629  0.80864  1.0000
  C   C854      1.0  0.31773  0.34343  0.69184  1.0000
  H   H858      1.0  0.21434  0.45439  0.57322  1.0000
  Fe  Fe142     1.0  0.42041  0.43536  0.60426  1.0000
  H   H859      1.0  0.17918  0.18097  0.91703  1.0000
  C   C855      1.0  0.04659  0.13293  0.99405  1.0000
  C   C856      1.0  0.04655  0.32203  0.61941  1.0000
  C   C857      1.0  0.20047  0.22098  0.64671  1.0000
  S   S283      1.0  0.05633  0.37497  0.00050  1.0000
  C   C858      1.0  0.14115  0.16688  0.53130  1.0000
  C   C859      1.0  0.17478  0.33806  0.86412  1.0000
  S   S284      1.0  0.99870  0.39971  0.92803  1.0000
  H   H860      1.0  0.43063  0.30957  0.89080  1.0000
  S   S285      1.0  0.00257  0.34726  0.74143  1.0000
  H   H861      1.0  0.97425  0.12950  0.79572  1.0000
  C   C860      1.0  0.42345  0.27226  0.89515  1.0000
  C   C861      1.0  0.38270  0.24528  0.60097  1.0000
  S   S286      1.0  0.34176  0.22851  0.66330  1.0000
  N   N72       1.0  0.14699  0.25423  0.68837  1.0000
  C   C862      1.0  0.08460  0.37528  0.57795  1.0000
  C   C863      1.0  0.20823  0.32141  0.99581  1.0000
  H   H862      1.0  0.02799  0.14546  0.58758  1.0000
  C   C864      1.0  0.01518  0.28611  0.52153  1.0000
  S   S287      1.0  0.11294  0.12908  0.62996  1.0000
  H   H863      1.0  0.08117  0.45215  0.81583  1.0000
  Fe  Fe143     1.0  0.94988  0.34226  0.94580  1.0000
  Fe  Fe144     1.0  0.04513  0.12722  0.66098  1.0000
  H   H864      1.0  0.15843  0.45555  0.67656  1.0000
  S   S288      1.0  0.03271  0.45684  0.75228  1.0000
