data_image0
_chemical_formula_structural       FeCSFeS2FeS2FeSFeS3CSHFeSHC6H4C6H4C2SHC7H4NC4H2NH6SHCH5CHCHCH3NC4H2C2HC2H3FeCH2CNH2FeS2FeS2FeSFeS5HFeSC2H2C6H4C6H4C6H4CNCHCNC5HSHCHC2SCHCHFeCH3CFeHC2H5CHCH2FeC2HSH3NCH3NC2NSFeSCSC2SCH3C6FeCNC2H5CH2SHCHCHSC2SHC4S2HFeH2C2HCHSH2C2HCHFeCSHC3S2FeSHFeSCFeSFeSHCH5S2H4CHC6H4CH2CFeHSH3NC6H2NH2C3H4CHSCHSFeS2CHC2HC3H3CHC3H3CNC3H2FeHCH2SHCHCH3CHC2HSFeCSH2SCFeC2NC4SNCFeCHC2HSH2FeS2CSHCHSCH3CHCFeCHSHSC2H2FeHNHC2H2C3SC2H3CHSC2HFeCNFeHSFeSH2C2S2FeSCFeSH2FeS2H2CS2H2CHC6H4C3HNHCSCNH8C4H2CH2CH2NC2HCH2C5H2CSH2C2FeC3FeHFeSH2SHCHC2HC4HNHCS2HC5HC2HC3HC2HC2SCSCH2CFeH4SH5SH2FeN2SFeS2FeS2FeSFeS3HCSNH2CHC4H4C6H5C2H2C6H4C2HCHC2HCH2C2SH3CSCFeC2HC6H3CHCSNH4CHFeCH4CH2FeS2FeS2FeSFeS3CSCHS2FeCHC6H4C6H4C6H4CFeH2CHC2N2CH2NH2CHC2SHCH6CH2CS2FeC6H2CH3CHCH3CH4
_chemical_formula_sum              "Fe56 C336 S112 H336 N28"
_cell_length_a       33.9833
_cell_length_b       33.3167
_cell_length_c       44.9424
_cell_angle_alpha    91.4206
_cell_angle_beta     89.9249
_cell_angle_gamma    89.9329

_space_group_name_H-M_alt    "P 1"
_space_group_IT_number       1

loop_
  _space_group_symop_operation_xyz
  'x, y, z'

loop_
  _atom_site_type_symbol
  _atom_site_label
  _atom_site_symmetry_multiplicity
  _atom_site_fract_x
  _atom_site_fract_y
  _atom_site_fract_z
  _atom_site_occupancy
  Fe  Fe1       1.0  0.49068  0.08205  0.28817  1.0000
  C   C1        1.0  0.07346  0.36871  0.28801  1.0000
  S   S1        1.0  0.43403  0.11781  0.28352  1.0000
  Fe  Fe2       1.0  0.31035  0.25833  0.18785  1.0000
  S   S2        1.0  0.27614  0.22707  0.15135  1.0000
  S   S3        1.0  0.37590  0.24619  0.19109  1.0000
  Fe  Fe3       1.0  0.23760  0.30135  0.21276  1.0000
  S   S4        1.0  0.19760  0.27287  0.17882  1.0000
  S   S5        1.0  0.21496  0.33894  0.25186  1.0000
  Fe  Fe4       1.0  0.23136  0.21656  0.18692  1.0000
  S   S6        1.0  0.20306  0.15583  0.18753  1.0000
  Fe  Fe5       1.0  0.24561  0.28606  0.14596  1.0000
  S   S7        1.0  0.22406  0.30888  0.10185  1.0000
  S   S8        1.0  0.26764  0.24335  0.22383  1.0000
  S   S9        1.0  0.28359  0.31915  0.17952  1.0000
  C   C2        1.0  0.20045  0.20987  0.07543  1.0000
  S   S10       1.0  0.12681  0.10722  0.30987  1.0000
  H   H1        1.0  0.39271  0.13826  0.17397  1.0000
  Fe  Fe6       1.0  0.07546  0.06482  0.30638  1.0000
  S   S11       1.0  0.11904  0.49963  0.23121  1.0000
  H   H2        1.0  0.39667  0.09020  0.21259  1.0000
  C   C3        1.0  0.18865  0.38371  0.24583  1.0000
  C   C4        1.0  0.18353  0.39831  0.21721  1.0000
  C   C5        1.0  0.16237  0.43407  0.21313  1.0000
  C   C6        1.0  0.14569  0.45512  0.23752  1.0000
  C   C7        1.0  0.15064  0.44034  0.26613  1.0000
  C   C8        1.0  0.17233  0.40491  0.27027  1.0000
  H   H3        1.0  0.19592  0.38218  0.19820  1.0000
  H   H4        1.0  0.15870  0.44542  0.19094  1.0000
  H   H5        1.0  0.13819  0.45651  0.28509  1.0000
  H   H6        1.0  0.17621  0.39379  0.29249  1.0000
  C   C9        1.0  0.18031  0.14397  0.22131  1.0000
  C   C10       1.0  0.18701  0.16713  0.24721  1.0000
  C   C11       1.0  0.17056  0.15561  0.27436  1.0000
  C   C12       1.0  0.14651  0.12155  0.27556  1.0000
  C   C13       1.0  0.13925  0.09888  0.24956  1.0000
  C   C14       1.0  0.15648  0.10981  0.22256  1.0000
  H   H7        1.0  0.20524  0.19356  0.24646  1.0000
  H   H8        1.0  0.17625  0.17324  0.29443  1.0000
  H   H9        1.0  0.09698  0.32455  0.31758  1.0000
  H   H10       1.0  0.15117  0.09184  0.20259  1.0000
  C   C15       1.0  0.28924  0.28534  0.06900  1.0000
  C   C16       1.0  0.25015  0.29839  0.06869  1.0000
  S   S12       1.0  0.07193  0.51282  0.31353  1.0000
  H   H11       1.0  0.30421  0.28159  0.08999  1.0000
  C   C17       1.0  0.31146  0.08981  0.25185  1.0000
  C   C18       1.0  0.42079  0.15585  0.25878  1.0000
  C   C19       1.0  0.38326  0.17309  0.26190  1.0000
  C   C20       1.0  0.36934  0.20059  0.24125  1.0000
  C   C21       1.0  0.39317  0.21200  0.21759  1.0000
  C   C22       1.0  0.43126  0.19578  0.21490  1.0000
  C   C23       1.0  0.44494  0.16740  0.23526  1.0000
  H   H12       1.0  0.36445  0.16433  0.28008  1.0000
  H   H13       1.0  0.34023  0.21305  0.24386  1.0000
  H   H14       1.0  0.45003  0.20464  0.19673  1.0000
  H   H15       1.0  0.47393  0.15429  0.23268  1.0000
  N   N1        1.0  0.34353  0.11956  0.19990  1.0000
  C   C24       1.0  0.36600  0.09615  0.21786  1.0000
  C   C25       1.0  0.30504  0.12740  0.20691  1.0000
  C   C26       1.0  0.35042  0.08122  0.24421  1.0000
  C   C27       1.0  0.28847  0.11278  0.23300  1.0000
  H   H16       1.0  0.22950  0.21673  0.08572  1.0000
  H   H17       1.0  0.29923  0.07896  0.27246  1.0000
  N   N2        1.0  0.07192  0.38178  0.25942  1.0000
  H   H18       1.0  0.28700  0.14538  0.19244  1.0000
  H   H19       1.0  0.27053  0.41173  0.26317  1.0000
  H   H20       1.0  0.05717  0.44206  0.27028  1.0000
  H   H21       1.0  0.27207  0.40030  0.22399  1.0000
  H   H22       1.0  0.12728  0.30992  0.22505  1.0000
  H   H23       1.0  0.36899  0.06428  0.25908  1.0000
  S   S13       1.0  0.51386  0.07771  0.33509  1.0000
  H   H24       1.0  0.35282  0.11475  0.15330  1.0000
  C   C28       1.0  0.05012  0.41850  0.25321  1.0000
  H   H25       1.0  0.28575  0.35098  0.28596  1.0000
  H   H26       1.0  0.32986  0.29281  0.29275  1.0000
  H   H27       1.0  0.33996  0.26905  0.04235  1.0000
  H   H28       1.0  0.18898  0.18173  0.08493  1.0000
  H   H29       1.0  0.39739  0.32821  0.21699  1.0000
  C   C29       1.0  0.09014  0.36061  0.23684  1.0000
  H   H30       1.0  0.25804  0.11945  0.23856  1.0000
  C   C30       1.0  0.31073  0.34670  0.27114  1.0000
  H   H31       1.0  0.30746  0.43471  0.24068  1.0000
  C   C31       1.0  0.29066  0.40657  0.24390  1.0000
  H   H32       1.0  0.05857  0.38553  0.30578  1.0000
  H   H33       1.0  0.18068  0.23525  0.08199  1.0000
  H   H34       1.0  0.08932  0.37130  0.21425  1.0000
  N   N3        1.0  0.31738  0.37270  0.24855  1.0000
  C   C32       1.0  0.34810  0.36640  0.22928  1.0000
  C   C33       1.0  0.33553  0.31370  0.27511  1.0000
  C   C34       1.0  0.37353  0.33379  0.23267  1.0000
  C   C35       1.0  0.36725  0.30744  0.25582  1.0000
  H   H35       1.0  0.35267  0.38624  0.21082  1.0000
  H   H36       1.0  0.38659  0.28181  0.25842  1.0000
  C   C36       1.0  0.11153  0.32581  0.24277  1.0000
  C   C37       1.0  0.36019  0.13512  0.17238  1.0000
  H   H37       1.0  0.34853  0.16566  0.16808  1.0000
  C   C38       1.0  0.09489  0.33421  0.29477  1.0000
  C   C39       1.0  0.11423  0.31283  0.27197  1.0000
  H   H38       1.0  0.12079  0.07264  0.25020  1.0000
  H   H39       1.0  0.13192  0.28666  0.27690  1.0000
  H   H40       1.0  0.05824  0.43101  0.23132  1.0000
  Fe  Fe7       1.0  0.07606  0.52626  0.26497  1.0000
  C   C40       1.0  0.30941  0.27825  0.04202  1.0000
  H   H41       1.0  0.17258  0.05271  0.34910  1.0000
  H   H42       1.0  0.20069  0.31310  0.04103  1.0000
  C   C41       1.0  0.23103  0.30323  0.04136  1.0000
  N   N4        1.0  0.20320  0.20583  0.04291  1.0000
  H   H43       1.0  0.26554  0.19746  0.04264  1.0000
  H   H44       1.0  0.14142  0.21350  0.03680  1.0000
  Fe  Fe8       1.0  0.28506  0.27481  0.93718  1.0000
  S   S14       1.0  0.31177  0.29956  0.89552  1.0000
  S   S15       1.0  0.31698  0.27579  0.98132  1.0000
  Fe  Fe9       1.0  0.21322  0.24427  0.90503  1.0000
  S   S16       1.0  0.23317  0.26595  0.86078  1.0000
  S   S17       1.0  0.15410  0.21582  0.91133  1.0000
  Fe  Fe10      1.0  0.29243  0.24148  0.87358  1.0000
  S   S18       1.0  0.32459  0.20621  0.83716  1.0000
  Fe  Fe11      1.0  0.25050  0.32190  0.88588  1.0000
  S   S19       1.0  0.24040  0.38392  0.86761  1.0000
  S   S20       1.0  0.27060  0.21495  0.91591  1.0000
  S   S21       1.0  0.22578  0.30228  0.92950  1.0000
  S   S22       1.0  0.13816  0.05005  0.84139  1.0000
  S   S23       1.0  0.48026  0.10571  0.85891  1.0000
  H   H45       1.0  0.09951  0.22717  0.85217  1.0000
  Fe  Fe12      1.0  0.04469  0.49693  0.81486  1.0000
  S   S24       1.0  0.06609  0.44178  0.83897  1.0000
  C   C42       1.0  0.23602  0.40600  0.98550  1.0000
  C   C43       1.0  0.30692  0.37935  0.96164  1.0000
  H   H46       1.0  0.09106  0.12328  0.77687  1.0000
  H   H47       1.0  0.32290  0.36456  0.00641  1.0000
  C   C44       1.0  0.19201  0.39927  0.85867  1.0000
  C   C45       1.0  0.18591  0.43673  0.84568  1.0000
  C   C46       1.0  0.14757  0.45015  0.83915  1.0000
  C   C47       1.0  0.11505  0.42627  0.84583  1.0000
  C   C48       1.0  0.12125  0.38890  0.85893  1.0000
  C   C49       1.0  0.15952  0.37536  0.86523  1.0000
  H   H48       1.0  0.21091  0.45543  0.84060  1.0000
  H   H49       1.0  0.14313  0.47900  0.82914  1.0000
  H   H50       1.0  0.09623  0.37033  0.86424  1.0000
  H   H51       1.0  0.16379  0.34654  0.87532  1.0000
  C   C50       1.0  0.36548  0.17526  0.84467  1.0000
  C   C51       1.0  0.38088  0.15047  0.82172  1.0000
  C   C52       1.0  0.41519  0.12770  0.82617  1.0000
  C   C53       1.0  0.43451  0.12978  0.85361  1.0000
  C   C54       1.0  0.41863  0.15386  0.87679  1.0000
  C   C55       1.0  0.38418  0.17647  0.87238  1.0000
  H   H52       1.0  0.36651  0.14933  0.80025  1.0000
  H   H53       1.0  0.42713  0.10923  0.80818  1.0000
  H   H54       1.0  0.43340  0.15554  0.89809  1.0000
  H   H55       1.0  0.37254  0.19542  0.89022  1.0000
  C   C56       1.0  0.14243  0.09466  0.86274  1.0000
  C   C57       1.0  0.17981  0.11040  0.86894  1.0000
  C   C58       1.0  0.18366  0.14752  0.88410  1.0000
  C   C59       1.0  0.15011  0.16845  0.89373  1.0000
  C   C60       1.0  0.11280  0.15204  0.88847  1.0000
  C   C61       1.0  0.10895  0.11534  0.87280  1.0000
  H   H56       1.0  0.20581  0.09437  0.86135  1.0000
  H   H57       1.0  0.21258  0.15992  0.88809  1.0000
  H   H58       1.0  0.08680  0.16795  0.89619  1.0000
  H   H59       1.0  0.08011  0.10280  0.86893  1.0000
  C   C62       1.0  0.29034  0.28327  0.01467  1.0000
  N   N5        1.0  0.24276  0.40847  0.95555  1.0000
  C   C63       1.0  0.27757  0.39514  0.94353  1.0000
  H   H60       1.0  0.26997  0.18941  0.98789  1.0000
  C   C64       1.0  0.26502  0.39100  0.00433  1.0000
  N   N6        1.0  0.13341  0.19699  0.81877  1.0000
  C   C65       1.0  0.17171  0.18423  0.81767  1.0000
  C   C66       1.0  0.10469  0.17565  0.80411  1.0000
  C   C67       1.0  0.18191  0.14878  0.80221  1.0000
  C   C68       1.0  0.11391  0.14019  0.78832  1.0000
  C   C69       1.0  0.15269  0.12649  0.78765  1.0000
  H   H61       1.0  0.19455  0.20073  0.82943  1.0000
  S   S25       1.0  0.51026  0.07616  0.77497  1.0000
  H   H62       1.0  0.11189  0.25693  0.82014  1.0000
  C   C70       1.0  0.46426  0.20240  0.78686  1.0000
  H   H63       1.0  0.19501  0.39717  0.92626  1.0000
  C   C71       1.0  0.50060  0.20340  0.84204  1.0000
  C   C72       1.0  0.21166  0.42305  0.93597  1.0000
  S   S26       1.0  0.02712  0.08306  0.82190  1.0000
  C   C73       1.0  0.25090  0.29523  0.01444  1.0000
  H   H64       1.0  0.07435  0.18579  0.80471  1.0000
  C   C74       1.0  0.20744  0.19589  0.98137  1.0000
  H   H65       1.0  0.14799  0.24652  0.84818  1.0000
  Fe  Fe13      1.0  0.07836  0.04049  0.82119  1.0000
  C   C75       1.0  0.50035  0.18303  0.79104  1.0000
  H   H66       1.0  0.28267  0.39615  0.91974  1.0000
  H   H67       1.0  0.15992  0.09837  0.77626  1.0000
  H   H68       1.0  0.44983  0.20099  0.76535  1.0000
  C   C76       1.0  0.12268  0.23375  0.83550  1.0000
  Fe  Fe14      1.0  0.02540  0.07113  0.77275  1.0000
  H   H69       1.0  0.23587  0.29902  0.99355  1.0000
  C   C77       1.0  0.17128  0.20309  0.99517  1.0000
  C   C78       1.0  0.46476  0.22347  0.83856  1.0000
  H   H70       1.0  0.33399  0.36759  0.95195  1.0000
  H   H71       1.0  0.14480  0.20497  0.98174  1.0000
  H   H72       1.0  0.20890  0.19192  0.95737  1.0000
  H   H73       1.0  0.45042  0.23802  0.85753  1.0000
  H   H74       1.0  0.41766  0.23655  0.80824  1.0000
  C   C79       1.0  0.16966  0.20794  0.02619  1.0000
  H   H75       1.0  0.21212  0.13819  0.80224  1.0000
  C   C80       1.0  0.30065  0.37761  0.99224  1.0000
  H   H76       1.0  0.20800  0.41535  0.99497  1.0000
  H   H77       1.0  0.22434  0.44016  0.91729  1.0000
  Fe  Fe15      1.0  0.50463  0.06272  0.82360  1.0000
  C   C81       1.0  0.44636  0.22264  0.81084  1.0000
  C   C82       1.0  0.24152  0.19390  0.99854  1.0000
  H   H78       1.0  0.19081  0.44340  0.94799  1.0000
  S   S27       1.0  0.03107  0.49452  0.76575  1.0000
  H   H79       1.0  0.51399  0.16726  0.77232  1.0000
  H   H80       1.0  0.51390  0.20277  0.86395  1.0000
  H   H81       1.0  0.25951  0.38854  0.02803  1.0000
  N   N7        1.0  0.51769  0.18314  0.81852  1.0000
  C   C83       1.0  0.23881  0.19864  0.02951  1.0000
  H   H82       1.0  0.14661  0.60576  0.32391  1.0000
  H   H83       1.0  0.21300  0.63671  0.32838  1.0000
  H   H84       1.0  0.15258  0.94779  0.29376  1.0000
  N   N8        1.0  0.06919  0.71085  0.31195  1.0000
  C   C84       1.0  0.12165  0.64166  0.35967  1.0000
  C   C85       1.0  0.13923  0.71872  0.30740  1.0000
  N   N9        1.0  0.46028  0.86202  0.31218  1.0000
  S   S28       1.0  0.06986  0.91494  0.30985  1.0000
  Fe  Fe16      1.0  0.05522  0.57805  0.31947  1.0000
  S   S29       1.0  0.06509  0.59261  0.27149  1.0000
  C   C86       1.0  0.19697  0.67723  0.36454  1.0000
  S   S30       1.0  0.48823  0.96788  0.36112  1.0000
  C   C87       1.0  0.38167  0.93007  0.33010  1.0000
  C   C88       1.0  0.41781  0.95036  0.33278  1.0000
  S   S31       1.0  0.07350  0.62195  0.35641  1.0000
  C   C89       1.0  0.44075  0.94633  0.35834  1.0000
  H   H85       1.0  0.36447  0.93281  0.31001  1.0000
  H   H86       1.0  0.42818  0.96856  0.31485  1.0000
  H   H87       1.0  0.19237  0.90768  0.32829  1.0000
  C   C90       1.0  0.15203  0.62903  0.34061  1.0000
  C   C91       1.0  0.09343  0.90145  0.34287  1.0000
  C   C92       1.0  0.43687  0.83481  0.33027  1.0000
  C   C93       1.0  0.18961  0.64659  0.34320  1.0000
  C   C94       1.0  0.13887  0.74703  0.33078  1.0000
  C   C95       1.0  0.18814  0.93950  0.33297  1.0000
  Fe  Fe17      1.0  0.04751  0.97854  0.31052  1.0000
  C   C96       1.0  0.10345  0.75652  0.34505  1.0000
  N   N10       1.0  0.20376  0.95710  0.35812  1.0000
  C   C97       1.0  0.16598  0.96209  0.31320  1.0000
  C   C98       1.0  0.51818  0.90228  0.30569  1.0000
  H   H88       1.0  0.16630  0.76015  0.33869  1.0000
  H   H89       1.0  0.10304  0.77737  0.36398  1.0000
  H   H90       1.0  0.03423  0.92946  0.18970  1.0000
  H   H91       1.0  0.50368  0.87217  0.34586  1.0000
  H   H92       1.0  0.14381  0.02107  0.30374  1.0000
  C   C99       1.0  0.10395  0.70054  0.29837  1.0000
  H   H93       1.0  0.10471  0.67754  0.28087  1.0000
  H   H94       1.0  0.44572  0.80323  0.32553  1.0000
  S   S32       1.0  0.24390  0.70014  0.36578  1.0000
  H   H95       1.0  0.16695  0.70972  0.29721  1.0000
  C   C100      1.0  0.49473  0.87761  0.32314  1.0000
  H   H96       1.0  0.12034  0.84880  0.32283  1.0000
  C   C101      1.0  0.11754  0.86736  0.34282  1.0000
  H   H97       1.0  0.40487  0.83814  0.32565  1.0000
  S   S33       1.0  0.32411  0.87818  0.34733  1.0000
  C   C102      1.0  0.17695  0.02085  0.34448  1.0000
  C   C103      1.0  0.16064  0.00305  0.31896  1.0000
  S   S34       1.0  0.06171  0.02609  0.34499  1.0000
  H   H98       1.0  0.42115  0.85778  0.27520  1.0000
  C   C104      1.0  0.44851  0.87005  0.28383  1.0000
  C   C105      1.0  0.47133  0.89458  0.26575  1.0000
  C   C106      1.0  0.36791  0.90587  0.35304  1.0000
  C   C107      1.0  0.06872  0.73783  0.33540  1.0000
  S   S35       1.0  0.48461  0.01524  0.28064  1.0000
  S   S36       1.0  0.06654  0.01566  0.27221  1.0000
  H   H99       1.0  0.44079  0.84160  0.35444  1.0000
  Fe  Fe18      1.0  0.51001  0.01111  0.32643  1.0000
  H   H100      1.0  0.46185  0.90132  0.24338  1.0000
  H   H101      1.0  0.03410  0.68039  0.27888  1.0000
  C   C108      1.0  0.03240  0.69157  0.30237  1.0000
  C   C109      1.0  0.50643  0.91065  0.27678  1.0000
  H   H102      1.0  0.04146  0.74463  0.34705  1.0000
  C   C110      1.0  0.19867  0.99729  0.36393  1.0000
  H   H103      1.0  0.02593  0.66573  0.31676  1.0000
  S   S37       1.0  0.23729  0.81475  0.36950  1.0000
  H   H104      1.0  0.06981  0.95038  0.36950  1.0000
  H   H105      1.0  0.15707  0.83133  0.36836  1.0000
  C   C111      1.0  0.08947  0.92496  0.36890  1.0000
  C   C112      1.0  0.13874  0.85772  0.36844  1.0000
  H   H106      1.0  0.02365  0.93594  0.25776  1.0000
  C   C113      1.0  0.13568  0.88193  0.39420  1.0000
  H   H107      1.0  0.22353  0.94320  0.40174  1.0000
  Fe  Fe19      1.0  0.25664  0.77651  0.65203  1.0000
  C   C114      1.0  0.11055  0.91521  0.39454  1.0000
  S   S38       1.0  0.25349  0.73981  0.60903  1.0000
  H   H108      1.0  0.26527  0.87567  0.49483  1.0000
  C   C115      1.0  0.14944  0.91017  0.69795  1.0000
  C   C116      1.0  0.12708  0.94546  0.69949  1.0000
  C   C117      1.0  0.48387  0.89046  0.69865  1.0000
  S   S39       1.0  0.19714  0.78975  0.67192  1.0000
  S   S40       1.0  0.28103  0.83869  0.65957  1.0000
  Fe  Fe20      1.0  0.25524  0.75824  0.39181  1.0000
  S   S41       1.0  0.23084  0.77675  0.43678  1.0000
  H   H109      1.0  0.35587  0.89681  0.68935  1.0000
  Fe  Fe21      1.0  0.29659  0.83908  0.38246  1.0000
  S   S42       1.0  0.27508  0.86384  0.42618  1.0000
  C   C118      1.0  0.46197  0.85509  0.69713  1.0000
  Fe  Fe22      1.0  0.29048  0.80395  0.44484  1.0000
  S   S43       1.0  0.32097  0.81094  0.48942  1.0000
  Fe  Fe23      1.0  0.21763  0.83494  0.41493  1.0000
  S   S44       1.0  0.31685  0.78076  0.40148  1.0000
  H   H110      1.0  0.44435  0.91919  0.40131  1.0000
  C   C119      1.0  0.18372  0.58194  0.69904  1.0000
  H   H111      1.0  0.16195  0.55860  0.69498  1.0000
  H   H112      1.0  0.21139  0.01132  0.38370  1.0000
  H   H113      1.0  0.21455  0.83170  0.59216  1.0000
  H   H114      1.0  0.17206  0.71290  0.40043  1.0000
  H   H115      1.0  0.48231  0.91178  0.68082  1.0000
  S   S45       1.0  0.19177  0.90796  0.67570  1.0000
  S   S46       1.0  0.16404  0.87179  0.42574  1.0000
  H   H116      1.0  0.10591  0.68145  0.39634  1.0000
  H   H117      1.0  0.21837  0.88867  0.47877  1.0000
  H   H118      1.0  0.44331  0.84856  0.67804  1.0000
  H   H119      1.0  0.17016  0.77902  0.57153  1.0000
  C   C120      1.0  0.22780  0.93325  0.37816  1.0000
  H   H120      1.0  0.26224  0.67445  0.65895  1.0000
  C   C121      1.0  0.30122  0.79115  0.52230  1.0000
  C   C122      1.0  0.27438  0.75935  0.52154  1.0000
  C   C123      1.0  0.26057  0.74331  0.54829  1.0000
  C   C124      1.0  0.27254  0.75974  0.57592  1.0000
  C   C125      1.0  0.29881  0.79201  0.57664  1.0000
  C   C126      1.0  0.31344  0.80730  0.54992  1.0000
  H   H121      1.0  0.26512  0.74643  0.50037  1.0000
  H   H122      1.0  0.24036  0.71825  0.54755  1.0000
  H   H123      1.0  0.30847  0.80468  0.59777  1.0000
  H   H124      1.0  0.33445  0.83169  0.55064  1.0000
  C   C127      1.0  0.16666  0.68958  0.38378  1.0000
  H   H125      1.0  0.13513  0.97073  0.68609  1.0000
  H   H126      1.0  0.21288  0.69434  0.66114  1.0000
  C   C128      1.0  0.23050  0.66638  0.65833  1.0000
  Fe  Fe24      1.0  0.22332  0.85005  0.68251  1.0000
  H   H127      1.0  0.10761  0.93371  0.41456  1.0000
  S   S47       1.0  0.28151  0.75302  0.69469  1.0000
  H   H128      1.0  0.38010  0.88384  0.39671  1.0000
  H   H129      1.0  0.15558  0.77652  0.51714  1.0000
  H   H130      1.0  0.23608  0.91625  0.51073  1.0000
  N   N11       1.0  0.21589  0.85726  0.51969  1.0000
  C   C129      1.0  0.19148  0.82825  0.50807  1.0000
  C   C130      1.0  0.22432  0.85857  0.54947  1.0000
  C   C131      1.0  0.17435  0.79988  0.52652  1.0000
  C   C132      1.0  0.20727  0.83105  0.56862  1.0000
  C   C133      1.0  0.18231  0.80142  0.55700  1.0000
  C   C134      1.0  0.23482  0.88589  0.50002  1.0000
  H   H131      1.0  0.18534  0.82677  0.48435  1.0000
  H   H132      1.0  0.24489  0.88054  0.55850  1.0000
  N   N12       1.0  0.22071  0.63836  0.68186  1.0000
  H   H133      1.0  0.22469  0.65342  0.63573  1.0000
  H   H134      1.0  0.10794  0.65028  0.69011  1.0000
  C   C135      1.0  0.42677  0.92248  0.38145  1.0000
  C   C136      1.0  0.39035  0.90249  0.37892  1.0000
  C   C137      1.0  0.12923  0.67170  0.38142  1.0000
  H   H135      1.0  0.18145  0.60368  0.65454  1.0000
  H   H136      1.0  0.15365  0.70776  0.69848  1.0000
  H   H137      1.0  0.39351  0.96076  0.69008  1.0000
  H   H138      1.0  0.21924  0.90113  0.37692  1.0000
  C   C138      1.0  0.19465  0.60775  0.67636  1.0000
  H   H139      1.0  0.25945  0.93557  0.37206  1.0000
  S   S48       1.0  0.24422  0.83317  0.72764  1.0000
  C   C139      1.0  0.27911  0.93489  0.72964  1.0000
  H   H140      1.0  0.02671  0.65580  0.73459  1.0000
  S   S49       1.0  0.45025  0.99405  0.73081  1.0000
  Fe  Fe25      1.0  0.04854  0.55985  0.76677  1.0000
  S   S50       1.0  0.06690  0.56072  0.81486  1.0000
  S   S51       1.0  0.08028  0.58877  0.72840  1.0000
  C   C140      1.0  0.09134  0.74380  0.78422  1.0000
  H   H141      1.0  0.21187  0.97189  0.71653  1.0000
  C   C141      1.0  0.21484  0.96582  0.74003  1.0000
  C   C142      1.0  0.37677  0.87893  0.73224  1.0000
  H   H142      1.0  0.07710  0.97547  0.71956  1.0000
  C   C143      1.0  0.41958  0.95148  0.73307  1.0000
  C   C144      1.0  0.42132  0.92616  0.75738  1.0000
  C   C145      1.0  0.40012  0.88992  0.75687  1.0000
  H   H143      1.0  0.29489  0.90772  0.73720  1.0000
  H   H144      1.0  0.43993  0.93390  0.77614  1.0000
  H   H145      1.0  0.40269  0.86978  0.77529  1.0000
  C   C146      1.0  0.22184  0.95112  0.80022  1.0000
  H   H146      1.0  0.27752  0.92452  0.78827  1.0000
  C   C147      1.0  0.08381  0.91551  0.73570  1.0000
  C   C148      1.0  0.10566  0.87992  0.73367  1.0000
  C   C149      1.0  0.48496  0.83906  0.74622  1.0000
  H   H147      1.0  0.16494  0.97945  0.80518  1.0000
  H   H148      1.0  0.09747  0.85459  0.74692  1.0000
  H   H149      1.0  0.05609  0.68806  0.84081  1.0000
  C   C150      1.0  0.10995  0.63119  0.73557  1.0000
  N   N13       1.0  0.24737  0.94632  0.75031  1.0000
  C   C151      1.0  0.16228  0.69577  0.74485  1.0000
  C   C152      1.0  0.15170  0.67113  0.76844  1.0000
  C   C153      1.0  0.12537  0.63913  0.76389  1.0000
  H   H150      1.0  0.16421  0.67661  0.79030  1.0000
  H   H151      1.0  0.11798  0.61990  0.78211  1.0000
  Fe  Fe26      1.0  0.49260  0.01132  0.76791  1.0000
  H   H152      1.0  0.11417  0.76547  0.77924  1.0000
  C   C154      1.0  0.18461  0.97767  0.75953  1.0000
  H   H153      1.0  0.23687  0.62506  0.75524  1.0000
  H   H154      1.0  0.19005  0.56882  0.74548  1.0000
  S   S52       1.0  0.48279  0.99960  0.81629  1.0000
  H   H155      1.0  0.22498  0.94555  0.82378  1.0000
  C   C155      1.0  0.05919  0.70010  0.81868  1.0000
  H   H156      1.0  0.26730  0.92740  0.70709  1.0000
  C   C156      1.0  0.25138  0.93934  0.78004  1.0000
  H   H157      1.0  0.15847  0.99228  0.75117  1.0000
  H   H158      1.0  0.07087  0.73940  0.73914  1.0000
  H   H159      1.0  0.30060  0.95983  0.72793  1.0000
  C   C157      1.0  0.39495  0.94127  0.70896  1.0000
  H   H160      1.0  0.10704  0.73984  0.83049  1.0000
  C   C158      1.0  0.03496  0.68605  0.79556  1.0000
  C   C159      1.0  0.06676  0.72885  0.76158  1.0000
  H   H161      1.0  0.15590  0.85009  0.71398  1.0000
  S   S53       1.0  0.19609  0.73485  0.75166  1.0000
  Fe  Fe27      1.0  0.03824  0.98167  0.77902  1.0000
  C   C160      1.0  0.08755  0.72917  0.81291  1.0000
  S   S54       1.0  0.04123  0.98608  0.82867  1.0000
  H   H162      1.0  0.44410  0.80251  0.72054  1.0000
  H   H163      1.0  0.51128  0.90766  0.78783  1.0000
  S   S55       1.0  0.35613  0.83035  0.73030  1.0000
  C   C161      1.0  0.14595  0.68863  0.71669  1.0000
  Fe  Fe28      1.0  0.30039  0.81690  0.70425  1.0000
  C   C162      1.0  0.13873  0.87740  0.71504  1.0000
  C   C163      1.0  0.11993  0.65627  0.71206  1.0000
  N   N14       1.0  0.03871  0.70068  0.76752  1.0000
  C   C164      1.0  0.18818  0.97025  0.78981  1.0000
  C   C165      1.0  0.50601  0.89944  0.72418  1.0000
  C   C166      1.0  0.46252  0.82913  0.72101  1.0000
  C   C167      1.0  0.19942  0.58777  0.72748  1.0000
  S   S56       1.0  0.04389  0.91906  0.76028  1.0000
  N   N15       1.0  0.50657  0.87372  0.74745  1.0000
  C   C168      1.0  0.09445  0.94825  0.71855  1.0000
  Fe  Fe29      1.0  0.22365  0.77109  0.71507  1.0000
  C   C169      1.0  0.22568  0.61925  0.73294  1.0000
  H   H164      1.0  0.48405  0.81943  0.76509  1.0000
  C   C170      1.0  0.23587  0.64457  0.70979  1.0000
  C   C171      1.0  0.37350  0.90516  0.70855  1.0000
  H   H165      1.0  0.25504  0.66995  0.71455  1.0000
  S   S57       1.0  0.07963  0.03276  0.77160  1.0000
  H   H166      1.0  0.93195  0.08590  0.32025  1.0000
  H   H167      1.0  0.92100  0.26099  0.31109  1.0000
  Fe  Fe30      1.0  0.57391  0.07471  0.31384  1.0000
  S   S58       1.0  0.63526  0.09633  0.32649  1.0000
  S   S59       1.0  0.55117  0.08422  0.26750  1.0000
  C   C172      1.0  0.69805  0.19278  0.35552  1.0000
  S   S60       1.0  0.85618  0.20828  0.33757  1.0000
  H   H168      1.0  0.96749  0.24923  0.29328  1.0000
  C   C173      1.0  0.93280  0.38699  0.33972  1.0000
  H   H169      1.0  0.58802  0.16087  0.35427  1.0000
  S   S61       1.0  0.98440  0.43950  0.31437  1.0000
  C   C174      1.0  0.94375  0.42749  0.33731  1.0000
  H   H170      1.0  0.73785  0.35441  0.32766  1.0000
  H   H171      1.0  0.89273  0.34469  0.35940  1.0000
  H   H172      1.0  0.99025  0.17409  0.31287  1.0000
  C   C175      1.0  0.99809  0.17299  0.36023  1.0000
  H   H173      1.0  0.68603  0.36604  0.32555  1.0000
  C   C176      1.0  0.94337  0.23705  0.30705  1.0000
  Fe  Fe31      1.0  0.00745  0.50219  0.30453  1.0000
  C   C177      1.0  0.88086  0.16550  0.34935  1.0000
  H   H174      1.0  0.70870  0.13691  0.33165  1.0000
  S   S62       1.0  0.79158  0.29572  0.36226  1.0000
  H   H175      1.0  0.76502  0.39741  0.36435  1.0000
  S   S63       1.0  0.01431  0.08864  0.30265  1.0000
  C   C178      1.0  0.89621  0.13848  0.32804  1.0000
  C   C179      1.0  0.90087  0.37592  0.35778  1.0000
  H   H176      1.0  0.89041  0.14266  0.30465  1.0000
  H   H177      1.0  0.92817  0.21245  0.29444  1.0000
  Fe  Fe32      1.0  0.99923  0.04548  0.33831  1.0000
  H   H178      1.0  0.64955  0.04569  0.26430  1.0000
  N   N16       1.0  0.95911  0.22177  0.33495  1.0000
  H   H179      1.0  0.94911  0.36406  0.32752  1.0000
  C   C180      1.0  0.64704  0.14429  0.34158  1.0000
  C   C181      1.0  0.91995  0.10655  0.33684  1.0000
  H   H180      1.0  0.92986  0.26566  0.36247  1.0000
  H   H181      1.0  0.01602  0.14596  0.35947  1.0000
  C   C182      1.0  0.94961  0.24004  0.36163  1.0000
  C   C183      1.0  0.98326  0.18889  0.33398  1.0000
  C   C184      1.0  0.68667  0.15616  0.34198  1.0000
  S   S64       1.0  0.01267  0.51319  0.25558  1.0000
  C   C185      1.0  0.61863  0.16978  0.35441  1.0000
  C   C186      1.0  0.70894  0.35113  0.33896  1.0000
  H   H182      1.0  0.70249  0.31838  0.33951  1.0000
  H   H183      1.0  0.01793  0.41274  0.25382  1.0000
  H   H184      1.0  0.72868  0.20153  0.35549  1.0000
  C   C187      1.0  0.92240  0.45693  0.35315  1.0000
  H   H185      1.0  0.93061  0.48817  0.35157  1.0000
  S   S65       1.0  0.97682  0.04835  0.22728  1.0000
  C   C188      1.0  0.66983  0.21795  0.36888  1.0000
  C   C189      1.0  0.63005  0.20653  0.36803  1.0000
  H   H186      1.0  0.94216  0.05010  0.17050  1.0000
  Fe  Fe33      1.0  0.00377  0.03615  0.27157  1.0000
  C   C190      1.0  0.92859  0.10180  0.36693  1.0000
  N   N17       1.0  0.70938  0.36836  0.36931  1.0000
  Fe  Fe34      1.0  0.80527  0.27475  0.65339  1.0000
  H   H187      1.0  0.69998  0.18337  0.42314  1.0000
  S   S66       1.0  0.80485  0.31088  0.61136  1.0000
  Fe  Fe35      1.0  0.82617  0.19970  0.68724  1.0000
  S   S67       1.0  0.68387  0.26299  0.38762  1.0000
  H   H188      1.0  0.73590  0.11177  0.38048  1.0000
  H   H189      1.0  0.68134  0.13681  0.40768  1.0000
  C   C191      1.0  0.66553  0.17927  0.65527  1.0000
  C   C192      1.0  0.80321  0.12849  0.44870  1.0000
  S   S68       1.0  0.77249  0.21760  0.66166  1.0000
  S   S69       1.0  0.86087  0.25382  0.67480  1.0000
  Fe  Fe36      1.0  0.74913  0.27147  0.39548  1.0000
  S   S70       1.0  0.78544  0.21779  0.40530  1.0000
  C   C193      1.0  0.98822  0.19112  0.38754  1.0000
  Fe  Fe37      1.0  0.82051  0.32762  0.40091  1.0000
  S   S71       1.0  0.86199  0.27736  0.41167  1.0000
  H   H190      1.0  0.65394  0.34264  0.38024  1.0000
  H   H191      1.0  0.66217  0.25927  0.66237  1.0000
  Fe  Fe38      1.0  0.81307  0.25598  0.44141  1.0000
  S   S72       1.0  0.81976  0.22282  0.48462  1.0000
  S   S73       1.0  0.77362  0.30877  0.43355  1.0000
  H   H192      1.0  0.68514  0.14342  0.44727  1.0000
  H   H193      1.0  0.95544  0.23884  0.40946  1.0000
  C   C194      1.0  0.71707  0.22531  0.59089  1.0000
  S   S74       1.0  0.78295  0.30675  0.69478  1.0000
  S   S75       1.0  0.83931  0.39258  0.39676  1.0000
  H   H194      1.0  0.70462  0.16541  0.60477  1.0000
  H   H195      1.0  0.93708  0.30748  0.67914  1.0000
  C   C195      1.0  0.75448  0.11611  0.39990  1.0000
  H   H196      1.0  0.85404  0.38722  0.61865  1.0000
  C   C196      1.0  0.80998  0.28612  0.57631  1.0000
  C   C197      1.0  0.81632  0.24470  0.57393  1.0000
  C   C198      1.0  0.81931  0.22572  0.54568  1.0000
  C   C199      1.0  0.81593  0.24795  0.51963  1.0000
  C   C200      1.0  0.80935  0.28935  0.52204  1.0000
  C   C201      1.0  0.80642  0.30834  0.55029  1.0000
  H   H197      1.0  0.81917  0.22728  0.59383  1.0000
  H   H198      1.0  0.82462  0.19371  0.54400  1.0000
  H   H199      1.0  0.80678  0.30677  0.50214  1.0000
  H   H200      1.0  0.80142  0.34039  0.55196  1.0000
  C   C202      1.0  0.67702  0.24946  0.64208  1.0000
  C   C203      1.0  0.79362  0.10302  0.39854  1.0000
  C   C204      1.0  0.85255  0.40130  0.64135  1.0000
  H   H201      1.0  0.73357  0.21562  0.57129  1.0000
  N   N18       1.0  0.68056  0.20943  0.63494  1.0000
  H   H202      1.0  0.82231  0.13473  0.46762  1.0000
  C   C205      1.0  0.69967  0.15028  0.42586  1.0000
  S   S76       1.0  0.96280  0.06568  0.37761  1.0000
  C   C206      1.0  0.67828  0.36133  0.38781  1.0000
  N   N19       1.0  0.74008  0.13475  0.42515  1.0000
  H   H203      1.0  0.88143  0.32830  0.64727  1.0000
  H   H204      1.0  0.60801  0.22584  0.37828  1.0000
  H   H205      1.0  0.89896  0.45032  0.67440  1.0000
  H   H206      1.0  0.64326  0.19222  0.67094  1.0000
  H   H207      1.0  0.69016  0.16743  0.66876  1.0000
  H   H208      1.0  0.82556  0.39012  0.65245  1.0000
  H   H209      1.0  0.87433  0.46878  0.38361  1.0000
  H   H210      1.0  0.75334  0.15796  0.46874  1.0000
  C   C207      1.0  0.90789  0.41906  0.67450  1.0000
  C   C208      1.0  0.74017  0.39177  0.37887  1.0000
  C   C209      1.0  0.95079  0.36801  0.69358  1.0000
  C   C210      1.0  0.70055  0.19715  0.60985  1.0000
  H   H211      1.0  0.65390  0.36988  0.43188  1.0000
  H   H212      1.0  0.72678  0.28829  0.58380  1.0000
  C   C211      1.0  0.69345  0.27838  0.62376  1.0000
  H   H213      1.0  0.91877  0.12426  0.41167  1.0000
  H   H214      1.0  0.84990  0.43428  0.63887  1.0000
  C   C212      1.0  0.74064  0.40810  0.40786  1.0000
  H   H215      1.0  0.87605  0.18062  0.39612  1.0000
  H   H216      1.0  0.99858  0.17826  0.40805  1.0000
  N   N20       1.0  0.88732  0.39040  0.65868  1.0000
  C   C213      1.0  0.71337  0.26615  0.59794  1.0000
  C   C214      1.0  0.76402  0.14140  0.44925  1.0000
  H   H217      1.0  0.89882  0.06939  0.70073  1.0000
  C   C215      1.0  0.67806  0.37673  0.41705  1.0000
  H   H218      1.0  0.71009  0.41197  0.44983  1.0000
  H   H219      1.0  0.84839  0.09914  0.42243  1.0000
  C   C216      1.0  0.70953  0.40022  0.42710  1.0000
  C   C217      1.0  0.91184  0.12781  0.38839  1.0000
  C   C218      1.0  0.89792  0.35088  0.65981  1.0000
  C   C219      1.0  0.88783  0.15969  0.37961  1.0000
  C   C220      1.0  0.81796  0.10899  0.42322  1.0000
  H   H220      1.0  0.69157  0.31002  0.62991  1.0000
  H   H221      1.0  0.76553  0.42599  0.41550  1.0000
  C   C221      1.0  0.92960  0.33903  0.67744  1.0000
  S   S77       1.0  0.84996  0.13681  0.68708  1.0000
  H   H222      1.0  0.80527  0.08896  0.37832  1.0000
  H   H223      1.0  0.65139  0.15397  0.64281  1.0000
  C   C222      1.0  0.96396  0.22498  0.38831  1.0000
  C   C223      1.0  0.87964  0.40533  0.37374  1.0000
  Fe  Fe39      1.0  0.82977  0.24432  0.37508  1.0000
  C   C224      1.0  0.89050  0.44584  0.37130  1.0000
  C   C225      1.0  0.94020  0.40836  0.69189  1.0000
  C   C226      1.0  0.89804  0.13404  0.70119  1.0000
  Fe  Fe40      1.0  0.97117  0.51673  0.77913  1.0000
  H   H224      1.0  0.61445  0.21757  0.74047  1.0000
  Fe  Fe41      1.0  0.57199  0.05262  0.77922  1.0000
  S   S78       1.0  0.62995  0.07295  0.75973  1.0000
  H   H225      1.0  0.84960  0.45071  0.73299  1.0000
  H   H226      1.0  0.85206  0.08723  0.75526  1.0000
  S   S79       1.0  0.91351  0.49586  0.75877  1.0000
  H   H227      1.0  0.94127  0.22733  0.79594  1.0000
  C   C227      1.0  0.91910  0.16897  0.70842  1.0000
  H   H228      1.0  0.89456  0.06258  0.76937  1.0000
  C   C228      1.0  0.90364  0.44388  0.75744  1.0000
  C   C229      1.0  0.55551  0.16274  0.82268  1.0000
  H   H229      1.0  0.87693  0.22421  0.77024  1.0000
  C   C230      1.0  0.88863  0.36075  0.75222  1.0000
  C   C231      1.0  0.92960  0.41651  0.76999  1.0000
  C   C232      1.0  0.87807  0.52914  0.82951  1.0000
  C   C233      1.0  0.89069  0.19682  0.77772  1.0000
  H   H230      1.0  0.95569  0.42717  0.78149  1.0000
  N   N21       1.0  0.89100  0.12487  0.78071  1.0000
  H   H231      1.0  0.85079  0.51837  0.81829  1.0000
  C   C234      1.0  0.87298  0.15946  0.77215  1.0000
  S   S80       1.0  0.88134  0.30844  0.74862  1.0000
  S   S81       1.0  0.98309  0.51529  0.82810  1.0000
  H   H232      1.0  0.83668  0.37732  0.72808  1.0000
  C   C235      1.0  0.86252  0.38812  0.73977  1.0000
  C   C236      1.0  0.67370  0.19695  0.73216  1.0000
  C   C237      1.0  0.63423  0.19213  0.74079  1.0000
  C   C238      1.0  0.62018  0.15439  0.74956  1.0000
  C   C239      1.0  0.64563  0.12133  0.74969  1.0000
  H   H233      1.0  0.84532  0.15819  0.76015  1.0000
  C   C240      1.0  0.92692  0.19857  0.79220  1.0000
  C   C241      1.0  0.97271  0.12901  0.72763  1.0000
  H   H234      1.0  0.58970  0.15070  0.75571  1.0000
  C   C242      1.0  0.92596  0.12640  0.79574  1.0000
  C   C243      1.0  0.86985  0.42963  0.74264  1.0000
  C   C244      1.0  0.94468  0.16318  0.80141  1.0000
  H   H235      1.0  0.70478  0.10081  0.74090  1.0000
  C   C245      1.0  0.92192  0.37510  0.76756  1.0000
  C   C246      1.0  0.95199  0.09399  0.72001  1.0000
  H   H236      1.0  0.94217  0.35409  0.77733  1.0000
  C   C247      1.0  0.69902  0.16390  0.73232  1.0000
  C   C248      1.0  0.87212  0.08595  0.77480  1.0000
  S   S82       1.0  0.80504  0.22553  0.73077  1.0000
  C   C249      1.0  0.68499  0.12630  0.74099  1.0000
  S   S83       1.0  0.69021  0.24390  0.71964  1.0000
  C   C250      1.0  0.95653  0.16645  0.72130  1.0000
  H   H237      1.0  0.85519  0.07685  0.79468  1.0000
  H   H238      1.0  0.72939  0.16715  0.72556  1.0000
  C   C251      1.0  0.91481  0.09651  0.70660  1.0000
  Fe  Fe42      1.0  0.83639  0.28142  0.71693  1.0000
  H   H239      1.0  0.97306  0.16405  0.81237  1.0000
  H   H240      1.0  0.96483  0.06498  0.72396  1.0000
  H   H241      1.0  0.55635  0.14809  0.84466  1.0000
  H   H242      1.0  0.56025  0.13843  0.80569  1.0000
  S   S84       1.0  0.56796  0.04394  0.82853  1.0000
  H   H243      1.0  0.89482  0.50203  0.83597  1.0000
  H   H244      1.0  0.97246  0.19362  0.72711  1.0000
  H   H245      1.0  0.58007  0.18457  0.82121  1.0000
  H   H246      1.0  0.97467  0.35914  0.70803  1.0000
  H   H247      1.0  0.95585  0.43104  0.70501  1.0000
  S   S85       1.0  0.01785  0.12684  0.74645  1.0000
  H   H248      1.0  0.93987  0.09898  0.80297  1.0000
  H   H249      1.0  0.90638  0.19800  0.70465  1.0000
  Fe  Fe43      1.0  0.75379  0.24773  0.70461  1.0000
  N   N22       1.0  0.71843  0.97796  0.24136  1.0000
  N   N23       1.0  0.98864  0.91759  0.22051  1.0000
  S   S86       1.0  0.57172  0.98258  0.22453  1.0000
  Fe  Fe44      1.0  0.82925  0.88163  0.18143  1.0000
  S   S87       1.0  0.81666  0.86909  0.22903  1.0000
  S   S88       1.0  0.85092  0.93858  0.16204  1.0000
  Fe  Fe45      1.0  0.80209  0.80055  0.15891  1.0000
  S   S89       1.0  0.78602  0.78047  0.20497  1.0000
  S   S90       1.0  0.80533  0.76021  0.11761  1.0000
  Fe  Fe46      1.0  0.76030  0.84252  0.21160  1.0000
  S   S91       1.0  0.70779  0.85403  0.24178  1.0000
  Fe  Fe47      1.0  0.84322  0.80831  0.21915  1.0000
  S   S92       1.0  0.88246  0.78167  0.25436  1.0000
  S   S93       1.0  0.77093  0.85983  0.16424  1.0000
  S   S94       1.0  0.86135  0.82384  0.17288  1.0000
  H   H250      1.0  0.80650  0.70768  0.16980  1.0000
  C   C252      1.0  0.87243  0.83967  0.05386  1.0000
  S   S95       1.0  0.57231  0.00736  0.30994  1.0000
  N   N24       1.0  0.84818  0.64164  0.21650  1.0000
  H   H251      1.0  0.93740  0.84516  0.27420  1.0000
  H   H252      1.0  0.95043  0.89313  0.18704  1.0000
  C   C253      1.0  0.93953  0.01831  0.21155  1.0000
  H   H253      1.0  0.76908  0.98151  0.21380  1.0000
  C   C254      1.0  0.90107  0.00120  0.16766  1.0000
  C   C255      1.0  0.88390  0.96914  0.18229  1.0000
  C   C256      1.0  0.89391  0.96199  0.21197  1.0000
  C   C257      1.0  0.92188  0.98667  0.22667  1.0000
  H   H254      1.0  0.72832  0.84907  0.05397  1.0000
  H   H255      1.0  0.89325  0.00704  0.14484  1.0000
  H   H256      1.0  0.88032  0.93751  0.22350  1.0000
  H   H257      1.0  0.92991  0.98114  0.24948  1.0000
  C   C258      1.0  0.90786  0.73604  0.24800  1.0000
  C   C259      1.0  0.91350  0.72026  0.21922  1.0000
  C   C260      1.0  0.93290  0.68326  0.21494  1.0000
  C   C261      1.0  0.94599  0.66136  0.23934  1.0000
  C   C262      1.0  0.94111  0.67754  0.26810  1.0000
  C   C263      1.0  0.92243  0.71500  0.27237  1.0000
  H   H258      1.0  0.90281  0.73645  0.20028  1.0000
  H   H259      1.0  0.93700  0.67110  0.19260  1.0000
  H   H260      1.0  0.95043  0.66057  0.28706  1.0000
  H   H261      1.0  0.91811  0.72711  0.29470  1.0000
  H   H262      1.0  0.88694  0.82033  0.06953  1.0000
  C   C264      1.0  0.78981  0.77958  0.08325  1.0000
  C   C265      1.0  0.76237  0.81081  0.08218  1.0000
  H   H263      1.0  0.99092  0.89038  0.29257  1.0000
  H   H264      1.0  0.74983  0.82308  0.10258  1.0000
  C   C266      1.0  0.60932  0.94653  0.22927  1.0000
  C   C267      1.0  0.61626  0.92974  0.25697  1.0000
  C   C268      1.0  0.64598  0.90084  0.26016  1.0000
  C   C269      1.0  0.66965  0.88901  0.23588  1.0000
  C   C270      1.0  0.66275  0.90563  0.20808  1.0000
  C   C271      1.0  0.63245  0.93411  0.20477  1.0000
  H   H265      1.0  0.59851  0.93858  0.27591  1.0000
  H   H266      1.0  0.65100  0.88790  0.28168  1.0000
  H   H267      1.0  0.68044  0.89627  0.18911  1.0000
  H   H268      1.0  0.62697  0.94665  0.18318  1.0000
  C   C272      1.0  0.74057  0.96526  0.21469  1.0000
  C   C273      1.0  0.82378  0.68237  0.17713  1.0000
  H   H269      1.0  0.81068  0.69245  0.22349  1.0000
  C   C274      1.0  0.86632  0.62608  0.16577  1.0000
  H   H270      1.0  0.86024  0.89427  0.10547  1.0000
  C   C275      1.0  0.95976  0.89233  0.21010  1.0000
  C   C276      1.0  0.69152  0.00850  0.23992  1.0000
  H   H271      1.0  0.54475  0.91563  0.31489  1.0000
  C   C277      1.0  0.98191  0.89070  0.26940  1.0000
  H   H272      1.0  0.84300  0.66599  0.13287  1.0000
  H   H273      1.0  0.91775  0.84633  0.22118  1.0000
  C   C278      1.0  0.67126  0.02180  0.26546  1.0000
  C   C279      1.0  0.92872  0.02562  0.18221  1.0000
  S   S96       1.0  0.98982  0.56656  0.31458  1.0000
  H   H274      1.0  0.88566  0.59279  0.20340  1.0000
  H   H275      1.0  0.88274  0.60770  0.14982  1.0000
  H   H276      1.0  0.72364  0.97098  0.19408  1.0000
  C   C280      1.0  0.86771  0.61770  0.19613  1.0000
  S   S97       1.0  0.96358  0.61200  0.23305  1.0000
  C   C281      1.0  0.75014  0.82543  0.05460  1.0000
  Fe  Fe48      1.0  0.00095  0.57819  0.26618  1.0000
  C   C282      1.0  0.67883  0.00384  0.29255  1.0000
  C   C283      1.0  0.94095  0.86600  0.22927  1.0000
  H   H277      1.0  0.85281  0.66093  0.26186  1.0000
  C   C284      1.0  0.95200  0.86535  0.25912  1.0000
  C   C285      1.0  0.72605  0.96021  0.26788  1.0000
  C   C286      1.0  0.84424  0.65873  0.15629  1.0000
  C   C287      1.0  0.00025  0.91654  0.24961  1.0000
  C   C288      1.0  0.83829  0.87309  0.09568  1.0000
  C   C289      1.0  0.84992  0.63273  0.24826  1.0000
  H   H278      1.0  0.82292  0.61660  0.25502  1.0000
  H   H279      1.0  0.00742  0.71306  0.30382  1.0000
  H   H280      1.0  0.87603  0.61395  0.25349  1.0000
  C   C290      1.0  0.82609  0.67341  0.20735  1.0000
  H   H281      1.0  0.82635  0.73913  0.05715  1.0000
  C   C291      1.0  0.80526  0.76343  0.05652  1.0000
  S   S98       1.0  0.98344  0.99454  0.30684  1.0000
  N   N25       1.0  0.84544  0.86752  0.06367  1.0000
  H   H282      1.0  0.80525  0.91358  0.05163  1.0000
  H   H283      1.0  0.80835  0.88526  0.10022  1.0000
  H   H284      1.0  0.74656  0.93242  0.21477  1.0000
  H   H285      1.0  0.84026  0.84406  0.10725  1.0000
  C   C292      1.0  0.82681  0.89167  0.04391  1.0000
  H   H286      1.0  0.74687  0.93552  0.26891  1.0000
  Fe  Fe49      1.0  0.54739  0.01679  0.26478  1.0000
  C   C293      1.0  0.70626  0.97273  0.29382  1.0000
  H   H287      1.0  0.71184  0.95808  0.31467  1.0000
  H   H288      1.0  0.98798  0.95466  0.18242  1.0000
  H   H289      1.0  0.68512  0.02241  0.21891  1.0000
  H   H290      1.0  0.66322  0.01395  0.31246  1.0000
  C   C294      1.0  0.00843  0.94469  0.20009  1.0000
  H   H291      1.0  0.01847  0.97252  0.21202  1.0000
  H   H292      1.0  0.52424  0.92996  0.26306  1.0000
  Fe  Fe50      1.0  0.77632  0.84986  0.88755  1.0000
  S   S99       1.0  0.80044  0.87442  0.93061  1.0000
  S   S100      1.0  0.74908  0.89498  0.85676  1.0000
  Fe  Fe51      1.0  0.81281  0.76713  0.89735  1.0000
  S   S101      1.0  0.83902  0.78508  0.94175  1.0000
  S   S102      1.0  0.82197  0.70736  0.87291  1.0000
  Fe  Fe52      1.0  0.78128  0.81648  0.95032  1.0000
  S   S103      1.0  0.74921  0.82885  0.99379  1.0000
  Fe  Fe53      1.0  0.85558  0.84156  0.91866  1.0000
  S   S104      1.0  0.91510  0.86948  0.92445  1.0000
  S   S105      1.0  0.75279  0.79375  0.90774  1.0000
  S   S106      1.0  0.83376  0.82161  0.87388  1.0000
  C   C295      1.0  0.82635  0.60051  0.88218  1.0000
  S   S107      1.0  0.56621  0.92558  0.84002  1.0000
  C   C296      1.0  0.61902  0.95884  0.90904  1.0000
  H   H293      1.0  0.98929  0.97753  0.87879  1.0000
  S   S108      1.0  0.99129  0.62979  0.85673  1.0000
  S   S109      1.0  0.98719  0.58191  0.77584  1.0000
  Fe  Fe54      1.0  0.00391  0.57871  0.82379  1.0000
  C   C297      1.0  0.64323  0.98661  0.89527  1.0000
  H   H294      1.0  0.67233  0.87530  0.95717  1.0000
  C   C298      1.0  0.91928  0.91433  0.90492  1.0000
  C   C299      1.0  0.88590  0.93289  0.89328  1.0000
  C   C300      1.0  0.88980  0.96768  0.87656  1.0000
  C   C301      1.0  0.92714  0.98344  0.87079  1.0000
  C   C302      1.0  0.96048  0.96501  0.88254  1.0000
  C   C303      1.0  0.95653  0.93070  0.89980  1.0000
  H   H295      1.0  0.85707  0.92037  0.89692  1.0000
  H   H296      1.0  0.86390  0.98190  0.86760  1.0000
  H   H297      1.0  0.86924  0.85712  0.97967  1.0000
  H   H298      1.0  0.98241  0.91652  0.90882  1.0000
  C   C304      1.0  0.87063  0.69097  0.86554  1.0000
  C   C305      1.0  0.87769  0.66304  0.84217  1.0000
  C   C306      1.0  0.91500  0.64514  0.83843  1.0000
  C   C307      1.0  0.94543  0.65487  0.85825  1.0000
  C   C308      1.0  0.93885  0.68404  0.88080  1.0000
  C   C309      1.0  0.90165  0.70215  0.88440  1.0000
  H   H299      1.0  0.85387  0.65447  0.82739  1.0000
  H   H300      1.0  0.91984  0.62300  0.82080  1.0000
  H   H301      1.0  0.96231  0.69188  0.89613  1.0000
  H   H302      1.0  0.89657  0.72354  0.90250  1.0000
  C   C310      1.0  0.69816  0.90006  0.84980  1.0000
  C   C311      1.0  0.67036  0.87422  0.86197  1.0000
  C   C312      1.0  0.62990  0.88152  0.85795  1.0000
  C   C313      1.0  0.61703  0.91475  0.84192  1.0000
  C   C314      1.0  0.64484  0.93983  0.82900  1.0000
  C   C315      1.0  0.68523  0.93239  0.83286  1.0000
  H   H303      1.0  0.67999  0.84886  0.87465  1.0000
  H   H304      1.0  0.60849  0.86182  0.86780  1.0000
  H   H305      1.0  0.63529  0.96539  0.81646  1.0000
  H   H306      1.0  0.70657  0.95237  0.82322  1.0000
  C   C316      1.0  0.83389  0.57382  0.85830  1.0000
  Fe  Fe55      1.0  0.54682  0.98193  0.81677  1.0000
  H   H307      1.0  0.85092  0.63061  0.92080  1.0000
  H   H308      1.0  0.80555  0.76594  0.00843  1.0000
  C   C317      1.0  0.79358  0.77861  0.02890  1.0000
  H   H309      1.0  0.01325  0.66322  0.80021  1.0000
  C   C318      1.0  0.85584  0.60845  0.90306  1.0000
  C   C319      1.0  0.89420  0.93769  0.80008  1.0000
  N   N26       1.0  0.67609  0.92451  0.92723  1.0000
  N   N27       1.0  0.92122  0.91007  0.81466  1.0000
  C   C320      1.0  0.89883  0.56295  0.87588  1.0000
  H   H310      1.0  0.92082  0.83194  0.86138  1.0000
  H   H311      1.0  0.61699  0.90546  0.93468  1.0000
  N   N28       1.0  0.86971  0.55522  0.85552  1.0000
  H   H312      1.0  0.58732  0.96037  0.90618  1.0000
  H   H313      1.0  0.81953  0.90669  0.99771  1.0000
  C   C321      1.0  0.93226  0.85423  0.84645  1.0000
  H   H314      1.0  0.53373  0.85879  0.78891  1.0000
  C   C322      1.0  0.69377  0.89066  0.94264  1.0000
  C   C323      1.0  0.96078  0.91293  0.80958  1.0000
  S   S110      1.0  0.93161  0.02519  0.84790  1.0000
  H   H315      1.0  0.90714  0.96830  0.79938  1.0000
  C   C324      1.0  0.68402  0.98297  0.89753  1.0000
  H   H316      1.0  0.90244  0.81312  0.01568  1.0000
  H   H317      1.0  0.81126  0.56897  0.84162  1.0000
  H   H318      1.0  0.55749  0.89775  0.76914  1.0000
  H   H319      1.0  0.88797  0.92669  0.77705  1.0000
  H   H320      1.0  0.70313  0.00332  0.88580  1.0000
  H   H321      1.0  0.86602  0.94074  0.81258  1.0000
  C   C325      1.0  0.97274  0.85786  0.84221  1.0000
  H   H322      1.0  0.87534  0.87827  0.83621  1.0000
  H   H323      1.0  0.73178  0.94759  0.91395  1.0000
  C   C326      1.0  0.76568  0.80946  0.02786  1.0000
  S   S111      1.0  0.98388  0.01920  0.77522  1.0000
  S   S112      1.0  0.55492  0.98891  0.76774  1.0000
  Fe  Fe56      1.0  0.98982  0.02781  0.82450  1.0000
  C   C327      1.0  0.98716  0.88712  0.82342  1.0000
  C   C328      1.0  0.63604  0.92770  0.92497  1.0000
  C   C329      1.0  0.90673  0.88066  0.83231  1.0000
  C   C330      1.0  0.86248  0.85995  0.00324  1.0000
  C   C331      1.0  0.01387  0.68437  0.74348  1.0000
  C   C332      1.0  0.70005  0.95141  0.91355  1.0000
  H   H324      1.0  0.01124  0.70564  0.72493  1.0000
  H   H325      1.0  0.91605  0.59683  0.91531  1.0000
  C   C333      1.0  0.89234  0.58958  0.89995  1.0000
  H   H326      1.0  0.71844  0.90098  0.95712  1.0000
  H   H327      1.0  0.79857  0.61658  0.88371  1.0000
  H   H328      1.0  0.97222  0.93544  0.79492  1.0000
  C   C334      1.0  0.83487  0.88809  0.01341  1.0000
  H   H329      1.0  0.70530  0.86834  0.92606  1.0000
  C   C335      1.0  0.88128  0.83539  0.02351  1.0000
  H   H330      1.0  0.89573  0.54576  0.81301  1.0000
  H   H331      1.0  0.98365  0.67821  0.75169  1.0000
  H   H332      1.0  0.99282  0.83824  0.85368  1.0000
  C   C336      1.0  0.52824  0.88492  0.77458  1.0000
  H   H333      1.0  0.63037  0.00987  0.88184  1.0000
  H   H334      1.0  0.52157  0.92783  0.72562  1.0000
  H   H335      1.0  0.92776  0.54959  0.87308  1.0000
  H   H336      1.0  0.01856  0.89009  0.81960  1.0000
