data_image0
_chemical_formula_structural       FeS2FeS2FeSFeS3HS2FeSHSC2NCFeSFeSHC3HCHNH2CHC11H6NH2CHCHCHCH3CH2CH2SCNC6H4C6H5CHFeHC2H2CH4SC3H3FeCH3NC3H5FeS2FeS2FeSFeHS2FeS2CHCHFeSCSH2C6H4C6H4SHC4SCHCFeCSNHCFeSNHCHSH3SHCHCHCSCHC2H2NFeNC6H8SC2HC6HCHCHCHFeHC3H3CFeSCHCSCNHCSC4HC2H4CH2C2H4FeCHC2H3C2HSC2H2SH3S2HFeHFeCFeS2HFeSHCHC2HFeHSCS2C3SCHSCHSCH2C2HNHCNCFeC7H4CH2SHC3H3CHCH2SCHCSHC2HCH2CH2CHCNH2C2H2SCHSFeS2FeSFe2H2CHCH2C2HC6H4SHNH2C2HCHSCHCHSCSC3FeH2CH3C2HC2FeSCSCSCSCS2HCFeSC2H2FeCSFeHSHSHS2HC6H5C5H4CHC2HC6H8CFe2CHCH2SHC2HC2HSFeHCHCFeCHNCSC2FeHCH2SC2H2FeHCFeSHNCHC2HNCHFeCH2C2H3CSC2FeC2HCFeHCH3CHS2NCHFeCFeC2SHSCHSCHSCSH2S2C3HNCH3NH5CH4CHC4HCHNHCH3C3H2NSCSHC4H3CHC2HFeHS2CSCSHC2H2CNHFeH3SH3SH2SHC3H2CHCHNH3FeCHFeH2C8HC2H2C4HNH2C4HCH3CH3NSCHCHNC3HSC2H2CH2CH2CS2C3H2CHCHC2HC2FeCHSHCFeS2CHSC2FeSHCH3C2HCS2HC2HCH2CHCHFeHCSCSHCH2CFeHCHC3HCH2CHSH2CH2CSC3SCS2FeSFeCFeS2FeSFeSFeS3FeS2HSFeHFeS3C6H4C6HSH2C3H2SHCHSCHCH4CSCH5C2HNHCHC2HFeNHC4H5CHC3HC2SHCH6CNCHFeNC6H2CHC3H3FeHCHSH3CNHCFeHCFeS3HFeCFeCS2H2CHCHC5HNCHC2HCHSH3SCHCHCHNH2C2H3C3H2NH2C2HCSCH2C2H3C3SFeS2FeSFeSFeS3NHCHFeS2HCFeS3H2C3SC2H2CNHC7H4C6H4CHCH2C6H4SC3HNFeH3SHC2HCSH2CSHCH2SCH2C4H2CNC3NC2HFeH5CH2CH4CH2CH3C2H2NH2CHC2HFeCHC2H3FeSH3C2HFeS2FeS2FeSFeS3FeS2H2CSFeHSHCSCFeCHSFeSFe2C2FeS2FeSHCS2C6H4C4FeH2FeC5HCH3CHCH3CHC3HCSHC6H4C6HCH2C6H3CNH3SHC2HC2SHC2NHCFeC2NHC2SC3S3C4FeHCFeHSH3SHCH4SCHCHCH2CHSHNC6H6CSNHNH4C3FeSH2CSCHC2HS2HCFeHCHCFeHSCFe2HCH4C2HSHSH3CHCNCH2CSC2HFeSCSCNC2S2H3C2H3NCFeCH5C2HC2HCH3C2HCH2SHCSH3SHC3HCFeHC3SHNCNCSC2H3C2HCH3C4HC2H3CS2C2HCHFeHSC2HNH3CH2SCH3CSH3C4S2FeS2H6SCS2FeHSCH2C2H2FeC3FeHC3H3NHCHCHC2H2CH2NHC4H2CH2SC4H2CHCHCHCHCHCFeHCNHC3H2C2HCFeSCHSCSNFeH3C4SH2C4HSCS2CH3S2CH3CFe3HC2SCHS2H3C3HSC7HC2HC3H3CH5C2HNC2H4C2H5C2SHFeH4S2C2NH4CHCSCS2CHNHC2FeCSHC6HNH2FeCSHC2H3FeSHC5HCHFeH2SHCHCH2CNH2C3H5SHCH5C2SCSFeC2FeSCNSFeSCHFeCHC3HCHFeS2FeSFeSFeS3FeS2FeS2FeSFeS3HCHC2NHSCSNHCH2C2HC7H4CSFeC2SCHC6H4C2SC3H4CHC3H3FeCNC6H2CH2NHN2C6H3CHCH2CH2SH3NCH3SC2SFeSCH2CHSHNCHSH3C2SC2H3CHC2HCH2FeCFeH3FeC3H2CHCHC2H6CHNH3CHCH2SCSCHC2HSC3HCFeCHCHC2H2C2H3FeC2HSCHC2
_chemical_formula_sum              "Fe144 S288 H864 C864 N72"
_cell_length_a       62.6937
_cell_length_b       69.5304
_cell_length_c       46.5952
_cell_angle_alpha    79.4033
_cell_angle_beta     79.7371
_cell_angle_gamma    107.842

_space_group_name_H-M_alt    "P 1"
_space_group_IT_number       1

loop_
  _space_group_symop_operation_xyz
  'x, y, z'

loop_
  _atom_site_type_symbol
  _atom_site_label
  _atom_site_symmetry_multiplicity
  _atom_site_fract_x
  _atom_site_fract_y
  _atom_site_fract_z
  _atom_site_occupancy
  Fe  Fe1       1.0  0.39470  0.02933  0.21038  1.0000
  S   S1        1.0  0.43206  0.03255  0.19838  1.0000
  S   S2        1.0  0.36825  0.00277  0.24687  1.0000
  Fe  Fe2       1.0  0.40262  0.07042  0.16720  1.0000
  S   S3        1.0  0.44082  0.07762  0.15121  1.0000
  S   S4        1.0  0.38533  0.09202  0.14878  1.0000
  Fe  Fe3       1.0  0.43038  0.04386  0.15085  1.0000
  S   S5        1.0  0.44604  0.03326  0.11249  1.0000
  Fe  Fe4       1.0  0.43901  0.06588  0.20003  1.0000
  S   S6        1.0  0.46306  0.08068  0.22647  1.0000
  S   S7        1.0  0.39218  0.03754  0.16268  1.0000
  S   S8        1.0  0.40163  0.06174  0.21614  1.0000
  H   H1        1.0  0.35061  0.16940  0.14395  1.0000
  S   S9        1.0  0.42628  0.20209  0.06343  1.0000
  S   S10       1.0  0.44920  0.18426  0.13443  1.0000
  Fe  Fe5       1.0  0.39571  0.21004  0.08284  1.0000
  S   S11       1.0  0.35957  0.19278  0.08052  1.0000
  H   H2        1.0  0.47931  0.17461  0.07410  1.0000
  S   S12       1.0  0.39988  0.10328  0.02336  1.0000
  C   C1        1.0  0.33202  0.09927  0.14942  1.0000
  C   C2        1.0  0.36166  0.15320  0.17926  1.0000
  N   N1        1.0  0.34095  0.11748  0.16123  1.0000
  C   C3        1.0  0.31025  0.04223  0.02473  1.0000
  Fe  Fe6       1.0  0.36659  0.10531  0.01499  1.0000
  S   S13       1.0  0.33750  0.10447  0.05164  1.0000
  Fe  Fe7       1.0  0.39603  0.08059  0.99451  1.0000
  S   S14       1.0  0.40186  0.04997  0.00339  1.0000
  H   H3        1.0  0.30503  0.05807  0.05981  1.0000
  C   C4        1.0  0.39299  0.21683  0.00128  1.0000
  C   C5        1.0  0.43140  0.14789  0.05478  1.0000
  C   C6        1.0  0.35132  0.11605  0.18464  1.0000
  H   H4        1.0  0.42947  0.99592  0.25364  1.0000
  C   C7        1.0  0.34531  0.03499  0.04878  1.0000
  H   H5        1.0  0.33640  0.05147  0.08132  1.0000
  N   N2        1.0  0.40784  0.00027  0.29095  1.0000
  H   H6        1.0  0.33090  0.08455  0.16487  1.0000
  H   H7        1.0  0.37039  0.16726  0.18561  1.0000
  C   C8        1.0  0.39033  0.99078  0.31669  1.0000
  H   H8        1.0  0.46639  0.12495  0.13057  1.0000
  C   C9        1.0  0.45062  0.16459  0.05474  1.0000
  C   C10       1.0  0.35066  0.15442  0.15582  1.0000
  C   C11       1.0  0.36188  0.13388  0.19395  1.0000
  C   C12       1.0  0.31463  0.04917  0.05019  1.0000
  C   C13       1.0  0.42696  0.12815  0.07317  1.0000
  C   C14       1.0  0.35388  0.16800  0.07326  1.0000
  C   C15       1.0  0.37108  0.15911  0.06906  1.0000
  C   C16       1.0  0.36612  0.13962  0.06219  1.0000
  C   C17       1.0  0.34380  0.12872  0.06039  1.0000
  C   C18       1.0  0.32644  0.13729  0.06549  1.0000
  C   C19       1.0  0.33156  0.15702  0.07147  1.0000
  H   H9        1.0  0.38817  0.16716  0.07099  1.0000
  H   H10       1.0  0.37937  0.13276  0.05883  1.0000
  H   H11       1.0  0.30915  0.12889  0.06408  1.0000
  H   H12       1.0  0.31815  0.16376  0.07478  1.0000
  H   H13       1.0  0.35958  0.03262  0.05736  1.0000
  H   H14       1.0  0.38712  0.22855  0.00909  1.0000
  N   N3        1.0  0.32321  0.03204  0.01153  1.0000
  H   H15       1.0  0.34391  0.10115  0.12744  1.0000
  H   H16       1.0  0.40458  0.02807  0.26786  1.0000
  C   C20       1.0  0.34027  0.13628  0.14713  1.0000
  H   H17       1.0  0.33213  0.13738  0.12856  1.0000
  C   C21       1.0  0.44198  0.12538  0.09102  1.0000
  H   H18       1.0  0.41183  0.11503  0.07423  1.0000
  C   C22       1.0  0.46449  0.13030  0.01121  1.0000
  H   H19       1.0  0.31454  0.09759  0.14595  1.0000
  C   C23       1.0  0.41656  0.22107  0.98945  1.0000
  H   H20       1.0  0.41791  0.03068  0.29888  1.0000
  H   H21       1.0  0.44911  0.11757  0.01212  1.0000
  H   H22       1.0  0.35257  0.10129  0.19520  1.0000
  C   C24       1.0  0.38486  0.18198  0.99456  1.0000
  H   H23       1.0  0.29699  0.04573  0.01495  1.0000
  H   H24       1.0  0.37094  0.13283  0.21163  1.0000
  C   C25       1.0  0.33232  0.04555  0.06221  1.0000
  H   H25       1.0  0.42038  0.15018  0.04000  1.0000
  H   H26       1.0  0.45655  0.20763  0.98912  1.0000
  S   S15       1.0  0.40388  0.21083  0.12765  1.0000
  C   C26       1.0  0.34064  0.02848  0.02314  1.0000
  N   N4        1.0  0.46021  0.14202  0.09181  1.0000
  C   C27       1.0  0.43230  0.03698  0.08350  1.0000
  C   C28       1.0  0.43230  0.02520  0.06219  1.0000
  C   C29       1.0  0.42220  0.02881  0.03815  1.0000
  C   C30       1.0  0.41249  0.04449  0.03509  1.0000
  C   C31       1.0  0.41211  0.05598  0.05673  1.0000
  C   C32       1.0  0.42196  0.05221  0.08096  1.0000
  H   H27       1.0  0.44017  0.01332  0.06425  1.0000
  H   H28       1.0  0.42240  0.01979  0.02156  1.0000
  H   H29       1.0  0.40411  0.06766  0.05504  1.0000
  H   H30       1.0  0.42186  0.06132  0.09744  1.0000
  C   C33       1.0  0.40130  0.11761  0.14829  1.0000
  C   C34       1.0  0.39735  0.13422  0.13094  1.0000
  C   C35       1.0  0.41129  0.15479  0.12819  1.0000
  C   C36       1.0  0.42955  0.15879  0.14219  1.0000
  C   C37       1.0  0.43294  0.14224  0.16060  1.0000
  C   C38       1.0  0.41877  0.12159  0.16368  1.0000
  H   H31       1.0  0.38410  0.13119  0.11866  1.0000
  H   H32       1.0  0.40831  0.16748  0.11443  1.0000
  H   H33       1.0  0.44694  0.14531  0.17174  1.0000
  H   H34       1.0  0.42178  0.10881  0.17736  1.0000
  H   H35       1.0  0.45484  0.17982  0.03969  1.0000
  C   C39       1.0  0.46476  0.16143  0.07378  1.0000
  H   H36       1.0  0.42877  0.23640  0.98767  1.0000
  Fe  Fe8       1.0  0.43588  0.20558  0.10680  1.0000
  H   H37       1.0  0.43839  0.10996  0.10506  1.0000
  C   C40       1.0  0.47540  0.13896  0.11132  1.0000
  C   C41       1.0  0.41652  0.02312  0.27995  1.0000
  H   H38       1.0  0.43406  0.02915  0.26425  1.0000
  H   H39       1.0  0.35878  0.19363  0.01319  1.0000
  C   C42       1.0  0.46860  0.15041  0.99410  1.0000
  H   H40       1.0  0.47818  0.21958  0.04307  1.0000
  H   H41       1.0  0.38272  0.00003  0.32859  1.0000
  H   H42       1.0  0.35169  0.02131  0.01195  1.0000
  H   H43       1.0  0.39429  0.99070  0.19976  1.0000
  S   S16       1.0  0.36116  0.08042  0.99004  1.0000
  C   C43       1.0  0.48018  0.12662  0.02760  1.0000
  C   C44       1.0  0.47465  0.07700  0.00990  1.0000
  C   C45       1.0  0.37708  0.19720  0.00363  1.0000
  H   H44       1.0  0.47649  0.11115  0.04149  1.0000
  H   H45       1.0  0.37258  0.16652  0.99695  1.0000
  H   H46       1.0  0.46234  0.06293  0.02572  1.0000
  Fe  Fe9       1.0  0.44437  0.23661  0.04753  1.0000
  C   C46       1.0  0.46869  0.08546  0.98419  1.0000
  H   H47       1.0  0.48091  0.15247  0.12131  1.0000
  H   H48       1.0  0.47680  0.22870  0.15970  1.0000
  H   H49       1.0  0.30170  0.02372  0.98156  1.0000
  N   N5        1.0  0.42408  0.20609  0.98046  1.0000
  C   C47       1.0  0.40859  0.18667  0.98314  1.0000
  C   C48       1.0  0.41650  0.98851  0.27490  1.0000
  C   C49       1.0  0.31988  0.02672  0.98321  1.0000
  H   H50       1.0  0.32386  0.01243  0.98128  1.0000
  H   H51       1.0  0.48071  0.11578  0.25011  1.0000
  H   H52       1.0  0.45184  0.07799  0.98037  1.0000
  H   H53       1.0  0.99365  0.16888  0.61255  1.0000
  H   H54       1.0  0.22165  0.05133  0.69397  1.0000
  Fe  Fe10      1.0  0.16369  0.07133  0.76057  1.0000
  S   S17       1.0  0.14769  0.06589  0.72220  1.0000
  S   S18       1.0  0.14464  0.05972  0.80959  1.0000
  Fe  Fe11      1.0  0.20989  0.09949  0.71901  1.0000
  S   S19       1.0  0.19761  0.09730  0.67675  1.0000
  S   S20       1.0  0.24642  0.11705  0.71910  1.0000
  Fe  Fe12      1.0  0.16543  0.10021  0.70279  1.0000
  S   S21       1.0  0.14370  0.11764  0.68534  1.0000
  Fe  Fe13      1.0  0.18089  0.06324  0.70010  1.0000
  H   H55       1.0  0.24976  0.08784  0.86016  1.0000
  S   S22       1.0  0.17948  0.10602  0.74253  1.0000
  S   S23       1.0  0.19527  0.06513  0.74040  1.0000
  Fe  Fe14      1.0  0.01635  0.13308  0.71045  1.0000
  S   S24       1.0  0.02155  0.13492  0.75641  1.0000
  S   S25       1.0  0.03507  0.15827  0.66822  1.0000
  C   C50       1.0  0.33878  0.08492  0.91514  1.0000
  H   H56       1.0  0.10613  0.07763  0.68001  1.0000
  C   C51       1.0  0.25218  0.10965  0.81953  1.0000
  H   H57       1.0  0.14862  0.02108  0.63571  1.0000
  Fe  Fe15      1.0  0.02183  0.10238  0.76016  1.0000
  S   S26       1.0  0.04704  0.09036  0.77912  1.0000
  C   C52       1.0  0.09691  0.04421  0.68729  1.0000
  S   S27       1.0  0.01978  0.10183  0.71292  1.0000
  H   H58       1.0  0.31634  0.11461  0.79863  1.0000
  H   H59       1.0  0.09293  0.01200  0.69017  1.0000
  C   C53       1.0  0.11657  0.10976  0.71094  1.0000
  C   C54       1.0  0.11133  0.09495  0.73831  1.0000
  C   C55       1.0  0.08959  0.08842  0.75851  1.0000
  C   C56       1.0  0.07323  0.09730  0.75204  1.0000
  C   C57       1.0  0.07842  0.11223  0.72477  1.0000
  C   C58       1.0  0.10000  0.11830  0.70410  1.0000
  H   H60       1.0  0.12419  0.08891  0.74452  1.0000
  H   H61       1.0  0.08575  0.07693  0.77961  1.0000
  H   H62       1.0  0.06609  0.11951  0.71980  1.0000
  H   H63       1.0  0.10397  0.12987  0.68302  1.0000
  C   C59       1.0  0.25856  0.10022  0.73729  1.0000
  C   C60       1.0  0.24525  0.08413  0.76302  1.0000
  C   C61       1.0  0.25548  0.07154  0.77840  1.0000
  C   C62       1.0  0.27907  0.07517  0.76820  1.0000
  C   C63       1.0  0.29237  0.09118  0.74246  1.0000
  C   C64       1.0  0.28214  0.10375  0.72710  1.0000
  H   H64       1.0  0.22733  0.08200  0.77190  1.0000
  H   H65       1.0  0.24524  0.05940  0.79852  1.0000
  H   H66       1.0  0.31064  0.09404  0.73457  1.0000
  H   H67       1.0  0.29250  0.11625  0.70734  1.0000
  S   S28       1.0  0.99896  0.23115  0.56962  1.0000
  H   H68       1.0  0.33147  0.03989  0.96377  1.0000
  C   C65       1.0  0.21298  0.99748  0.67624  1.0000
  C   C66       1.0  0.02206  0.17713  0.66699  1.0000
  C   C67       1.0  0.02520  0.19104  0.63954  1.0000
  C   C68       1.0  0.30380  0.99857  0.79925  1.0000
  S   S29       1.0  0.41513  0.10481  0.95102  1.0000
  C   C69       1.0  0.11128  0.06497  0.67433  1.0000
  H   H69       1.0  0.45243  0.20051  0.95461  1.0000
  C   C70       1.0  0.30056  0.06468  0.94817  1.0000
  Fe  Fe16      1.0  0.25705  0.02253  0.89510  1.0000
  C   C71       1.0  0.29000  0.12515  0.78494  1.0000
  S   S30       1.0  0.26753  0.03395  0.93462  1.0000
  N   N6        1.0  0.17100  0.99726  0.75868  1.0000
  H   H70       1.0  0.04815  0.05301  0.76193  1.0000
  C   C72       1.0  0.16052  0.00731  0.77599  1.0000
  Fe  Fe17      1.0  0.21794  0.01130  0.86324  1.0000
  S   S31       1.0  0.24040  0.00684  0.82381  1.0000
  N   N7        1.0  0.28416  0.10069  0.83188  1.0000
  H   H71       1.0  0.30838  0.99505  0.82051  1.0000
  C   C73       1.0  0.29350  0.08864  0.85222  1.0000
  H   H72       1.0  0.14228  0.00486  0.77861  1.0000
  S   S32       1.0  0.24394  0.04182  0.86348  1.0000
  H   H73       1.0  0.30117  0.13496  0.76326  1.0000
  H   H74       1.0  0.08043  0.04059  0.70311  1.0000
  H   H75       1.0  0.99633  0.20174  0.76394  1.0000
  S   S33       1.0  0.18020  0.00598  0.86656  1.0000
  H   H76       1.0  0.45811  0.22707  0.95667  1.0000
  C   C74       1.0  0.44896  0.21050  0.96965  1.0000
  H   H77       1.0  0.25023  0.03394  0.70081  1.0000
  C   C75       1.0  0.19648  0.02363  0.78814  1.0000
  H   H78       1.0  0.01141  0.98870  0.80923  1.0000
  C   C76       1.0  0.13190  0.01543  0.65304  1.0000
  S   S34       1.0  0.17803  0.03725  0.67728  1.0000
  C   C77       1.0  0.29056  0.00689  0.74597  1.0000
  H   H79       1.0  0.08711  0.00731  0.77982  1.0000
  C   C78       1.0  0.21919  0.03631  0.68904  1.0000
  C   C79       1.0  0.10249  0.03234  0.84453  1.0000
  H   H80       1.0  0.16460  0.02803  0.80556  1.0000
  H   H81       1.0  0.20628  0.03386  0.79985  1.0000
  N   N8        1.0  0.12496  0.03267  0.66018  1.0000
  Fe  Fe18      1.0  0.25236  0.98949  0.85924  1.0000
  N   N9        1.0  0.11078  0.12770  0.78499  1.0000
  C   C80       1.0  0.13095  0.12361  0.78250  1.0000
  C   C81       1.0  0.09180  0.11578  0.80812  1.0000
  C   C82       1.0  0.13216  0.10669  0.80284  1.0000
  C   C83       1.0  0.09235  0.09858  0.82861  1.0000
  C   C84       1.0  0.11265  0.09396  0.82576  1.0000
  C   C85       1.0  0.10971  0.14523  0.76307  1.0000
  H   H82       1.0  0.14598  0.13297  0.76409  1.0000
  H   H83       1.0  0.07573  0.11889  0.80998  1.0000
  H   H84       1.0  0.14794  0.10309  0.80046  1.0000
  H   H85       1.0  0.07691  0.08857  0.84598  1.0000
  H   H86       1.0  0.11325  0.08036  0.84092  1.0000
  H   H87       1.0  0.12026  0.14698  0.74019  1.0000
  H   H88       1.0  0.09169  0.14258  0.76093  1.0000
  H   H89       1.0  0.11617  0.15994  0.77006  1.0000
  S   S35       1.0  0.36637  0.10425  0.90761  1.0000
  C   C86       1.0  0.32247  0.08014  0.94259  1.0000
  C   C87       1.0  0.19693  0.00733  0.67228  1.0000
  H   H90       1.0  0.11846  0.00497  0.64471  1.0000
  C   C88       1.0  0.09155  0.01388  0.79813  1.0000
  C   C89       1.0  0.03213  0.02065  0.78615  1.0000
  C   C90       1.0  0.01147  0.00360  0.79686  1.0000
  C   C91       1.0  0.29489  0.05374  0.92653  1.0000
  C   C92       1.0  0.19380  0.99978  0.75628  1.0000
  C   C93       1.0  0.17305  0.02050  0.79116  1.0000
  H   H91       1.0  0.06942  0.01020  0.87184  1.0000
  C   C94       1.0  0.01136  0.04159  0.76570  1.0000
  H   H92       1.0  0.28134  0.08116  0.87492  1.0000
  C   C95       1.0  0.98553  0.15205  0.61750  1.0000
  H   H93       1.0  0.47972  0.11087  0.94427  1.0000
  C   C96       1.0  0.23207  0.00691  0.68685  1.0000
  H   H94       1.0  0.32655  0.08873  0.95920  1.0000
  Fe  Fe19      1.0  0.98289  0.11923  0.77158  1.0000
  H   H95       1.0  0.34545  0.07795  0.87199  1.0000
  C   C97       1.0  0.99645  0.20371  0.66336  1.0000
  C   C98       1.0  0.11272  0.02995  0.79312  1.0000
  C   C99       1.0  0.03215  0.03970  0.77029  1.0000
  H   H96       1.0  0.23390  0.10748  0.82497  1.0000
  H   H97       1.0  0.30704  0.05027  0.88227  1.0000
  H   H98       1.0  0.22530  0.01589  0.76745  1.0000
  C   C100      1.0  0.33293  0.07429  0.89327  1.0000
  Fe  Fe20      1.0  0.26750  0.03530  0.82753  1.0000
  S   S36       1.0  0.29253  0.06073  0.78839  1.0000
  C   C101      1.0  0.26672  0.12313  0.79230  1.0000
  H   H99       1.0  0.30991  0.09889  0.85549  1.0000
  C   C102      1.0  0.23547  0.02656  0.69264  1.0000
  S   S37       1.0  0.28204  0.01755  0.85906  1.0000
  C   C103      1.0  0.08137  0.01592  0.84975  1.0000
  N   N10       1.0  0.99109  0.02486  0.77657  1.0000
  H   H100      1.0  0.01154  0.05659  0.75360  1.0000
  C   C104      1.0  0.10408  0.02815  0.67993  1.0000
  S   S38       1.0  0.38306  0.13168  0.97327  1.0000
  C   C105      1.0  0.29843  0.11359  0.80498  1.0000
  C   C106      1.0  0.26125  0.09848  0.83920  1.0000
  C   C107      1.0  0.19974  0.02651  0.67930  1.0000
  C   C108      1.0  0.31114  0.05861  0.89906  1.0000
  H   H101      1.0  0.12490  0.03471  0.77159  1.0000
  C   C109      1.0  0.01217  0.20415  0.63767  1.0000
  C   C110      1.0  0.30972  0.01923  0.78303  1.0000
  H   H102      1.0  0.25977  0.13134  0.77631  1.0000
  H   H103      1.0  0.10676  0.03941  0.86256  1.0000
  H   H104      1.0  0.31905  0.03201  0.79150  1.0000
  H   H105      1.0  0.29701  0.07613  0.84252  1.0000
  C   C111      1.0  0.11823  0.03930  0.81617  1.0000
  H   H106      1.0  0.03705  0.19110  0.61951  1.0000
  H   H107      1.0  0.15628  0.05658  0.63301  1.0000
  C   C112      1.0  0.30305  0.02345  0.75623  1.0000
  C   C113      1.0  0.07613  0.00644  0.82662  1.0000
  H   H108      1.0  0.00510  0.16690  0.71434  1.0000
  H   H109      1.0  0.14805  0.99140  0.73032  1.0000
  H   H110      1.0  0.18198  0.99977  0.66455  1.0000
  H   H111      1.0  0.04809  0.01912  0.79025  1.0000
  Fe  Fe21      1.0  0.38012  0.10635  0.94883  1.0000
  C   C114      1.0  0.13268  0.06943  0.65454  1.0000
  H   H112      1.0  0.13417  0.00614  0.67364  1.0000
  C   C115      1.0  0.99465  0.19092  0.69127  1.0000
  C   C116      1.0  0.13933  0.05299  0.64774  1.0000
  H   H113      1.0  0.14426  0.08554  0.64519  1.0000
  H   H114      1.0  0.30715  0.03950  0.74381  1.0000
  H   H115      1.0  0.01436  0.21455  0.61634  1.0000
  C   C117      1.0  0.20703  0.01337  0.77036  1.0000
  C   C118      1.0  0.98563  0.14211  0.59413  1.0000
  H   H116      1.0  0.99263  0.16469  0.76712  1.0000
  S   S39       1.0  0.98361  0.08660  0.77983  1.0000
  C   C119      1.0  0.00712  0.17733  0.69297  1.0000
  C   C120      1.0  0.99098  0.00594  0.79165  1.0000
  H   H117      1.0  0.28785  0.06135  0.96913  1.0000
  H   H118      1.0  0.28517  0.01028  0.72529  1.0000
  S   S40       1.0  0.44815  0.15558  0.97527  1.0000
  H   H119      1.0  0.41452  0.17470  0.97641  1.0000
  H   H120      1.0  0.20197  0.99143  0.74317  1.0000
  H   H121      1.0  0.13355  0.99299  0.86057  1.0000
  S   S41       1.0  0.24994  0.99300  0.69629  1.0000
  S   S42       1.0  0.22853  0.99251  0.89873  1.0000
  H   H122      1.0  0.99366  0.15122  0.57097  1.0000
  Fe  Fe22      1.0  0.98155  0.08921  0.73199  1.0000
  H   H123      1.0  0.98326  0.19107  0.71148  1.0000
  Fe  Fe23      1.0  0.41640  0.12769  0.97956  1.0000
  C   C121      1.0  0.98218  0.18928  0.78048  1.0000
  Fe  Fe24      1.0  0.02715  0.46308  0.33846  1.0000
  S   S43       1.0  0.04297  0.44275  0.31667  1.0000
  S   S44       1.0  0.00205  0.45345  0.38375  1.0000
  H   H124      1.0  0.02155  0.39822  0.20920  1.0000
  Fe  Fe25      1.0  0.03872  0.46025  0.27381  1.0000
  S   S45       1.0  0.02657  0.44678  0.23656  1.0000
  H   H125      1.0  0.07273  0.45855  0.38558  1.0000
  C   C122      1.0  0.46101  0.29485  0.08098  1.0000
  H   H126      1.0  0.47358  0.45950  0.21046  1.0000
  C   C123      1.0  0.99047  0.42072  0.22185  1.0000
  C   C124      1.0  0.41192  0.31751  0.13786  1.0000
  H   H127      1.0  0.13628  0.43317  0.46259  1.0000
  Fe  Fe26      1.0  0.42441  0.24467  0.10598  1.0000
  H   H128      1.0  0.02060  0.42999  0.47863  1.0000
  S   S46       1.0  0.42774  0.26930  0.13155  1.0000
  C   C125      1.0  0.42354  0.33519  0.14661  1.0000
  S   S47       1.0  0.01997  0.47834  0.29644  1.0000
  S   S48       1.0  0.07386  0.48530  0.26279  1.0000
  C   C126      1.0  0.43932  0.35270  0.12479  1.0000
  C   C127      1.0  0.08848  0.46166  0.39331  1.0000
  C   C128      1.0  0.47669  0.45654  0.18829  1.0000
  S   S49       1.0  0.46882  0.38236  0.17757  1.0000
  C   C129      1.0  0.45865  0.38601  0.23543  1.0000
  H   H129      1.0  0.99600  0.41866  0.29352  1.0000
  S   S50       1.0  0.41305  0.24473  0.06294  1.0000
  C   C130      1.0  0.45162  0.29169  0.11175  1.0000
  H   H130      1.0  0.45442  0.28295  0.06954  1.0000
  S   S51       1.0  0.10750  0.46291  0.31921  1.0000
  C   C131      1.0  0.43723  0.33446  0.05426  1.0000
  H   H131      1.0  0.44820  0.42721  0.20129  1.0000
  H   H132      1.0  0.45325  0.30470  0.15018  1.0000
  C   C132      1.0  0.11848  0.45071  0.40694  1.0000
  C   C133      1.0  0.08893  0.42696  0.38955  1.0000
  H   H133      1.0  0.00571  0.38374  0.24664  1.0000
  N   N11       1.0  0.99257  0.37111  0.21222  1.0000
  H   H134      1.0  0.00912  0.38778  0.16629  1.0000
  C   C134      1.0  0.46237  0.43842  0.18312  1.0000
  N   N12       1.0  0.09880  0.44694  0.39678  1.0000
  C   C135      1.0  0.46035  0.30716  0.12632  1.0000
  Fe  Fe27      1.0  0.07649  0.46948  0.30790  1.0000
  C   C136      1.0  0.00011  0.42601  0.24544  1.0000
  C   C137      1.0  0.01128  0.43736  0.40835  1.0000
  C   C138      1.0  0.02023  0.42307  0.39807  1.0000
  C   C139      1.0  0.02964  0.41151  0.41658  1.0000
  C   C140      1.0  0.03036  0.41438  0.44531  1.0000
  C   C141      1.0  0.02056  0.42804  0.45618  1.0000
  C   C142      1.0  0.01094  0.43951  0.43769  1.0000
  H   H135      1.0  0.01963  0.42070  0.37597  1.0000
  H   H136      1.0  0.03657  0.40050  0.40845  1.0000
  H   H137      1.0  0.47455  0.26420  0.14802  1.0000
  H   H138      1.0  0.00388  0.45043  0.44585  1.0000
  C   C143      1.0  0.14655  0.48070  0.33740  1.0000
  H   H139      1.0  0.45045  0.38938  0.28084  1.0000
  H   H140      1.0  0.99233  0.35505  0.47751  1.0000
  S   S52       1.0  0.04424  0.40129  0.46684  1.0000
  H   H141      1.0  0.40009  0.30355  0.15467  1.0000
  C   C144      1.0  0.46241  0.39585  0.25875  1.0000
  C   C145      1.0  0.16163  0.45718  0.47430  1.0000
  C   C146      1.0  0.01196  0.38208  0.22364  1.0000
  H   H142      1.0  0.12658  0.43901  0.40985  1.0000
  H   H143      1.0  0.45637  0.36564  0.07768  1.0000
  H   H144      1.0  0.44373  0.37199  0.23953  1.0000
  C   C147      1.0  0.99403  0.37564  0.18190  1.0000
  H   H145      1.0  0.14667  0.46499  0.34404  1.0000
  C   C148      1.0  0.47421  0.39424  0.20693  1.0000
  H   H146      1.0  0.44864  0.36638  0.13150  1.0000
  H   H147      1.0  0.42589  0.34096  0.04294  1.0000
  S   S53       1.0  0.46997  0.25157  0.00294  1.0000
  C   C149      1.0  0.98855  0.41471  0.27520  1.0000
  H   H148      1.0  0.10271  0.42344  0.37523  1.0000
  C   C150      1.0  0.44355  0.35220  0.09446  1.0000
  S   S54       1.0  0.18357  0.46073  0.44275  1.0000
  H   H149      1.0  0.42070  0.33525  0.17027  1.0000
  C   C151      1.0  0.12938  0.48426  0.32384  1.0000
  C   C152      1.0  0.47828  0.31390  0.06450  1.0000
  H   H150      1.0  0.02410  0.37336  0.22450  1.0000
  C   C153      1.0  0.46722  0.43419  0.15502  1.0000
  H   H151      1.0  0.43446  0.31834  0.05172  1.0000
  H   H152      1.0  0.45567  0.34388  0.04258  1.0000
  C   C154      1.0  0.41647  0.31758  0.10731  1.0000
  H   H153      1.0  0.99941  0.42937  0.19879  1.0000
  H   H154      1.0  0.45681  0.41968  0.15124  1.0000
  C   C155      1.0  0.13957  0.44258  0.47849  1.0000
  H   H155      1.0  0.08054  0.41427  0.41063  1.0000
  C   C156      1.0  0.09871  0.48126  0.39832  1.0000
  N   N13       1.0  0.43244  0.33466  0.08615  1.0000
  H   H156      1.0  0.40792  0.30350  0.10089  1.0000
  H   H157      1.0  0.07597  0.42748  0.37624  1.0000
  C   C157      1.0  0.47747  0.32627  0.10978  1.0000
  C   C158      1.0  0.12906  0.47006  0.41238  1.0000
  H   H158      1.0  0.14517  0.47318  0.41927  1.0000
  H   H159      1.0  0.98875  0.46862  0.23271  1.0000
  S   S55       1.0  0.45712  0.23934  0.08883  1.0000
  C   C159      1.0  0.11934  0.48555  0.40743  1.0000
  H   H160      1.0  0.98990  0.47993  0.42117  1.0000
  S   S56       1.0  0.00937  0.39329  0.54829  1.0000
  Fe  Fe28      1.0  0.06900  0.42945  0.55175  1.0000
  S   S57       1.0  0.03876  0.41606  0.59223  1.0000
  S   S58       1.0  0.10365  0.44971  0.55459  1.0000
  Fe  Fe29      1.0  0.03227  0.38642  0.57732  1.0000
  S   S59       1.0  0.02420  0.35467  0.60761  1.0000
  Fe  Fe30      1.0  0.01868  0.42435  0.55948  1.0000
  Fe  Fe31      1.0  0.04205  0.40855  0.51171  1.0000
  H   H161      1.0  0.07134  0.35728  0.59522  1.0000
  H   H162      1.0  0.12533  0.37409  0.51442  1.0000
  C   C160      1.0  0.08554  0.39342  0.61068  1.0000
  H   H163      1.0  0.18284  0.48087  0.49143  1.0000
  C   C161      1.0  0.09719  0.36335  0.55445  1.0000
  H   H164      1.0  0.08909  0.34827  0.55025  1.0000
  H   H165      1.0  0.10446  0.42991  0.50503  1.0000
  C   C162      1.0  0.11687  0.40196  0.56542  1.0000
  C   C163      1.0  0.12753  0.39718  0.54001  1.0000
  H   H166      1.0  0.01616  0.31053  0.62244  1.0000
  C   C164      1.0  0.12157  0.44062  0.50270  1.0000
  C   C165      1.0  0.02339  0.33694  0.58516  1.0000
  C   C166      1.0  0.02756  0.34388  0.55389  1.0000
  C   C167      1.0  0.02623  0.32969  0.53594  1.0000
  C   C168      1.0  0.01849  0.31580  0.59842  1.0000
  C   C169      1.0  0.14801  0.46692  0.51962  1.0000
  H   H167      1.0  0.01277  0.28517  0.59067  1.0000
  H   H168      1.0  0.03148  0.36013  0.54341  1.0000
  H   H169      1.0  0.02936  0.33511  0.51175  1.0000
  H   H170      1.0  0.98611  0.37074  0.50196  1.0000
  S   S60       1.0  0.98982  0.43582  0.57409  1.0000
  H   H171      1.0  0.08772  0.41030  0.60507  1.0000
  N   N14       1.0  0.09667  0.38790  0.58455  1.0000
  H   H172      1.0  0.06656  0.38458  0.61778  1.0000
  H   H173      1.0  0.12459  0.41719  0.56937  1.0000
  C   C170      1.0  0.12584  0.45255  0.52357  1.0000
  C   C171      1.0  0.16579  0.46952  0.49466  1.0000
  H   H174      1.0  0.09322  0.39001  0.62984  1.0000
  C   C172      1.0  0.01651  0.30148  0.58051  1.0000
  H   H175      1.0  0.15147  0.47621  0.53564  1.0000
  S   S61       1.0  0.06430  0.39907  0.53968  1.0000
  C   C173      1.0  0.08714  0.36858  0.57981  1.0000
  H   H176      1.0  0.14328  0.40861  0.52451  1.0000
  C   C174      1.0  0.11746  0.37782  0.53437  1.0000
  H   H177      1.0  0.02102  0.46635  0.51923  1.0000
  S   S62       1.0  0.04966  0.44041  0.52008  1.0000
  C   C175      1.0  0.99151  0.46082  0.55541  1.0000
  S   S63       1.0  0.01451  0.29062  0.52701  1.0000
  C   C176      1.0  0.01986  0.30839  0.54932  1.0000
  C   C177      1.0  0.00873  0.47275  0.52908  1.0000
  C   C178      1.0  0.99752  0.25640  0.69146  1.0000
  Fe  Fe32      1.0  0.98963  0.25925  0.55448  1.0000
  H   H178      1.0  0.01044  0.36221  0.50254  1.0000
  H   H179      1.0  0.00950  0.24936  0.68216  1.0000
  C   C179      1.0  0.99232  0.35751  0.50042  1.0000
  H   H180      1.0  0.99325  0.26942  0.64836  1.0000
  H   H181      1.0  0.98555  0.31806  0.49806  1.0000
  H   H182      1.0  0.99732  0.24430  0.73755  1.0000
  C   C180      1.0  0.99063  0.25351  0.72253  1.0000
  C   C181      1.0  0.98817  0.26772  0.67245  1.0000
  H   H183      1.0  0.09983  0.46958  0.48914  1.0000
  C   C182      1.0  0.10307  0.48650  0.48152  1.0000
  C   C183      1.0  0.12124  0.62378  0.44689  1.0000
  Fe  Fe33      1.0  0.40656  0.63005  0.42703  1.0000
  S   S64       1.0  0.06033  0.53571  0.27118  1.0000
  C   C184      1.0  0.18201  0.61251  0.39297  1.0000
  S   S65       1.0  0.22992  0.71287  0.39572  1.0000
  C   C185      1.0  0.39922  0.68987  0.44366  1.0000
  S   S66       1.0  0.38898  0.59579  0.43430  1.0000
  C   C186      1.0  0.29108  0.56922  0.46478  1.0000
  S   S67       1.0  0.41824  0.65341  0.38245  1.0000
  C   C187      1.0  0.44577  0.67395  0.41419  1.0000
  S   S68       1.0  0.22417  0.55537  0.39397  1.0000
  S   S69       1.0  0.18445  0.55100  0.47047  1.0000
  H   H184      1.0  0.28046  0.59162  0.38965  1.0000
  C   C188      1.0  0.12145  0.62769  0.41629  1.0000
  Fe  Fe34      1.0  0.24461  0.53432  0.40127  1.0000
  S   S70       1.0  0.28347  0.54772  0.39056  1.0000
  C   C189      1.0  0.11456  0.56089  0.29663  1.0000
  C   C190      1.0  0.16187  0.64549  0.43389  1.0000
  H   H185      1.0  0.43125  0.66620  0.43362  1.0000
  H   H186      1.0  0.13764  0.55791  0.34431  1.0000
  Fe  Fe35      1.0  0.04643  0.57058  0.41296  1.0000
  C   C191      1.0  0.31457  0.57295  0.46341  1.0000
  S   S71       1.0  0.03719  0.58191  0.37040  1.0000
  Fe  Fe36      1.0  0.07128  0.54430  0.44040  1.0000
  H   H187      1.0  0.17635  0.49443  0.35387  1.0000
  S   S72       1.0  0.09385  0.52666  0.42743  1.0000
  H   H188      1.0  0.43216  0.59359  0.40167  1.0000
  S   S73       1.0  0.27368  0.70390  0.41817  1.0000
  H   H189      1.0  0.38237  0.67767  0.44916  1.0000
  S   S74       1.0  0.03542  0.53643  0.43457  1.0000
  S   S75       1.0  0.08336  0.57763  0.41459  1.0000
  H   H190      1.0  0.47865  0.63040  0.42615  1.0000
  C   C192      1.0  0.15993  0.54995  0.45707  1.0000
  C   C193      1.0  0.20611  0.62083  0.38365  1.0000
  C   C194      1.0  0.11845  0.54104  0.46684  1.0000
  C   C195      1.0  0.11928  0.53798  0.43783  1.0000
  C   C196      1.0  0.14058  0.54305  0.41756  1.0000
  C   C197      1.0  0.16091  0.54979  0.42693  1.0000
  H   H191      1.0  0.46972  0.54352  0.31306  1.0000
  H   H192      1.0  0.43822  0.71553  0.47823  1.0000
  H   H193      1.0  0.14148  0.54118  0.39488  1.0000
  H   H194      1.0  0.17733  0.55359  0.41111  1.0000
  H   H195      1.0  0.17608  0.59180  0.46692  1.0000
  C   C198      1.0  0.32767  0.56728  0.44113  1.0000
  C   C199      1.0  0.31773  0.55885  0.41952  1.0000
  C   C200      1.0  0.29448  0.55567  0.42029  1.0000
  C   C201      1.0  0.28099  0.56047  0.44334  1.0000
  C   C202      1.0  0.43180  0.71545  0.40733  1.0000
  H   H196      1.0  0.34539  0.56913  0.44064  1.0000
  H   H197      1.0  0.32814  0.55485  0.40203  1.0000
  H   H198      1.0  0.26299  0.55805  0.44411  1.0000
  H   H199      1.0  0.12790  0.50092  0.41033  1.0000
  C   C203      1.0  0.44357  0.67151  0.38562  1.0000
  H   H200      1.0  0.28926  0.61987  0.38157  1.0000
  C   C204      1.0  0.40911  0.69508  0.46709  1.0000
  C   C205      1.0  0.16209  0.64957  0.40329  1.0000
  H   H201      1.0  0.14805  0.53724  0.31078  1.0000
  C   C206      1.0  0.04353  0.56879  0.34323  1.0000
  C   C207      1.0  0.03984  0.57453  0.31468  1.0000
  C   C208      1.0  0.04486  0.56417  0.29269  1.0000
  C   C209      1.0  0.05314  0.54778  0.29941  1.0000
  C   C210      1.0  0.05673  0.54196  0.32803  1.0000
  C   C211      1.0  0.05208  0.55256  0.34986  1.0000
  H   H202      1.0  0.03325  0.58709  0.30947  1.0000
  H   H203      1.0  0.04224  0.56880  0.27049  1.0000
  H   H204      1.0  0.06378  0.52977  0.33306  1.0000
  H   H205      1.0  0.05546  0.54833  0.37161  1.0000
  H   H206      1.0  0.10570  0.62141  0.40944  1.0000
  H   H207      1.0  0.44095  0.72344  0.38402  1.0000
  H   H208      1.0  0.10605  0.58766  0.34810  1.0000
  H   H209      1.0  0.11871  0.54717  0.29407  1.0000
  C   C212      1.0  0.32436  0.59980  0.36617  1.0000
  Fe  Fe37      1.0  0.21900  0.67973  0.39159  1.0000
  Fe  Fe38      1.0  0.20178  0.53611  0.43940  1.0000
  C   C213      1.0  0.29904  0.63864  0.46364  1.0000
  H   H210      1.0  0.35440  0.59511  0.34216  1.0000
  C   C214      1.0  0.13883  0.54669  0.47673  1.0000
  H   H211      1.0  0.13582  0.68522  0.40581  1.0000
  H   H212      1.0  0.17659  0.70237  0.40601  1.0000
  S   S76       1.0  0.09549  0.60924  0.47456  1.0000
  H   H213      1.0  0.18803  0.69971  0.45477  1.0000
  C   C215      1.0  0.32479  0.68087  0.45523  1.0000
  C   C216      1.0  0.17011  0.69252  0.45442  1.0000
  H   H214      1.0  0.11680  0.50757  0.30356  1.0000
  C   C217      1.0  0.32758  0.66571  0.47697  1.0000
  C   C218      1.0  0.16340  0.49735  0.34291  1.0000
  H   H215      1.0  0.09850  0.59805  0.25746  1.0000
  S   S77       1.0  0.43620  0.57427  0.45974  1.0000
  Fe  Fe39      1.0  0.23693  0.69916  0.43900  1.0000
  H   H216      1.0  0.38804  0.67806  0.39657  1.0000
  C   C219      1.0  0.43059  0.71101  0.46026  1.0000
  H   H217      1.0  0.36489  0.62982  0.40893  1.0000
  C   C220      1.0  0.11861  0.55412  0.34847  1.0000
  Fe  Fe40      1.0  0.25984  0.67178  0.41143  1.0000
  C   C221      1.0  0.29129  0.60587  0.39492  1.0000
  H   H218      1.0  0.17719  0.65248  0.44096  1.0000
  N   N15       1.0  0.11320  0.56635  0.32347  1.0000
  C   C222      1.0  0.33006  0.61869  0.40343  1.0000
  S   S78       1.0  0.25420  0.68249  0.36600  1.0000
  C   C223      1.0  0.36251  0.61302  0.37449  1.0000
  C   C224      1.0  0.21908  0.61809  0.40458  1.0000
  Fe  Fe41      1.0  0.07215  0.58348  0.45951  1.0000
  H   H219      1.0  0.15239  0.59574  0.43070  1.0000
  C   C225      1.0  0.10017  0.66318  0.45313  1.0000
  H   H220      1.0  0.30771  0.68661  0.42018  1.0000
  H   H221      1.0  0.17177  0.61465  0.37700  1.0000
  S   S79       1.0  0.06092  0.48837  0.33313  1.0000
  C   C226      1.0  0.14056  0.68431  0.42718  1.0000
  C   C227      1.0  0.12970  0.50468  0.31461  1.0000
  H   H222      1.0  0.46837  0.68796  0.44021  1.0000
  H   H223      1.0  0.46041  0.68058  0.33826  1.0000
  Fe  Fe42      1.0  0.20274  0.49519  0.42550  1.0000
  H   H224      1.0  0.14186  0.64378  0.37090  1.0000
  C   C228      1.0  0.35362  0.62142  0.39675  1.0000
  Fe  Fe43      1.0  0.36653  0.59827  0.47579  1.0000
  S   S80       1.0  0.43256  0.62681  0.45291  1.0000
  H   H225      1.0  0.31295  0.59095  0.35449  1.0000
  N   N16       1.0  0.31574  0.60788  0.38832  1.0000
  C   C229      1.0  0.48000  0.58939  0.42286  1.0000
  H   H226      1.0  0.38075  0.61490  0.36939  1.0000
  C   C230      1.0  0.16367  0.69413  0.42716  1.0000
  C   C231      1.0  0.14185  0.64058  0.39453  1.0000
  H   H227      1.0  0.32325  0.62505  0.42100  1.0000
  N   N17       1.0  0.20830  0.60741  0.43396  1.0000
  C   C232      1.0  0.16373  0.51776  0.33366  1.0000
  H   H228      1.0  0.33454  0.69721  0.45196  1.0000
  Fe  Fe44      1.0  0.20215  0.53041  0.37631  1.0000
  C   C233      1.0  0.10974  0.57246  0.27234  1.0000
  H   H229      1.0  0.11227  0.55729  0.37032  1.0000
  H   H230      1.0  0.11013  0.53709  0.35108  1.0000
  C   C234      1.0  0.10204  0.59509  0.30311  1.0000
  C   C235      1.0  0.10733  0.58338  0.32680  1.0000
  H   H231      1.0  0.09637  0.60799  0.30631  1.0000
  H   H232      1.0  0.10991  0.56753  0.25152  1.0000
  H   H233      1.0  0.45866  0.73377  0.42452  1.0000
  C   C236      1.0  0.34781  0.60208  0.35911  1.0000
  S   S81       1.0  0.18456  0.53900  0.34019  1.0000
  C   C237      1.0  0.10326  0.58955  0.27573  1.0000
  C   C238      1.0  0.44206  0.72124  0.43020  1.0000
  Fe  Fe45      1.0  0.02791  0.54570  0.47763  1.0000
  C   C239      1.0  0.17115  0.60207  0.42311  1.0000
  C   C240      1.0  0.46672  0.60651  0.37282  1.0000
  H   H234      1.0  0.12193  0.49499  0.47153  1.0000
  C   C241      1.0  0.46202  0.68257  0.36036  1.0000
  Fe  Fe46      1.0  0.05530  0.50197  0.28893  1.0000
  H   H235      1.0  0.28893  0.62229  0.46725  1.0000
  C   C242      1.0  0.29590  0.65386  0.44229  1.0000
  H   H236      1.0  0.28453  0.60436  0.41928  1.0000
  H   H237      1.0  0.21228  0.59156  0.47551  1.0000
  H   H238      1.0  0.21466  0.62954  0.36045  1.0000
  C   C243      1.0  0.46669  0.68652  0.41790  1.0000
  H   H239      1.0  0.22833  0.61941  0.46302  1.0000
  S   S82       1.0  0.27477  0.64653  0.42241  1.0000
  S   S83       1.0  0.18719  0.66608  0.37557  1.0000
  N   N18       1.0  0.41066  0.69990  0.41424  1.0000
  C   C244      1.0  0.39969  0.69469  0.39006  1.0000
  H   H240      1.0  0.23782  0.62458  0.39721  1.0000
  Fe  Fe47      1.0  0.41279  0.59270  0.46408  1.0000
  C   C245      1.0  0.45012  0.59550  0.40009  1.0000
  Fe  Fe48      1.0  0.26567  0.71447  0.37424  1.0000
  C   C246      1.0  0.18466  0.59995  0.44352  1.0000
  C   C247      1.0  0.30922  0.67490  0.43761  1.0000
  S   S84       1.0  0.22363  0.66596  0.43639  1.0000
  H   H241      1.0  0.23754  0.60139  0.44497  1.0000
  S   S85       1.0  0.38236  0.63313  0.46569  1.0000
  C   C248      1.0  0.14148  0.63268  0.45565  1.0000
  H   H242      1.0  0.01964  0.50172  0.36726  1.0000
  S   S86       1.0  0.17849  0.51250  0.42141  1.0000
  C   C249      1.0  0.14717  0.52141  0.31893  1.0000
  H   H243      1.0  0.46145  0.61305  0.35353  1.0000
  S   S87       1.0  0.37561  0.73206  0.45086  1.0000
  C   C250      1.0  0.45669  0.58676  0.42508  1.0000
  S   S88       1.0  0.22505  0.51115  0.37855  1.0000
  H   H244      1.0  0.21837  0.73494  0.43945  1.0000
  H   H245      1.0  0.41291  0.69659  0.36932  1.0000
  S   S89       1.0  0.22380  0.51685  0.44857  1.0000
  S   S90       1.0  0.03592  0.57954  0.45570  1.0000
  C   C251      1.0  0.98781  0.49493  0.42062  1.0000
  C   C252      1.0  0.00347  0.50492  0.36595  1.0000
  C   C253      1.0  0.22226  0.60487  0.45550  1.0000
  H   H246      1.0  0.99728  0.54067  0.37202  1.0000
  N   N19       1.0  0.99409  0.50969  0.39382  1.0000
  C   C254      1.0  0.99185  0.52875  0.39310  1.0000
  H   H247      1.0  0.00757  0.51797  0.34569  1.0000
  H   H248      1.0  0.38955  0.70488  0.38494  1.0000
  H   H249      1.0  0.09911  0.65661  0.43318  1.0000
  N   N20       1.0  0.12436  0.67306  0.45361  1.0000
  H   H250      1.0  0.09404  0.48890  0.46349  1.0000
  H   H251      1.0  0.98175  0.54866  0.41909  1.0000
  H   H252      1.0  0.09098  0.49318  0.39451  1.0000
  H   H253      1.0  0.14134  0.62977  0.47932  1.0000
  H   H254      1.0  0.09126  0.67474  0.45255  1.0000
  C   C255      1.0  0.98292  0.53334  0.41968  1.0000
  H   H255      1.0  0.09070  0.64978  0.47323  1.0000
  H   H256      1.0  0.99079  0.49083  0.36270  1.0000
  H   H257      1.0  0.13805  0.54727  0.49992  1.0000
  H   H258      1.0  0.32992  0.60834  0.53791  1.0000
  C   C256      1.0  0.37248  0.61094  0.57352  1.0000
  H   H259      1.0  0.34825  0.55848  0.58309  1.0000
  C   C257      1.0  0.36898  0.58965  0.58304  1.0000
  C   C258      1.0  0.27146  0.67997  0.50015  1.0000
  C   C259      1.0  0.46030  0.67184  0.53066  1.0000
  C   C260      1.0  0.36196  0.63968  0.54816  1.0000
  H   H260      1.0  0.30557  0.67766  0.58015  1.0000
  C   C261      1.0  0.44730  0.65342  0.52451  1.0000
  H   H261      1.0  0.34541  0.64257  0.55350  1.0000
  N   N21       1.0  0.35814  0.61739  0.55824  1.0000
  H   H262      1.0  0.37419  0.64930  0.55895  1.0000
  C   C262      1.0  0.06487  0.50213  0.53703  1.0000
  H   H263      1.0  0.23525  0.73147  0.52524  1.0000
  H   H264      1.0  0.32301  0.57061  0.55419  1.0000
  H   H265      1.0  0.29604  0.66630  0.53520  1.0000
  C   C263      1.0  0.07318  0.49547  0.51217  1.0000
  C   C264      1.0  0.22709  0.73085  0.48231  1.0000
  C   C265      1.0  0.28666  0.69883  0.57807  1.0000
  H   H266      1.0  0.38062  0.58463  0.59471  1.0000
  H   H267      1.0  0.10205  0.53762  0.48240  1.0000
  N   N22       1.0  0.27595  0.68576  0.52778  1.0000
  S   S91       1.0  0.38920  0.59262  0.50656  1.0000
  C   C266      1.0  0.28908  0.67741  0.54313  1.0000
  S   S92       1.0  0.99514  0.52668  0.51271  1.0000
  H   H268      1.0  0.11765  0.66261  0.50143  1.0000
  C   C267      1.0  0.26820  0.70058  0.53691  1.0000
  C   C268      1.0  0.35085  0.57500  0.57652  1.0000
  C   C269      1.0  0.29457  0.68378  0.56855  1.0000
  C   C270      1.0  0.33662  0.58177  0.56043  1.0000
  H   H269      1.0  0.44654  0.62327  0.51843  1.0000
  H   H270      1.0  0.38702  0.62228  0.57791  1.0000
  H   H271      1.0  0.36946  0.64519  0.52340  1.0000
  C   C271      1.0  0.34063  0.60317  0.55124  1.0000
  H   H272      1.0  0.45304  0.68396  0.53221  1.0000
  C   C272      1.0  0.45653  0.63759  0.52296  1.0000
  C   C273      1.0  0.27332  0.70726  0.56226  1.0000
  H   H273      1.0  0.12550  0.49774  0.52244  1.0000
  Fe  Fe49      1.0  0.35820  0.70773  0.49449  1.0000
  H   H274      1.0  0.04779  0.50333  0.54102  1.0000
  S   S93       1.0  0.41921  0.65014  0.52000  1.0000
  S   S94       1.0  0.33220  0.72212  0.50899  1.0000
  C   C274      1.0  0.10068  0.50566  0.55150  1.0000
  S   S95       1.0  0.34616  0.67312  0.50004  1.0000
  C   C275      1.0  0.99377  0.50123  0.52826  1.0000
  S   S96       1.0  0.38306  0.72293  0.51955  1.0000
  H   H275      1.0  0.29130  0.70430  0.59727  1.0000
  C   C276      1.0  0.00991  0.49302  0.51550  1.0000
  C   C277      1.0  0.10847  0.49903  0.52638  1.0000
  H   H276      1.0  0.07238  0.51228  0.57623  1.0000
  H   H277      1.0  0.27412  0.66507  0.49861  1.0000
  C   C278      1.0  0.07872  0.50722  0.55680  1.0000
  N   N23       1.0  0.09479  0.49409  0.50708  1.0000
  H   H278      1.0  0.31733  0.63273  0.49738  1.0000
  Fe  Fe50      1.0  0.40719  0.62745  0.49239  1.0000
  H   H279      1.0  0.02328  0.50230  0.49532  1.0000
  H   H280      1.0  0.25825  0.70751  0.52430  1.0000
  H   H281      1.0  0.26737  0.71919  0.56927  1.0000
  S   S97       1.0  0.06302  0.55036  0.48578  1.0000
  H   H282      1.0  0.25330  0.67791  0.49929  1.0000
  H   H283      1.0  0.11157  0.50938  0.56680  1.0000
  H   H284      1.0  0.15841  0.67983  0.50253  1.0000
  S   S98       1.0  0.22786  0.70568  0.48407  1.0000
  H   H285      1.0  0.31497  0.73705  0.63320  1.0000
  H   H286      1.0  0.40010  0.68686  0.49038  1.0000
  S   S99       1.0  0.32746  0.58538  0.48894  1.0000
  H   H287      1.0  0.06237  0.49164  0.49679  1.0000
  C   C279      1.0  0.47843  0.63998  0.52838  1.0000
  C   C280      1.0  0.15344  0.68125  0.48129  1.0000
  C   C281      1.0  0.13047  0.67162  0.48050  1.0000
  H   H288      1.0  0.47990  0.71985  0.52902  1.0000
  H   H289      1.0  0.28074  0.57335  0.48214  1.0000
  C   C282      1.0  0.31502  0.64456  0.48082  1.0000
  H   H290      1.0  0.28331  0.69249  0.48019  1.0000
  C   C283      1.0  0.32214  0.91040  0.22885  1.0000
  H   H291      1.0  0.42681  0.82327  0.32882  1.0000
  N   N24       1.0  0.36136  0.84699  0.44968  1.0000
  H   H292      1.0  0.31305  0.85215  0.22028  1.0000
  H   H293      1.0  0.40376  0.80844  0.29351  1.0000
  H   H294      1.0  0.28889  0.83990  0.25272  1.0000
  Fe  Fe51      1.0  0.35194  0.74805  0.46797  1.0000
  C   C284      1.0  0.31265  0.86531  0.45856  1.0000
  H   H295      1.0  0.33617  0.92433  0.21482  1.0000
  Fe  Fe52      1.0  0.32044  0.85346  0.32147  1.0000
  H   H296      1.0  0.33729  0.88951  0.21239  1.0000
  H   H297      1.0  0.27404  0.86048  0.28063  1.0000
  C   C285      1.0  0.28741  0.87446  0.26561  1.0000
  C   C286      1.0  0.32259  0.89060  0.22745  1.0000
  C   C287      1.0  0.22234  0.76230  0.45629  1.0000
  C   C288      1.0  0.37048  0.76098  0.36163  1.0000
  C   C289      1.0  0.39193  0.77523  0.36122  1.0000
  C   C290      1.0  0.34530  0.90587  0.43703  1.0000
  C   C291      1.0  0.30412  0.91211  0.24936  1.0000
  C   C292      1.0  0.37256  0.79403  0.41363  1.0000
  H   H298      1.0  0.44026  0.80432  0.32161  1.0000
  C   C293      1.0  0.30626  0.85238  0.24388  1.0000
  C   C294      1.0  0.27260  0.76996  0.40930  1.0000
  H   H299      1.0  0.34579  0.96203  0.28634  1.0000
  H   H300      1.0  0.27274  0.89517  0.28437  1.0000
  C   C295      1.0  0.44696  0.77351  0.42076  1.0000
  C   C296      1.0  0.43395  0.76387  0.40256  1.0000
  C   C297      1.0  0.44355  0.76788  0.37159  1.0000
  C   C298      1.0  0.28470  0.79904  0.44249  1.0000
  H   H301      1.0  0.43391  0.75949  0.35790  1.0000
  N   N25       1.0  0.27596  0.80359  0.41825  1.0000
  H   H302      1.0  0.25356  0.82053  0.41199  1.0000
  H   H303      1.0  0.30410  0.92744  0.25129  1.0000
  C   C299      1.0  0.46621  0.78168  0.35871  1.0000
  C   C300      1.0  0.32421  0.87493  0.47808  1.0000
  C   C301      1.0  0.28105  0.76502  0.43429  1.0000
  C   C302      1.0  0.42610  0.80692  0.33672  1.0000
  H   H304      1.0  0.25189  0.78953  0.32851  1.0000
  C   C303      1.0  0.28658  0.89404  0.26787  1.0000
  H   H305      1.0  0.39873  0.77315  0.38088  1.0000
  H   H306      1.0  0.42936  0.80527  0.35958  1.0000
  H   H307      1.0  0.34774  0.81829  0.35183  1.0000
  C   C304      1.0  0.39458  0.79499  0.31258  1.0000
  H   H308      1.0  0.26221  0.79278  0.38339  1.0000
  H   H309      1.0  0.31769  0.84842  0.25781  1.0000
  H   H310      1.0  0.26770  0.75863  0.39631  1.0000
  N   N26       1.0  0.30516  0.87295  0.24535  1.0000
  S   S100      1.0  0.34071  0.90970  0.37946  1.0000
  C   C305      1.0  0.35697  0.96081  0.26673  1.0000
  H   H311      1.0  0.34985  0.92820  0.28412  1.0000
  C   C306      1.0  0.27012  0.76776  0.33349  1.0000
  H   H312      1.0  0.38501  0.86194  0.40671  1.0000
  N   N27       1.0  0.40359  0.79208  0.33702  1.0000
  C   C307      1.0  0.34070  0.89508  0.46723  1.0000
  C   C308      1.0  0.38619  0.95754  0.21645  1.0000
  C   C309      1.0  0.38183  0.96901  0.32781  1.0000
  H   H313      1.0  0.37964  0.78727  0.43066  1.0000
  S   S101      1.0  0.37594  0.91547  0.23838  1.0000
  C   C310      1.0  0.35921  0.94155  0.26542  1.0000
  C   C311      1.0  0.37089  0.86426  0.42230  1.0000
  H   H314      1.0  0.29991  0.84971  0.46694  1.0000
  H   H315      1.0  0.36603  0.78335  0.29282  1.0000
  C   C312      1.0  0.35459  0.81161  0.36915  1.0000
  H   H316      1.0  0.32369  0.78456  0.38815  1.0000
  H   H317      1.0  0.25485  0.75405  0.33762  1.0000
  C   C313      1.0  0.26851  0.78781  0.32808  1.0000
  H   H318      1.0  0.41708  0.75235  0.41251  1.0000
  H   H319      1.0  0.28204  0.83202  0.38641  1.0000
  C   C314      1.0  0.28827  0.80550  0.32353  1.0000
  S   S102      1.0  0.28624  0.83032  0.32125  1.0000
  S   S103      1.0  0.35432  0.85791  0.29019  1.0000
  C   C315      1.0  0.31771  0.87594  0.42808  1.0000
  C   C316      1.0  0.35122  0.82713  0.44723  1.0000
  C   C317      1.0  0.29162  0.76559  0.33335  1.0000
  H   H320      1.0  0.27770  0.83365  0.42518  1.0000
  H   H321      1.0  0.32793  0.78185  0.32733  1.0000
  C   C318      1.0  0.37374  0.93982  0.24030  1.0000
  H   H322      1.0  0.35786  0.92157  0.42880  1.0000
  C   C319      1.0  0.31135  0.78338  0.32743  1.0000
  H   H323      1.0  0.36783  0.96140  0.34812  1.0000
  C   C320      1.0  0.30964  0.80321  0.32280  1.0000
  C   C321      1.0  0.27230  0.82351  0.41002  1.0000
  H   H324      1.0  0.32488  0.81672  0.31898  1.0000
  C   C322      1.0  0.36983  0.97860  0.24330  1.0000
  C   C323      1.0  0.33393  0.89627  0.41741  1.0000
  Fe  Fe53      1.0  0.36022  0.89210  0.28333  1.0000
  C   C324      1.0  0.34101  0.79256  0.38978  1.0000
  H   H325      1.0  0.38428  0.94008  0.32028  1.0000
  S   S104      1.0  0.32514  0.88743  0.31117  1.0000
  H   H326      1.0  0.35718  0.86501  0.41050  1.0000
  C   C325      1.0  0.34990  0.78383  0.41217  1.0000
  Fe  Fe54      1.0  0.36842  0.86086  0.33082  1.0000
  S   S105      1.0  0.37783  0.89551  0.32069  1.0000
  S   S106      1.0  0.33235  0.76041  0.43841  1.0000
  C   C326      1.0  0.26985  0.78933  0.40184  1.0000
  H   H327      1.0  0.34441  0.75299  0.33702  1.0000
  S   S107      1.0  0.39323  0.84628  0.34593  1.0000
  C   C327      1.0  0.28714  0.77960  0.45107  1.0000
  C   C328      1.0  0.37707  0.82194  0.37075  1.0000
  Fe  Fe55      1.0  0.34238  0.88847  0.34918  1.0000
  S   S108      1.0  0.33411  0.85388  0.36285  1.0000
  H   H328      1.0  0.37788  0.87967  0.42735  1.0000
  C   C329      1.0  0.38618  0.81312  0.39286  1.0000
  H   H329      1.0  0.30877  0.86865  0.41294  1.0000
  H   H330      1.0  0.40359  0.82119  0.39422  1.0000
  H   H331      1.0  0.39740  0.95630  0.19686  1.0000
  C   C330      1.0  0.40839  0.96671  0.28536  1.0000
  C   C331      1.0  0.39111  0.95697  0.31215  1.0000
  H   H332      1.0  0.21871  0.77092  0.43709  1.0000
  C   C332      1.0  0.38442  0.97700  0.21807  1.0000
  S   S109      1.0  0.29470  0.74106  0.34055  1.0000
  S   S110      1.0  0.43673  0.76589  0.46022  1.0000
  H   H333      1.0  0.34982  0.82437  0.42541  1.0000
  C   C333      1.0  0.22798  0.77176  0.47929  1.0000
  C   C334      1.0  0.34268  0.81017  0.47273  1.0000
  H   H334      1.0  0.28905  0.81015  0.45589  1.0000
  C   C335      1.0  0.37331  0.78089  0.31206  1.0000
  H   H335      1.0  0.41491  0.95737  0.27229  1.0000
  H   H336      1.0  0.28280  0.74986  0.44071  1.0000
  C   C336      1.0  0.22219  0.74193  0.45760  1.0000
  H   H337      1.0  0.36080  0.74817  0.38143  1.0000
  C   C337      1.0  0.36119  0.76381  0.33681  1.0000
  H   H338      1.0  0.33521  0.79438  0.47058  1.0000
  Fe  Fe56      1.0  0.39825  0.74902  0.47726  1.0000
  H   H339      1.0  0.29338  0.77566  0.47078  1.0000
  C   C338      1.0  0.36278  0.85061  0.47729  1.0000
  S   S111      1.0  0.23088  0.79801  0.47588  1.0000
  C   C339      1.0  0.46917  0.78821  0.40751  1.0000
  S   S112      1.0  0.47967  0.78342  0.32161  1.0000
  H   H340      1.0  0.47917  0.79615  0.42125  1.0000
  C   C340      1.0  0.47878  0.79232  0.37649  1.0000
  H   H341      1.0  0.37010  0.86640  0.47953  1.0000
  H   H342      1.0  0.25544  0.78748  0.64928  1.0000
  C   C341      1.0  0.24108  0.83364  0.67173  1.0000
  Fe  Fe57      1.0  0.04290  0.91964  0.79737  1.0000
  H   H343      1.0  0.17831  0.92390  0.85570  1.0000
  C   C342      1.0  0.12032  0.89061  0.78888  1.0000
  H   H344      1.0  0.20002  0.77525  0.66589  1.0000
  C   C343      1.0  0.17603  0.94519  0.90622  1.0000
  C   C344      1.0  0.34405  0.81371  0.50097  1.0000
  C   C345      1.0  0.13174  0.89334  0.73563  1.0000
  H   H345      1.0  0.07354  0.87898  0.76063  1.0000
  C   C346      1.0  0.31488  0.75682  0.56079  1.0000
  H   H346      1.0  0.25396  0.96996  0.75233  1.0000
  H   H347      1.0  0.26486  0.92521  0.58109  1.0000
  C   C347      1.0  0.16320  0.95795  0.82665  1.0000
  H   H348      1.0  0.99387  0.86084  0.70312  1.0000
  S   S113      1.0  0.19329  0.90181  0.79149  1.0000
  H   H349      1.0  0.32440  0.75927  0.53786  1.0000
  H   H350      1.0  0.23415  0.96851  0.81068  1.0000
  C   C348      1.0  0.22488  0.81836  0.66317  1.0000
  H   H351      1.0  0.19366  0.97599  0.83814  1.0000
  H   H352      1.0  0.18821  0.91585  0.88831  1.0000
  C   C349      1.0  0.21297  0.78656  0.64564  1.0000
  S   S114      1.0  0.25494  0.95791  0.85977  1.0000
  C   C350      1.0  0.16672  0.95841  0.91922  1.0000
  C   C351      1.0  0.25107  0.93219  0.58354  1.0000
  C   C352      1.0  0.23741  0.94267  0.84077  1.0000
  S   S115      1.0  0.34603  0.73975  0.57884  1.0000
  C   C353      1.0  0.27175  0.96969  0.75069  1.0000
  S   S116      1.0  0.09563  0.97081  0.77905  1.0000
  S   S117      1.0  0.04152  0.95043  0.77448  1.0000
  Fe  Fe58      1.0  0.07723  0.95585  0.74764  1.0000
  S   S118      1.0  0.08997  0.96852  0.69760  1.0000
  Fe  Fe59      1.0  0.05986  0.96255  0.80817  1.0000
  C   C354      1.0  0.17579  0.97373  0.83848  1.0000
  Fe  Fe60      1.0  0.28408  0.83651  0.53118  1.0000
  S   S119      1.0  0.26735  0.82418  0.58062  1.0000
  S   S120      1.0  0.31889  0.86171  0.51585  1.0000
  Fe  Fe61      1.0  0.24421  0.80828  0.51405  1.0000
  S   S121      1.0  0.22368  0.79357  0.56188  1.0000
  Fe  Fe62      1.0  0.23531  0.82616  0.56750  1.0000
  S   S122      1.0  0.21006  0.83675  0.59518  1.0000
  Fe  Fe63      1.0  0.25746  0.79288  0.57046  1.0000
  S   S123      1.0  0.25784  0.76562  0.60422  1.0000
  S   S124      1.0  0.25281  0.84118  0.51858  1.0000
  S   S125      1.0  0.27734  0.80498  0.52203  1.0000
  Fe  Fe64      1.0  0.19016  0.92991  0.68475  1.0000
  S   S126      1.0  0.22675  0.94722  0.65800  1.0000
  S   S127      1.0  0.16343  0.92731  0.65803  1.0000
  H   H353      1.0  0.14509  0.89691  0.71512  1.0000
  S   S128      1.0  0.24211  0.93358  0.72000  1.0000
  Fe  Fe65      1.0  0.23140  0.95944  0.69842  1.0000
  H   H354      1.0  0.20817  0.81975  0.66262  1.0000
  Fe  Fe66      1.0  0.23370  0.91964  0.68190  1.0000
  S   S129      1.0  0.25764  0.90721  0.65528  1.0000
  S   S130      1.0  0.19401  0.94465  0.72344  1.0000
  S   S131      1.0  0.19663  0.90133  0.70620  1.0000
  C   C355      1.0  0.24428  0.88787  0.63831  1.0000
  C   C356      1.0  0.25797  0.88150  0.61756  1.0000
  C   C357      1.0  0.24757  0.86604  0.60377  1.0000
  C   C358      1.0  0.22347  0.85665  0.61114  1.0000
  C   C359      1.0  0.20980  0.86304  0.63179  1.0000
  C   C360      1.0  0.22018  0.87876  0.64513  1.0000
  H   H355      1.0  0.27664  0.88861  0.61203  1.0000
  H   H356      1.0  0.25825  0.86147  0.58742  1.0000
  H   H357      1.0  0.19113  0.85590  0.63741  1.0000
  H   H358      1.0  0.20948  0.88368  0.66078  1.0000
  C   C361      1.0  0.11140  0.95832  0.68584  1.0000
  C   C362      1.0  0.11584  0.95551  0.65670  1.0000
  C   C363      1.0  0.13196  0.94606  0.64819  1.0000
  C   C364      1.0  0.14412  0.93998  0.66849  1.0000
  C   C365      1.0  0.14013  0.94338  0.69731  1.0000
  C   C366      1.0  0.12360  0.95231  0.70604  1.0000
  H   H359      1.0  0.10635  0.96004  0.64105  1.0000
  S   S132      1.0  0.12388  0.93374  0.81473  1.0000
  H   H360      1.0  0.14923  0.93861  0.71322  1.0000
  H   H361      1.0  0.12020  0.95446  0.72852  1.0000
  C   C367      1.0  0.32206  0.74771  0.58494  1.0000
  C   C368      1.0  0.21033  0.91759  0.81023  1.0000
  C   C369      1.0  0.14372  0.95637  0.92051  1.0000
  H   H362      1.0  0.07751  0.86558  0.83106  1.0000
  H   H363      1.0  0.20401  0.79416  0.63110  1.0000
  S   S133      1.0  0.01347  0.88902  0.80794  1.0000
  H   H364      1.0  0.11267  0.94008  0.90862  1.0000
  C   C370      1.0  0.12930  0.96743  0.83936  1.0000
  H   H365      1.0  0.08468  0.89335  0.82743  1.0000
  S   S134      1.0  0.37556  0.76688  0.49139  1.0000
  C   C371      1.0  0.26286  0.83235  0.67157  1.0000
  H   H366      1.0  0.21049  0.94647  0.78360  1.0000
  C   C372      1.0  0.13026  0.94116  0.90894  1.0000
  H   H367      1.0  0.13499  0.94344  0.62587  1.0000
  H   H368      1.0  0.12985  0.91708  0.88588  1.0000
  H   H369      1.0  0.19420  0.94739  0.90428  1.0000
  H   H370      1.0  0.27999  0.97163  0.72663  1.0000
  C   C373      1.0  0.13771  0.89486  0.76277  1.0000
  S   S135      1.0  0.05824  0.93125  0.83375  1.0000
  C   C374      1.0  0.13987  0.95460  0.82744  1.0000
  H   H371      1.0  0.22108  0.77782  0.63219  1.0000
  H   H372      1.0  0.10389  0.88702  0.71361  1.0000
  H   H373      1.0  0.23785  0.91381  0.86666  1.0000
  H   H374      1.0  0.02251  0.91129  0.74553  1.0000
  H   H375      1.0  0.11131  0.96501  0.84000  1.0000
  C   C375      1.0  0.35403  0.83406  0.50333  1.0000
  C   C376      1.0  0.29535  0.76278  0.56643  1.0000
  H   H376      1.0  0.27574  0.84440  0.67746  1.0000
  N   N28       1.0  0.16261  0.93014  0.89526  1.0000
  H   H377      1.0  0.12521  0.89223  0.80974  1.0000
  C   C377      1.0  0.14009  0.92818  0.89615  1.0000
  H   H378      1.0  0.28968  0.76965  0.54784  1.0000
  C   C378      1.0  0.25127  0.80042  0.65553  1.0000
  C   C379      1.0  0.22957  0.95181  0.81739  1.0000
  H   H379      1.0  0.27036  0.95408  0.76375  1.0000
  Fe  Fe67      1.0  0.20432  0.91782  0.74224  1.0000
  N   N29       1.0  0.09758  0.88503  0.78796  1.0000
  H   H380      1.0  0.17750  0.97077  0.92707  1.0000
  C   C380      1.0  0.17283  0.91705  0.88044  1.0000
  C   C381      1.0  0.26799  0.81556  0.66362  1.0000
  C   C382      1.0  0.14186  0.98316  0.85124  1.0000
  C   C383      1.0  0.29138  0.98238  0.78826  1.0000
  H   H381      1.0  0.17152  0.94830  0.81694  1.0000
  H   H382      1.0  0.13669  0.96721  0.92921  1.0000
  H   H383      1.0  0.06267  0.87997  0.81116  1.0000
  H   H384      1.0  0.25623  0.94665  0.56521  1.0000
  H   H385      1.0  0.21039  0.98246  0.67134  1.0000
  C   C384      1.0  0.21783  0.90842  0.83392  1.0000
  H   H386      1.0  0.20702  0.87667  0.55370  1.0000
  C   C385      1.0  0.21634  0.93932  0.80182  1.0000
  C   C386      1.0  0.09154  0.88322  0.76148  1.0000
  C   C387      1.0  0.30951  0.74420  0.61453  1.0000
  H   H387      1.0  0.34964  0.90251  0.48231  1.0000
  C   C388      1.0  0.99053  0.89962  0.73251  1.0000
  C   C389      1.0  0.23169  0.92097  0.84877  1.0000
  S   S136      1.0  0.07716  0.92409  0.76777  1.0000
  H   H388      1.0  0.23664  0.76765  0.52218  1.0000
  C   C390      1.0  0.00463  0.90093  0.75292  1.0000
  H   H389      1.0  0.47650  0.78993  0.48333  1.0000
  H   H390      1.0  0.99767  0.90897  0.70945  1.0000
  H   H391      1.0  0.15572  0.89958  0.76358  1.0000
  H   H392      1.0  0.16021  0.90094  0.88515  1.0000
  H   H393      1.0  0.17128  0.90579  0.60957  1.0000
  H   H394      1.0  0.21333  0.89163  0.84036  1.0000
  C   C391      1.0  0.07971  0.88068  0.81575  1.0000
  N   N30       1.0  0.23025  0.80226  0.65466  1.0000
  C   C392      1.0  0.99570  0.88854  0.78258  1.0000
  H   H395      1.0  0.28487  0.81437  0.66337  1.0000
  Fe  Fe68      1.0  0.09260  0.93864  0.80188  1.0000
  N   N31       1.0  0.22881  0.91742  0.58294  1.0000
  C   C393      1.0  0.22836  0.90288  0.56662  1.0000
  C   C394      1.0  0.20860  0.91877  0.59770  1.0000
  C   C395      1.0  0.20728  0.88873  0.56565  1.0000
  C   C396      1.0  0.18722  0.90484  0.59729  1.0000
  C   C397      1.0  0.18660  0.88966  0.58128  1.0000
  C   C398      1.0  0.23177  0.74003  0.50587  1.0000
  H   H396      1.0  0.24435  0.90172  0.55497  1.0000
  H   H397      1.0  0.20883  0.93052  0.61019  1.0000
  C   C399      1.0  0.28276  0.75914  0.59616  1.0000
  H   H398      1.0  0.17016  0.87849  0.58120  1.0000
  C   C400      1.0  0.23250  0.76054  0.50419  1.0000
  C   C401      1.0  0.10855  0.88764  0.73485  1.0000
  C   C402      1.0  0.16509  0.98629  0.85101  1.0000
  H   H399      1.0  0.23696  0.84668  0.67776  1.0000
  H   H400      1.0  0.35454  0.83712  0.52526  1.0000
  H   H401      1.0  0.33728  0.80077  0.52103  1.0000
  Fe  Fe69      1.0  0.35813  0.73918  0.53109  1.0000
  H   H402      1.0  0.16835  0.97814  0.72733  1.0000
  C   C403      1.0  0.28973  0.74963  0.62011  1.0000
  H   H403      1.0  0.14472  0.96914  0.76044  1.0000
  S   S137      1.0  0.05089  0.98476  0.83330  1.0000
  H   H404      1.0  0.25006  0.93632  0.60557  1.0000
  H   H405      1.0  0.27997  0.74666  0.64309  1.0000
  H   H406      1.0  0.28658  0.96637  0.80124  1.0000
  C   C404      1.0  0.15734  0.98326  0.74348  1.0000
  N   N32       1.0  0.28507  0.98668  0.76184  1.0000
  H   H407      1.0  0.60671  0.20091  0.12049  1.0000
  C   C405      1.0  0.50054  0.14280  0.02612  1.0000
  Fe  Fe70      1.0  0.54352  0.16380  0.05857  1.0000
  H   H408      1.0  0.48503  0.06821  0.06122  1.0000
  C   C406      1.0  0.61565  0.15589  0.15618  1.0000
  Fe  Fe71      1.0  0.58974  0.18678  0.07065  1.0000
  S   S138      1.0  0.57543  0.20820  0.09144  1.0000
  S   S139      1.0  0.62712  0.19012  0.06748  1.0000
  S   S140      1.0  0.52953  0.17389  0.16403  1.0000
  H   H409      1.0  0.75591  0.22980  0.09446  1.0000
  Fe  Fe72      1.0  0.55848  0.21008  0.05339  1.0000
  C   C407      1.0  0.50101  0.07793  0.04317  1.0000
  Fe  Fe73      1.0  0.54481  0.17937  0.11478  1.0000
  C   C408      1.0  0.50666  0.21479  0.12873  1.0000
  S   S141      1.0  0.57502  0.19079  0.03021  1.0000
  S   S142      1.0  0.56006  0.15758  0.09664  1.0000
  H   H410      1.0  0.51272  0.13843  0.13925  1.0000
  H   H411      1.0  0.63609  0.17345  0.18135  1.0000
  C   C409      1.0  0.49469  0.23106  0.03017  1.0000
  H   H412      1.0  0.59367  0.19380  0.21589  1.0000
  C   C410      1.0  0.49034  0.11299  0.17708  1.0000
  H   H413      1.0  0.50637  0.15242  0.22567  1.0000
  C   C411      1.0  0.59372  0.14839  0.15097  1.0000
  C   C412      1.0  0.48750  0.12074  0.22587  1.0000
  C   C413      1.0  0.63885  0.20085  0.09505  1.0000
  C   C414      1.0  0.62501  0.20509  0.11831  1.0000
  C   C415      1.0  0.57532  0.15221  0.16757  1.0000
  H   H414      1.0  0.51072  0.09066  0.05235  1.0000
  N   N33       1.0  0.50566  0.23591  0.12232  1.0000
  C   C416      1.0  0.66244  0.20532  0.09366  1.0000
  H   H415      1.0  0.59105  0.13981  0.13389  1.0000
  C   C417      1.0  0.51511  0.22887  0.03582  1.0000
  C   C418      1.0  0.50463  0.16301  0.00928  1.0000
  H   H416      1.0  0.67320  0.20179  0.07601  1.0000
  C   C419      1.0  0.51131  0.10422  0.99515  1.0000
  H   H417      1.0  0.49915  0.20634  0.11282  1.0000
  S   S143      1.0  0.52599  0.18343  0.07903  1.0000
  H   H418      1.0  0.63016  0.15334  0.14298  1.0000
  H   H419      1.0  0.60054  0.17334  0.23826  1.0000
  H   H420      1.0  0.56482  0.16720  0.20097  1.0000
  S   S144      1.0  0.52104  0.13704  0.04423  1.0000
  C   C420      1.0  0.61888  0.16730  0.17785  1.0000
  H   H421      1.0  0.52027  0.17564  0.00811  1.0000
  C   C421      1.0  0.60467  0.18392  0.21548  1.0000
  H   H422      1.0  0.55813  0.14634  0.16390  1.0000
  C   C422      1.0  0.57923  0.16400  0.18865  1.0000
  H   H423      1.0  0.52480  0.21536  0.12651  1.0000
  N   N34       1.0  0.60089  0.17163  0.19323  1.0000
  H   H424      1.0  0.49083  0.13698  0.09821  1.0000
  H   H425      1.0  0.62296  0.19478  0.20985  1.0000
  C   C423      1.0  0.51097  0.14795  0.18077  1.0000
  C   C424      1.0  0.50203  0.14146  0.21205  1.0000
  H   H426      1.0  0.69027  0.21734  0.11430  1.0000
  H   H427      1.0  0.51411  0.21592  0.05324  1.0000
  H   H428      1.0  0.52777  0.11197  0.99968  1.0000
  C   C425      1.0  0.48136  0.10653  0.20843  1.0000
  C   C426      1.0  0.63466  0.21400  0.13977  1.0000
  C   C427      1.0  0.50542  0.13363  0.16332  1.0000
  H   H429      1.0  0.77955  0.22427  0.05008  1.0000
  H   H430      1.0  0.49666  0.20548  0.15200  1.0000
  N   N35       1.0  0.49549  0.08662  0.01545  1.0000
  H   H431      1.0  0.62380  0.21725  0.15766  1.0000
  H   H432      1.0  0.51151  0.06806  0.03856  1.0000
  C   C428      1.0  0.67213  0.21422  0.11520  1.0000
  C   C429      1.0  0.65814  0.21832  0.13851  1.0000
  H   H433      1.0  0.48614  0.10192  0.16360  1.0000
  C   C430      1.0  0.48866  0.16680  0.99330  1.0000
  S   S145      1.0  0.66934  0.22735  0.16739  1.0000
  C   C431      1.0  0.78717  0.22865  0.06816  1.0000
  H   H434      1.0  0.67899  0.22632  0.02070  1.0000
  H   H435      1.0  0.82088  0.22959  0.04662  1.0000
  C   C432      1.0  0.81047  0.23174  0.06616  1.0000
  C   C433      1.0  0.77396  0.23188  0.09298  1.0000
  H   H436      1.0  0.64471  0.23476  0.00909  1.0000
  H   H437      1.0  0.49189  0.18245  0.98028  1.0000
  H   H438      1.0  0.91881  0.20904  0.98636  1.0000
  C   C434      1.0  0.89024  0.16490  0.56445  1.0000
  C   C435      1.0  0.74488  0.01267  0.67279  1.0000
  C   C436      1.0  0.80004  0.03902  0.73458  1.0000
  S   S146      1.0  0.94297  0.20639  0.60185  1.0000
  Fe  Fe74      1.0  0.88484  0.09130  0.62482  1.0000
  S   S147      1.0  0.88807  0.10498  0.66424  1.0000
  S   S148      1.0  0.91657  0.09493  0.59029  1.0000
  Fe  Fe75      1.0  0.83269  0.07834  0.64063  1.0000
  S   S149      1.0  0.83136  0.09172  0.68091  1.0000
  Fe  Fe76      1.0  0.86219  0.11870  0.65136  1.0000
  S   S150      1.0  0.87066  0.15272  0.64963  1.0000
  Fe  Fe77      1.0  0.85735  0.07692  0.68999  1.0000
  S   S151      1.0  0.85799  0.06282  0.73674  1.0000
  S   S152      1.0  0.86090  0.10691  0.61001  1.0000
  S   S153      1.0  0.85663  0.06137  0.65186  1.0000
  N   N36       1.0  0.90151  0.16343  0.53738  1.0000
  H   H439      1.0  0.72636  0.00708  0.67527  1.0000
  C   C437      1.0  0.90773  0.20780  0.92889  1.0000
  H   H440      1.0  0.91943  0.22556  0.64606  1.0000
  Fe  Fe78      1.0  0.88750  0.19357  0.78567  1.0000
  S   S154      1.0  0.90009  0.19717  0.82694  1.0000
  S   S155      1.0  0.86966  0.16135  0.78179  1.0000
  H   H441      1.0  0.93239  0.23708  0.97221  1.0000
  C   C438      1.0  0.98004  0.16834  0.78212  1.0000
  Fe  Fe79      1.0  0.93210  0.22082  0.79458  1.0000
  S   S156      1.0  0.96720  0.21999  0.79670  1.0000
  S   S157      1.0  0.87083  0.21770  0.78696  1.0000
  S   S158      1.0  0.92063  0.21520  0.75321  1.0000
  H   H442      1.0  0.75778  0.00941  0.74927  1.0000
  H   H443      1.0  0.95404  0.01484  0.78667  1.0000
  C   C439      1.0  0.50592  0.11320  0.96921  1.0000
  C   C440      1.0  0.93548  0.17400  0.72080  1.0000
  C   C441      1.0  0.80961  0.00981  0.75971  1.0000
  S   S159      1.0  0.97759  0.12047  0.72512  1.0000
  C   C442      1.0  0.90627  0.20249  0.54769  1.0000
  C   C443      1.0  0.94751  0.17780  0.82104  1.0000
  H   H444      1.0  0.95317  0.08052  0.61594  1.0000
  H   H445      1.0  0.92906  0.21481  0.50296  1.0000
  C   C444      1.0  0.91515  0.18110  0.51538  1.0000
  N   N37       1.0  0.79325  0.01701  0.75065  1.0000
  H   H446      1.0  0.93509  0.18122  0.83653  1.0000
  C   C445      1.0  0.91776  0.20087  0.52020  1.0000
  C   C446      1.0  0.87299  0.15520  0.68575  1.0000
  C   C447      1.0  0.86314  0.13758  0.71018  1.0000
  C   C448      1.0  0.86262  0.13960  0.73955  1.0000
  C   C449      1.0  0.87217  0.15925  0.74462  1.0000
  C   C450      1.0  0.88283  0.17687  0.72013  1.0000
  C   C451      1.0  0.88339  0.17481  0.69063  1.0000
  H   H447      1.0  0.85534  0.12237  0.70667  1.0000
  H   H448      1.0  0.85444  0.12594  0.75842  1.0000
  H   H449      1.0  0.89006  0.19213  0.72385  1.0000
  H   H450      1.0  0.89143  0.18845  0.67177  1.0000
  C   C452      1.0  0.88565  0.06135  0.73309  1.0000
  C   C453      1.0  0.89985  0.07014  0.75077  1.0000
  C   C454      1.0  0.92287  0.07084  0.74548  1.0000
  C   C455      1.0  0.93131  0.06205  0.72328  1.0000
  C   C456      1.0  0.91682  0.05264  0.70637  1.0000
  C   C457      1.0  0.89418  0.05272  0.71078  1.0000
  H   H451      1.0  0.89327  0.07687  0.76797  1.0000
  H   H452      1.0  0.93399  0.07804  0.75873  1.0000
  H   H453      1.0  0.92329  0.04575  0.68929  1.0000
  H   H454      1.0  0.88328  0.04601  0.69698  1.0000
  C   C458      1.0  0.77078  0.00385  0.75670  1.0000
  H   H455      1.0  0.80098  0.99719  0.59756  1.0000
  C   C459      1.0  0.75870  0.03238  0.65375  1.0000
  H   H456      1.0  0.89011  0.20079  0.94280  1.0000
  H   H457      1.0  0.91391  0.14292  0.51600  1.0000
  C   C460      1.0  0.95520  0.16435  0.54626  1.0000
  C   C461      1.0  0.93976  0.15786  0.57468  1.0000
  C   C462      1.0  0.92780  0.13656  0.58811  1.0000
  C   C463      1.0  0.93156  0.12160  0.57347  1.0000
  C   C464      1.0  0.94731  0.12804  0.54524  1.0000
  C   C465      1.0  0.95896  0.14940  0.53153  1.0000
  H   H458      1.0  0.93653  0.16919  0.58606  1.0000
  H   H459      1.0  0.91564  0.13184  0.60976  1.0000
  H   H460      1.0  0.95023  0.11653  0.53376  1.0000
  H   H461      1.0  0.95616  0.10934  0.67604  1.0000
  S   S160      1.0  0.79968  0.06462  0.62749  1.0000
  C   C466      1.0  0.92648  0.15955  0.74897  1.0000
  C   C467      1.0  0.96576  0.19401  0.79980  1.0000
  C   C468      1.0  0.91474  0.13176  0.72563  1.0000
  H   H462      1.0  0.85066  0.21419  0.63273  1.0000
  N   N38       1.0  0.91614  0.13874  0.75109  1.0000
  Fe  Fe80      1.0  0.88695  0.22372  0.82513  1.0000
  H   H463      1.0  0.93140  0.14455  0.83949  1.0000
  H   H464      1.0  0.90766  0.13141  0.79941  1.0000
  H   H465      1.0  0.96870  0.04241  0.77294  1.0000
  S   S161      1.0  0.96017  0.06348  0.71549  1.0000
  H   H466      1.0  0.92750  0.16515  0.76910  1.0000
  C   C469      1.0  0.79267  0.02741  0.66661  1.0000
  C   C470      1.0  0.97506  0.14025  0.64719  1.0000
  H   H467      1.0  0.92459  0.18001  0.49421  1.0000
  C   C471      1.0  0.78260  0.03984  0.65085  1.0000
  S   S162      1.0  0.86600  0.22682  0.86726  1.0000
  H   H468      1.0  0.94346  0.19051  0.71912  1.0000
  H   H469      1.0  0.90243  0.22520  0.97474  1.0000
  C   C472      1.0  0.78554  0.99083  0.61707  1.0000
  S   S163      1.0  0.96904  0.19094  0.52804  1.0000
  H   H470      1.0  0.85250  0.23242  0.92603  1.0000
  C   C473      1.0  0.91260  0.20442  0.90014  1.0000
  H   H471      1.0  0.83201  0.18581  0.76409  1.0000
  H   H472      1.0  0.82739  0.02029  0.75514  1.0000
  S   S164      1.0  0.95780  0.12582  0.80568  1.0000
  C   C474      1.0  0.91936  0.22290  0.96964  1.0000
  H   H473      1.0  0.92214  0.14042  0.67691  1.0000
  H   H474      1.0  0.81551  0.04336  0.71553  1.0000
  C   C475      1.0  0.96164  0.15219  0.80331  1.0000
  C   C476      1.0  0.93511  0.21375  0.88177  1.0000
  C   C477      1.0  0.97498  0.12040  0.60076  1.0000
  C   C478      1.0  0.95240  0.22628  0.89231  1.0000
  H   H475      1.0  0.89454  0.13066  0.55225  1.0000
  H   H476      1.0  0.93383  0.08226  0.64769  1.0000
  C   C479      1.0  0.95244  0.08634  0.63665  1.0000
  N   N39       1.0  0.84450  0.19559  0.67733  1.0000
  C   C480      1.0  0.83252  0.17581  0.69526  1.0000
  C   C481      1.0  0.85156  0.21197  0.68995  1.0000
  C   C482      1.0  0.82751  0.17207  0.72672  1.0000
  N   N40       1.0  0.92478  0.22017  0.93904  1.0000
  C   C483      1.0  0.83494  0.18867  0.73975  1.0000
  C   C484      1.0  0.85152  0.19911  0.64449  1.0000
  H   H477      1.0  0.82777  0.16265  0.68533  1.0000
  Fe  Fe81      1.0  0.96729  0.21361  0.55639  1.0000
  H   H478      1.0  0.81894  0.15625  0.74089  1.0000
  H   H479      1.0  0.85313  0.22187  0.73101  1.0000
  H   H480      1.0  0.97089  0.15436  0.50947  1.0000
  H   H481      1.0  0.86966  0.19966  0.63769  1.0000
  H   H482      1.0  0.84032  0.18644  0.63664  1.0000
  C   C485      1.0  0.77893  0.00757  0.68512  1.0000
  H   H483      1.0  0.78616  0.04229  0.72487  1.0000
  H   H484      1.0  0.91934  0.23420  0.69507  1.0000
  C   C486      1.0  0.94552  0.15699  0.82288  1.0000
  H   H485      1.0  0.90627  0.11528  0.72738  1.0000
  H   H486      1.0  0.96897  0.02603  0.74723  1.0000
  H   H487      1.0  0.94079  0.17819  0.67280  1.0000
  H   H488      1.0  0.93916  0.21147  0.85928  1.0000
  C   C487      1.0  0.89260  0.18442  0.57009  1.0000
  H   H489      1.0  0.88762  0.11501  0.78331  1.0000
  H   H490      1.0  0.88408  0.18549  0.59183  1.0000
  C   C488      1.0  0.90627  0.12365  0.78064  1.0000
  H   H491      1.0  0.87960  0.15100  0.58208  1.0000
  H   H492      1.0  0.89888  0.19497  0.89198  1.0000
  H   H493      1.0  0.90818  0.21772  0.55178  1.0000
  C   C489      1.0  0.92367  0.14582  0.69708  1.0000
  C   C490      1.0  0.89809  0.14290  0.53124  1.0000
  H   H494      1.0  0.81109  0.03296  0.66427  1.0000
  H   H495      1.0  0.75084  0.04200  0.64161  1.0000
  N   N41       1.0  0.96429  0.10898  0.62985  1.0000
  H   H496      1.0  0.91569  0.11248  0.78294  1.0000
  H   H497      1.0  0.80449  0.04917  0.75008  1.0000
  C   C491      1.0  0.93407  0.16706  0.69474  1.0000
  H   H498      1.0  0.96989  0.23368  0.87802  1.0000
  C   C492      1.0  0.75503  0.00015  0.68829  1.0000
  C   C493      1.0  0.84693  0.20881  0.72127  1.0000
  H   H499      1.0  0.88331  0.13853  0.52077  1.0000
  Fe  Fe82      1.0  0.97398  0.22637  0.61359  1.0000
  C   C494      1.0  0.94693  0.22930  0.92124  1.0000
  H   H500      1.0  0.97482  0.11283  0.58238  1.0000
  C   C495      1.0  0.96964  0.02704  0.77061  1.0000
  C   C496      1.0  0.96437  0.11856  0.65298  1.0000
  H   H501      1.0  0.77935  0.00392  0.61993  1.0000
  H   H502      1.0  0.51808  0.12770  0.95390  1.0000
  H   H503      1.0  0.96043  0.07811  0.65188  1.0000
  Fe  Fe83      1.0  0.93859  0.23658  0.58369  1.0000
  S   S165      1.0  0.97799  0.21804  0.66058  1.0000
  H   H504      1.0  0.78686  0.99837  0.69759  1.0000
  H   H505      1.0  0.86122  0.22757  0.67581  1.0000
  H   H506      1.0  0.97503  0.99255  0.79989  1.0000
  C   C497      1.0  0.48439  0.10381  0.96386  1.0000
  C   C498      1.0  0.80373  0.98883  0.77476  1.0000
  H   H507      1.0  0.97550  0.14787  0.66552  1.0000
  Fe  Fe84      1.0  0.89459  0.39633  0.18544  1.0000
  S   S166      1.0  0.87962  0.37848  0.23359  1.0000
  S   S167      1.0  0.89268  0.42814  0.17229  1.0000
  Fe  Fe85      1.0  0.90949  0.36181  0.16772  1.0000
  S   S168      1.0  0.89563  0.34085  0.21472  1.0000
  S   S169      1.0  0.92923  0.35489  0.12824  1.0000
  Fe  Fe86      1.0  0.86505  0.35133  0.21462  1.0000
  S   S170      1.0  0.82708  0.33241  0.23163  1.0000
  Fe  Fe87      1.0  0.91176  0.37027  0.22869  1.0000
  S   S171      1.0  0.93104  0.37224  0.26540  1.0000
  S   S172      1.0  0.87777  0.36998  0.16645  1.0000
  S   S173      1.0  0.92781  0.39038  0.18156  1.0000
  Fe  Fe88      1.0  0.87813  0.28003  0.04593  1.0000
  S   S174      1.0  0.85289  0.29476  0.03329  1.0000
  S   S175      1.0  0.87593  0.27205  0.09561  1.0000
  H   H508      1.0  0.95860  0.38924  0.30419  1.0000
  H   H509      1.0  0.53096  0.28205  0.06941  1.0000
  C   C499      1.0  0.59866  0.47129  0.09655  1.0000
  S   S176      1.0  0.90883  0.30324  0.01038  1.0000
  Fe  Fe89      1.0  0.55036  0.40046  0.11346  1.0000
  H   H510      1.0  0.81401  0.41520  0.19548  1.0000
  S   S177      1.0  0.58074  0.40039  0.13259  1.0000
  H   H511      1.0  0.90496  0.36564  0.07552  1.0000
  C   C500      1.0  0.49567  0.24816  0.00811  1.0000
  S   S178      1.0  0.81373  0.25738  0.99232  1.0000
  C   C501      1.0  0.55455  0.47560  0.03937  1.0000
  Fe  Fe90      1.0  0.56616  0.47837  0.26520  1.0000
  C   C502      1.0  0.74433  0.36834  0.03951  1.0000
  H   H512      1.0  0.96233  0.40037  0.20945  1.0000
  S   S179      1.0  0.75072  0.30846  0.10464  1.0000
  Fe  Fe91      1.0  0.71827  0.30324  0.13926  1.0000
  S   S180      1.0  0.70810  0.32832  0.15578  1.0000
  Fe  Fe92      1.0  0.68712  0.48557  0.09431  1.0000
  Fe  Fe93      1.0  0.85492  0.43653  0.04059  1.0000
  C   C503      1.0  0.82688  0.36818  0.00528  1.0000
  C   C504      1.0  0.48606  0.32987  0.07870  1.0000
  Fe  Fe94      1.0  0.80951  0.42083  0.08795  1.0000
  S   S181      1.0  0.78864  0.41748  0.05375  1.0000
  S   S182      1.0  0.79053  0.41268  0.13636  1.0000
  Fe  Fe95      1.0  0.81378  0.40415  0.03250  1.0000
  S   S183      1.0  0.56014  0.48665  0.15765  1.0000
  H   H513      1.0  0.83102  0.24137  0.14103  1.0000
  C   C505      1.0  0.97198  0.45909  0.23074  1.0000
  S   S184      1.0  0.83244  0.40473  0.06919  1.0000
  S   S185      1.0  0.83400  0.45287  0.06331  1.0000
  C   C506      1.0  0.73145  0.35134  0.15100  1.0000
  C   C507      1.0  0.72997  0.36433  0.17039  1.0000
  C   C508      1.0  0.74836  0.38302  0.16638  1.0000
  C   C509      1.0  0.76797  0.38895  0.14248  1.0000
  C   C510      1.0  0.76933  0.37610  0.12291  1.0000
  C   C511      1.0  0.75119  0.35726  0.12731  1.0000
  H   H514      1.0  0.71465  0.35983  0.18867  1.0000
  H   H515      1.0  0.74722  0.39297  0.18148  1.0000
  H   H516      1.0  0.78441  0.38057  0.10442  1.0000
  H   H517      1.0  0.75222  0.34769  0.11175  1.0000
  C   C512      1.0  0.51712  0.26295  0.99150  1.0000
  C   C513      1.0  0.82449  0.34777  0.00353  1.0000
  C   C514      1.0  0.68430  0.24188  0.02575  1.0000
  C   C515      1.0  0.64499  0.24188  0.02793  1.0000
  Fe  Fe96      1.0  0.88294  0.31632  0.99572  1.0000
  H   H518      1.0  0.83855  0.24082  0.08710  1.0000
  H   H519      1.0  0.61045  0.24271  0.03112  1.0000
  Fe  Fe97      1.0  0.49955  0.39288  0.13771  1.0000
  C   C516      1.0  0.85757  0.36298  0.06433  1.0000
  C   C517      1.0  0.60712  0.41871  0.10982  1.0000
  C   C518      1.0  0.62588  0.42458  0.12261  1.0000
  C   C519      1.0  0.64618  0.44101  0.10624  1.0000
  C   C520      1.0  0.64823  0.45116  0.07655  1.0000
  H   H520      1.0  0.76236  0.33440  0.02435  1.0000
  C   C521      1.0  0.60936  0.42832  0.07972  1.0000
  H   H521      1.0  0.62468  0.41682  0.14543  1.0000
  H   H522      1.0  0.75412  0.42369  0.10820  1.0000
  H   H523      1.0  0.82151  0.36014  0.07158  1.0000
  C   C522      1.0  0.84896  0.38333  0.99861  1.0000
  H   H524      1.0  0.90200  0.37982  0.04052  1.0000
  C   C523      1.0  0.57529  0.41545  0.25075  1.0000
  H   H525      1.0  0.85098  0.39908  0.99995  1.0000
  H   H526      1.0  0.73920  0.33009  0.00544  1.0000
  H   H527      1.0  0.75931  0.38011  0.02317  1.0000
  C   C524      1.0  0.50308  0.27568  0.10843  1.0000
  H   H528      1.0  0.69611  0.24168  0.04093  1.0000
  C   C525      1.0  0.53757  0.26095  0.99761  1.0000
  C   C526      1.0  0.92965  0.43352  0.22629  1.0000
  C   C527      1.0  0.71321  0.35921  0.08399  1.0000
  H   H529      1.0  0.71100  0.45016  0.20861  1.0000
  C   C528      1.0  0.86488  0.33131  0.07585  1.0000
  S   S186      1.0  0.89291  0.44523  0.03524  1.0000
  H   H530      1.0  0.77693  0.44756  0.10460  1.0000
  C   C529      1.0  0.91481  0.33121  0.12052  1.0000
  C   C530      1.0  0.92391  0.32688  0.09380  1.0000
  C   C531      1.0  0.91238  0.30838  0.08665  1.0000
  C   C532      1.0  0.89174  0.29404  0.10622  1.0000
  C   C533      1.0  0.88292  0.29808  0.13340  1.0000
  C   C534      1.0  0.89436  0.31675  0.14043  1.0000
  H   H531      1.0  0.93984  0.33792  0.07847  1.0000
  H   H532      1.0  0.91965  0.30513  0.06610  1.0000
  H   H533      1.0  0.86703  0.28700  0.14874  1.0000
  H   H534      1.0  0.88740  0.31993  0.16125  1.0000
  C   C535      1.0  0.89538  0.43462  0.13346  1.0000
  C   C536      1.0  0.90511  0.42413  0.11501  1.0000
  C   C537      1.0  0.90557  0.42826  0.08424  1.0000
  C   C538      1.0  0.89585  0.44252  0.07220  1.0000
  C   C539      1.0  0.88624  0.45305  0.09068  1.0000
  C   C540      1.0  0.88633  0.44934  0.12120  1.0000
  H   H535      1.0  0.91216  0.41275  0.12442  1.0000
  C   C541      1.0  0.86631  0.35750  0.99012  1.0000
  H   H536      1.0  0.63052  0.46548  0.19057  1.0000
  H   H537      1.0  0.87872  0.45738  0.13549  1.0000
  C   C542      1.0  0.81620  0.31800  0.20691  1.0000
  C   C543      1.0  0.83126  0.31487  0.18377  1.0000
  C   C544      1.0  0.82243  0.30349  0.16397  1.0000
  C   C545      1.0  0.79856  0.29586  0.16646  1.0000
  C   C546      1.0  0.61293  0.46600  0.26370  1.0000
  C   C547      1.0  0.79227  0.30990  0.20997  1.0000
  H   H538      1.0  0.84970  0.32092  0.18152  1.0000
  H   H539      1.0  0.83421  0.30068  0.14672  1.0000
  H   H540      1.0  0.78055  0.31218  0.22800  1.0000
  C   C548      1.0  0.75467  0.27026  0.99956  1.0000
  N   N42       1.0  0.80723  0.24122  0.11340  1.0000
  H   H541      1.0  0.50510  0.41922  0.17988  1.0000
  H   H542      1.0  0.61162  0.41833  0.21076  1.0000
  H   H543      1.0  0.67909  0.25806  0.07318  1.0000
  S   S187      1.0  0.56214  0.24217  0.02847  1.0000
  H   H544      1.0  0.77160  0.28865  0.05772  1.0000
  C   C549      1.0  0.95650  0.34917  0.19049  1.0000
  C   C550      1.0  0.72097  0.44759  0.18904  1.0000
  H   H545      1.0  0.59166  0.42303  0.25559  1.0000
  C   C551      1.0  0.86864  0.37805  0.99073  1.0000
  C   C552      1.0  0.49554  0.47036  0.16504  1.0000
  S   S188      1.0  0.73220  0.25728  0.11497  1.0000
  H   H546      1.0  0.70405  0.36340  0.10254  1.0000
  C   C553      1.0  0.59631  0.41522  0.20105  1.0000
  C   C554      1.0  0.66409  0.25476  0.06383  1.0000
  N   N43       1.0  0.87282  0.35254  0.06515  1.0000
  H   H547      1.0  0.80697  0.32156  0.09081  1.0000
  C   C555      1.0  0.73225  0.37427  0.06254  1.0000
  Fe  Fe98      1.0  0.51672  0.45631  0.26468  1.0000
  C   C556      1.0  0.64399  0.45368  0.22668  1.0000
  C   C557      1.0  0.77313  0.26367  0.98989  1.0000
  N   N44       1.0  0.93503  0.43184  0.25362  1.0000
  H   H548      1.0  0.66018  0.44587  0.11680  1.0000
  C   C558      1.0  0.79129  0.26650  0.00421  1.0000
  C   C559      1.0  0.91809  0.41690  0.28054  1.0000
  S   S189      1.0  0.55044  0.45598  0.23959  1.0000
  C   C560      1.0  0.48787  0.26060  0.13398  1.0000
  C   C561      1.0  0.57326  0.47003  0.02755  1.0000
  C   C562      1.0  0.82033  0.23816  0.08903  1.0000
  S   S190      1.0  0.72138  0.27706  0.17248  1.0000
  S   S191      1.0  0.80257  0.47303  0.00577  1.0000
  S   S192      1.0  0.78809  0.28241  0.14048  1.0000
  C   C563      1.0  0.55407  0.40138  0.21735  1.0000
  C   C564      1.0  0.55470  0.41125  0.27231  1.0000
  C   C565      1.0  0.53317  0.39681  0.23849  1.0000
  C   C566      1.0  0.53351  0.40194  0.26603  1.0000
  Fe  Fe99      1.0  0.70090  0.25632  0.14775  1.0000
  H   H549      1.0  0.55520  0.41583  0.29331  1.0000
  C   C567      1.0  0.77202  0.28183  0.03866  1.0000
  Fe  Fe100     1.0  0.55106  0.48417  0.20708  1.0000
  H   H550      1.0  0.59898  0.42920  0.18290  1.0000
  S   S193      1.0  0.83816  0.43488  0.00211  1.0000
  H   H551      1.0  0.69193  0.32669  0.09920  1.0000
  H   H552      1.0  0.74071  0.26805  0.98839  1.0000
  H   H553      1.0  0.62611  0.45400  0.29997  1.0000
  S   S194      1.0  0.51600  0.48286  0.23001  1.0000
  H   H554      1.0  0.53387  0.47499  0.11060  1.0000
  C   C568      1.0  0.53658  0.24389  0.01979  1.0000
  H   H555      1.0  0.71378  0.31694  0.05784  1.0000
  H   H556      1.0  0.84234  0.32659  0.99505  1.0000
  H   H557      1.0  0.80744  0.33597  0.00874  1.0000
  H   H558      1.0  0.96005  0.44332  0.27782  1.0000
  S   S195      1.0  0.52692  0.45667  0.05560  1.0000
  C   C569      1.0  0.75395  0.27910  0.02419  1.0000
  H   H559      1.0  0.55370  0.39777  0.19566  1.0000
  C   C570      1.0  0.82544  0.33032  0.08396  1.0000
  H   H560      1.0  0.83490  0.30302  0.09357  1.0000
  C   C571      1.0  0.51943  0.27062  0.08975  1.0000
  H   H561      1.0  0.50695  0.48422  0.16929  1.0000
  H   H562      1.0  0.83930  0.40918  0.20205  1.0000
  C   C572      1.0  0.95571  0.44463  0.25618  1.0000
  H   H563      1.0  0.60309  0.47634  0.22320  1.0000
  S   S196      1.0  0.67255  0.47345  0.05793  1.0000
  H   H564      1.0  0.49012  0.44486  0.11061  1.0000
  N   N45       1.0  0.82143  0.39218  0.17499  1.0000
  C   C573      1.0  0.80059  0.37682  0.18969  1.0000
  C   C574      1.0  0.83572  0.38948  0.15147  1.0000
  C   C575      1.0  0.79325  0.35847  0.18019  1.0000
  C   C576      1.0  0.82910  0.37116  0.14175  1.0000
  C   C577      1.0  0.80763  0.35567  0.15604  1.0000
  C   C578      1.0  0.82904  0.41125  0.18533  1.0000
  H   H565      1.0  0.78935  0.37884  0.20853  1.0000
  H   H566      1.0  0.85245  0.40146  0.14027  1.0000
  H   H567      1.0  0.77657  0.34645  0.19158  1.0000
  H   H568      1.0  0.84074  0.36893  0.12363  1.0000
  H   H569      1.0  0.80225  0.34137  0.14878  1.0000
  H   H570      1.0  0.84001  0.42480  0.16612  1.0000
  C   C579      1.0  0.89784  0.36405  0.05550  1.0000
  S   S197      1.0  0.54862  0.40668  0.06497  1.0000
  N   N46       1.0  0.57474  0.41037  0.22380  1.0000
  H   H571      1.0  0.87694  0.32307  0.07649  1.0000
  N   N47       1.0  0.73752  0.34797  0.03786  1.0000
  H   H572      1.0  0.60317  0.45972  0.11179  1.0000
  H   H573      1.0  0.90656  0.42435  0.29115  1.0000
  H   H574      1.0  0.86387  0.37984  0.05578  1.0000
  H   H575      1.0  0.75248  0.44842  0.08977  1.0000
  C   C580      1.0  0.83365  0.35200  0.07341  1.0000
  C   C581      1.0  0.84112  0.31990  0.08540  1.0000
  C   C582      1.0  0.70641  0.33852  0.08212  1.0000
  Fe  Fe101     1.0  0.72785  0.28467  0.08652  1.0000
  S   S198      1.0  0.72986  0.28565  0.03787  1.0000
  H   H576      1.0  0.75092  0.47501  0.18285  1.0000
  H   H577      1.0  0.80446  0.27765  0.04001  1.0000
  C   C583      1.0  0.49679  0.42253  0.22482  1.0000
  S   S199      1.0  0.69511  0.28221  0.11768  1.0000
  C   C584      1.0  0.78347  0.29917  0.18944  1.0000
  H   H578      1.0  0.59553  0.40185  0.19083  1.0000
  C   C585      1.0  0.63010  0.44434  0.06289  1.0000
  C   C586      1.0  0.95760  0.39302  0.25751  1.0000
  H   H579      1.0  0.59512  0.42361  0.06948  1.0000
  S   S200      1.0  0.51889  0.37142  0.12943  1.0000
  S   S201      1.0  0.53140  0.42147  0.12588  1.0000
  H   H580      1.0  0.63122  0.48659  0.04414  1.0000
  C   C587      1.0  0.79080  0.27576  0.02845  1.0000
  Fe  Fe102     1.0  0.75240  0.28083  0.13631  1.0000
  H   H581      1.0  0.97948  0.47147  0.18270  1.0000
  C   C588      1.0  0.51931  0.48102  0.11303  1.0000
  H   H582      1.0  0.64478  0.26532  0.09681  1.0000
  C   C589      1.0  0.61404  0.46906  0.23287  1.0000
  Fe  Fe103     1.0  0.52685  0.42533  0.07889  1.0000
  H   H583      1.0  0.69349  0.42029  0.18804  1.0000
  S   S202      1.0  0.80245  0.37434  0.01833  1.0000
  C   C590      1.0  0.48617  0.44837  0.13228  1.0000
  Fe  Fe104     1.0  0.51528  0.37912  0.08216  1.0000
  Fe  Fe105     1.0  0.84750  0.27377  0.00223  1.0000
  H   H584      1.0  0.71575  0.41561  0.14185  1.0000
  C   C591      1.0  0.94550  0.44779  0.20038  1.0000
  H   H585      1.0  0.90671  0.35568  0.04222  1.0000
  H   H586      1.0  0.91275  0.41992  0.07005  1.0000
  H   H587      1.0  0.90740  0.40284  0.27474  1.0000
  H   H588      1.0  0.76501  0.29317  0.19176  1.0000
  C   C592      1.0  0.71890  0.33312  0.05886  1.0000
  C   C593      1.0  0.62551  0.24621  0.04041  1.0000
  H   H589      1.0  0.63175  0.45191  0.03973  1.0000
  S   S203      1.0  0.70484  0.46844  0.12149  1.0000
  H   H590      1.0  0.61023  0.25784  0.07539  1.0000
  S   S204      1.0  0.50462  0.35470  0.05667  1.0000
  H   H591      1.0  0.51679  0.38966  0.23334  1.0000
  H   H592      1.0  0.80533  0.24569  0.15800  1.0000
  H   H593      1.0  0.57091  0.45379  0.02879  1.0000
  C   C594      1.0  0.75785  0.44031  0.10853  1.0000
  H   H594      1.0  0.51120  0.43692  0.22020  1.0000
  C   C595      1.0  0.75085  0.34163  0.01455  1.0000
  N   N48       1.0  0.74571  0.44202  0.13736  1.0000
  C   C596      1.0  0.49336  0.41241  0.20182  1.0000
  H   H595      1.0  0.51738  0.39916  0.28217  1.0000
  H   H596      1.0  0.91307  0.42373  0.22430  1.0000
  C   C597      1.0  0.72379  0.42828  0.15131  1.0000
  S   S205      1.0  0.66381  0.44633  0.20363  1.0000
  C   C598      1.0  0.64477  0.25899  0.07718  1.0000
  C   C599      1.0  0.52054  0.25057  0.09715  1.0000
  H   H597      1.0  0.55414  0.27267  0.98523  1.0000
  Fe  Fe106     1.0  0.81495  0.44844  0.02730  1.0000
  S   S206      1.0  0.59393  0.47396  0.28692  1.0000
  C   C600      1.0  0.75560  0.45831  0.14891  1.0000
  S   S207      1.0  0.49334  0.39839  0.09164  1.0000
  C   C601      1.0  0.62703  0.45645  0.27609  1.0000
  N   N49       1.0  0.66389  0.24608  0.03975  1.0000
  C   C602      1.0  0.84424  0.34240  0.99608  1.0000
  C   C603      1.0  0.71115  0.43078  0.17745  1.0000
  S   S208      1.0  0.86998  0.25665  0.01831  1.0000
  S   S209      1.0  0.53228  0.47641  0.29347  1.0000
  H   H598      1.0  0.58271  0.47299  0.10876  1.0000
  H   H599      1.0  0.94116  0.44883  0.17871  1.0000
  H   H600      1.0  0.65320  0.44265  0.26733  1.0000
  C   C604      1.0  0.96685  0.46055  0.20265  1.0000
  C   C605      1.0  0.64229  0.45000  0.25767  1.0000
  H   H601      1.0  0.73784  0.39036  0.06401  1.0000
  H   H602      1.0  0.97683  0.36854  0.14663  1.0000
  H   H603      1.0  0.87859  0.46397  0.08151  1.0000
  N   N50       1.0  0.49973  0.46636  0.13732  1.0000
  C   C606      1.0  0.59488  0.48561  0.01301  1.0000
  Fe  Fe107     1.0  0.68189  0.47206  0.16131  1.0000
  C   C607      1.0  0.62976  0.46311  0.21432  1.0000
  H   H604      1.0  0.82746  0.26599  0.12832  1.0000
  H   H605      1.0  0.53323  0.24674  0.08244  1.0000
  H   H606      1.0  0.59459  0.46507  0.07710  1.0000
  H   H607      1.0  0.92684  0.41112  0.29720  1.0000
  H   H608      1.0  0.50192  0.29113  0.10281  1.0000
  C   C608      1.0  0.62541  0.25474  0.06528  1.0000
  C   C609      1.0  0.96741  0.39809  0.28117  1.0000
  H   H609      1.0  0.94240  0.34065  0.18199  1.0000
  C   C610      1.0  0.81823  0.24884  0.13639  1.0000
  C   C611      1.0  0.96925  0.40440  0.22789  1.0000
  H   H610      1.0  0.69415  0.25425  0.00468  1.0000
  C   C612      1.0  0.74335  0.46146  0.17472  1.0000
  H   H611      1.0  0.77399  0.24100  0.13454  1.0000
  H   H612      1.0  0.77282  0.46941  0.13762  1.0000
  H   H613      1.0  0.93977  0.33298  0.23710  1.0000
  C   C613      1.0  0.95515  0.34469  0.22133  1.0000
  C   C614      1.0  0.48926  0.24059  0.14047  1.0000
  H   H614      1.0  0.60915  0.48132  0.00302  1.0000
  C   C615      1.0  0.97595  0.36482  0.17061  1.0000
  H   H615      1.0  0.51418  0.48306  0.09140  1.0000
  H   H616      1.0  0.76189  0.35517  0.99535  1.0000
  S   S210      1.0  0.66239  0.48689  0.13434  1.0000
  H   H617      1.0  0.88827  0.47588  0.98491  1.0000
  C   C616      1.0  0.78433  0.23825  0.11551  1.0000
  S   S211      1.0  0.48614  0.42657  0.28238  1.0000
  H   H618      1.0  0.88570  0.38978  0.98599  1.0000
  H   H619      1.0  0.97206  0.35244  0.25595  1.0000
  H   H620      1.0  0.76095  0.48251  0.02196  1.0000
  S   S212      1.0  0.89117  0.35084  0.98362  1.0000
  H   H621      1.0  0.48498  0.31656  0.04048  1.0000
  C   C617      1.0  0.97350  0.35579  0.23185  1.0000
  C   C618      1.0  0.48146  0.41418  0.25340  1.0000
  C   C619      1.0  0.79305  0.48430  0.03389  1.0000
  H   H622      1.0  0.48322  0.33849  0.12091  1.0000
  C   C620      1.0  0.77153  0.48684  0.03736  1.0000
  Fe  Fe108     1.0  0.89849  0.28134  0.98143  1.0000
  H   H623      1.0  0.97727  0.30363  0.65130  1.0000
  C   C621      1.0  0.97486  0.26227  0.73422  1.0000
  C   C622      1.0  0.91248  0.24224  0.67906  1.0000
  C   C623      1.0  0.85885  0.27725  0.87743  1.0000
  S   S213      1.0  0.96734  0.25601  0.59947  1.0000
  H   H624      1.0  0.88994  0.28096  0.66907  1.0000
  N   N51       1.0  0.86605  0.29515  0.88684  1.0000
  C   C624      1.0  0.82794  0.28622  0.91859  1.0000
  N   N52       1.0  0.97789  0.33852  0.52403  1.0000
  C   C625      1.0  0.91266  0.23744  0.65113  1.0000
  S   S214      1.0  0.90514  0.26500  0.71966  1.0000
  C   C626      1.0  0.85083  0.29989  0.90681  1.0000
  C   C627      1.0  0.89611  0.26868  0.66417  1.0000
  H   H625      1.0  0.96183  0.28596  0.53770  1.0000
  H   H626      1.0  0.77332  0.25636  0.97132  1.0000
  H   H627      1.0  0.80317  0.25659  0.91961  1.0000
  C   C628      1.0  0.83607  0.26324  0.88871  1.0000
  C   C629      1.0  0.96288  0.30107  0.54163  1.0000
  H   H628      1.0  0.83077  0.24871  0.88193  1.0000
  C   C630      1.0  0.88351  0.25146  0.93508  1.0000
  H   H629      1.0  0.81620  0.28959  0.93543  1.0000
  H   H630      1.0  0.85651  0.31396  0.91459  1.0000
  H   H631      1.0  0.90014  0.30175  0.89231  1.0000
  C   C631      1.0  0.82063  0.26767  0.90972  1.0000
  C   C632      1.0  0.89062  0.30830  0.87745  1.0000
  C   C633      1.0  0.96592  0.27360  0.71459  1.0000
  C   C634      1.0  0.90432  0.25794  0.68556  1.0000
  H   H632      1.0  0.96170  0.45971  0.58775  1.0000
  C   C635      1.0  0.96354  0.28838  0.66355  1.0000
  C   C636      1.0  0.91885  0.26094  0.89626  1.0000
  H   H633      1.0  0.91514  0.24969  0.85676  1.0000
  H   H634      1.0  0.88938  0.27185  0.62000  1.0000
  H   H635      1.0  0.87092  0.27335  0.86181  1.0000
  C   C637      1.0  0.90627  0.25009  0.87857  1.0000
  S   S215      1.0  0.92316  0.27449  0.94714  1.0000
  S   S216      1.0  0.90545  0.24253  0.59462  1.0000
  C   C638      1.0  0.89573  0.26352  0.63650  1.0000
  C   C639      1.0  0.95165  0.30246  0.56941  1.0000
  H   H636      1.0  0.93738  0.26886  0.88802  1.0000
  C   C640      1.0  0.90746  0.26160  0.92454  1.0000
  H   H637      1.0  0.89835  0.30898  0.85373  1.0000
  Fe  Fe109     1.0  0.90511  0.23989  0.75758  1.0000
  H   H638      1.0  0.95351  0.28021  0.72394  1.0000
  S   S217      1.0  0.87549  0.29673  0.96335  1.0000
  C   C641      1.0  0.96732  0.34006  0.55144  1.0000
  C   C642      1.0  0.88235  0.23975  0.88929  1.0000
  H   H639      1.0  0.87456  0.25191  0.95686  1.0000
  N   N53       1.0  0.97253  0.27610  0.68411  1.0000
  H   H640      1.0  0.96949  0.26008  0.75839  1.0000
  H   H641      1.0  0.89317  0.32459  0.87898  1.0000
  H   H642      1.0  0.94135  0.28835  0.58699  1.0000
  C   C643      1.0  0.90418  0.24799  0.62991  1.0000
  H   H643      1.0  0.94566  0.32339  0.59618  1.0000
  H   H644      1.0  0.94861  0.29157  0.67583  1.0000
  S   S218      1.0  0.96013  0.24238  0.53710  1.0000
  C   C644      1.0  0.95399  0.32208  0.57450  1.0000
  H   H645      1.0  0.84069  0.47765  0.95759  1.0000
  H   H646      1.0  0.96921  0.35525  0.55568  1.0000
  H   H647      1.0  0.95737  0.27971  0.64709  1.0000
  C   C645      1.0  0.97616  0.31935  0.51915  1.0000
  S   S219      1.0  0.92014  0.24802  0.79585  1.0000
  H   H648      1.0  0.86781  0.47384  0.94755  1.0000
  H   H649      1.0  0.51791  0.27628  0.97458  1.0000
  H   H650      1.0  0.96042  0.23925  0.92916  1.0000
  C   C646      1.0  0.85979  0.48549  0.95241  1.0000
  C   C647      1.0  0.87103  0.24036  0.91764  1.0000
  C   C648      1.0  0.97514  0.46892  0.56755  1.0000
  C   C649      1.0  0.55767  0.49668  0.03727  1.0000
  S   S220      1.0  0.55766  0.60506  0.36770  1.0000
  S   S221      1.0  0.59985  0.58963  0.31481  1.0000
  Fe  Fe110     1.0  0.54719  0.62867  0.33977  1.0000
  S   S222      1.0  0.51068  0.62357  0.33646  1.0000
  S   S223      1.0  0.62473  0.52610  0.99182  1.0000
  H   H651      1.0  0.71902  0.55975  0.09168  1.0000
  H   H652      1.0  0.52552  0.49672  0.11740  1.0000
  H   H653      1.0  0.57677  0.50607  0.09421  1.0000
  H   H654      1.0  0.48814  0.51694  0.32175  1.0000
  H   H655      1.0  0.67102  0.54249  0.06347  1.0000
  H   H656      1.0  0.59341  0.56340  0.18773  1.0000
  S   S224      1.0  0.60142  0.57290  0.00056  1.0000
  C   C650      1.0  0.50924  0.56716  0.34848  1.0000
  S   S225      1.0  0.67877  0.54344  0.14234  1.0000
  S   S226      1.0  0.57042  0.50686  0.22999  1.0000
  Fe  Fe111     1.0  0.66327  0.59470  0.01154  1.0000
  H   H657      1.0  0.57072  0.69108  0.39716  1.0000
  S   S227      1.0  0.70728  0.50237  0.16265  1.0000
  C   C651      1.0  0.61621  0.72737  0.25602  1.0000
  H   H658      1.0  0.61189  0.56114  0.15543  1.0000
  H   H659      1.0  0.56027  0.72568  0.30938  1.0000
  C   C652      1.0  0.79865  0.49781  0.07748  1.0000
  C   C653      1.0  0.57601  0.68387  0.23904  1.0000
  H   H660      1.0  0.63714  0.51316  0.25221  1.0000
  H   H661      1.0  0.64194  0.51264  0.19827  1.0000
  Fe  Fe112     1.0  0.58856  0.61490  0.32877  1.0000
  C   C654      1.0  0.48349  0.54592  0.32465  1.0000
  C   C655      1.0  0.48516  0.69749  0.39278  1.0000
  C   C656      1.0  0.52009  0.67642  0.29214  1.0000
  Fe  Fe113     1.0  0.61245  0.58269  0.04046  1.0000
  H   H662      1.0  0.66494  0.51911  0.02889  1.0000
  C   C657      1.0  0.63339  0.49670  0.05930  1.0000
  C   C658      1.0  0.62763  0.53686  0.18759  1.0000
  C   C659      1.0  0.50494  0.65591  0.39217  1.0000
  H   H663      1.0  0.58168  0.52829  0.02242  1.0000
  H   H664      1.0  0.74642  0.49584  0.06448  1.0000
  H   H665      1.0  0.56660  0.55981  0.14663  1.0000
  N   N54       1.0  0.61875  0.55067  0.19802  1.0000
  H   H666      1.0  0.61324  0.66735  0.39547  1.0000
  C   C660      1.0  0.57478  0.51772  0.10589  1.0000
  H   H667      1.0  0.55610  0.52318  0.17608  1.0000
  C   C661      1.0  0.56641  0.51231  0.13722  1.0000
  H   H668      1.0  0.65700  0.57222  0.12232  1.0000
  C   C662      1.0  0.56200  0.57981  0.29117  1.0000
  C   C663      1.0  0.57599  0.72627  0.29462  1.0000
  H   H669      1.0  0.55674  0.70907  0.38429  1.0000
  H   H670      1.0  0.55739  0.70310  0.42296  1.0000
  C   C664      1.0  0.55289  0.70655  0.24365  1.0000
  H   H671      1.0  0.50728  0.66436  0.31089  1.0000
  H   H672      1.0  0.48351  0.57612  0.33022  1.0000
  N   N55       1.0  0.51183  0.53412  0.34350  1.0000
  H   H673      1.0  0.54326  0.50118  0.04596  1.0000
  C   C665      1.0  0.59802  0.50666  0.01131  1.0000
  C   C666      1.0  0.68722  0.56400  0.10996  1.0000
  C   C667      1.0  0.49670  0.60105  0.39591  1.0000
  C   C668      1.0  0.50328  0.64969  0.44527  1.0000
  H   H674      1.0  0.60991  0.56267  0.23565  1.0000
  H   H675      1.0  0.80917  0.50204  0.09296  1.0000
  C   C669      1.0  0.77686  0.49975  0.08155  1.0000
  H   H676      1.0  0.51467  0.60379  0.39500  1.0000
  H   H677      1.0  0.50224  0.69842  0.29328  1.0000
  S   S228      1.0  0.63692  0.56512  0.04209  1.0000
  C   C670      1.0  0.49006  0.60933  0.37067  1.0000
  C   C671      1.0  0.57980  0.57375  0.29948  1.0000
  C   C672      1.0  0.58143  0.55465  0.29600  1.0000
  C   C673      1.0  0.56530  0.54161  0.28419  1.0000
  H   H678      1.0  0.59492  0.54980  0.30302  1.0000
  H   H679      1.0  0.56632  0.52664  0.28225  1.0000
  C   C674      1.0  0.54593  0.56683  0.27925  1.0000
  H   H680      1.0  0.82330  0.48833  0.05114  1.0000
  C   C675      1.0  0.48287  0.69561  0.36399  1.0000
  H   H681      1.0  0.64239  0.53291  0.11270  1.0000
  C   C676      1.0  0.87825  0.50928  0.02569  1.0000
  H   H682      1.0  0.48523  0.58305  0.44233  1.0000
  C   C677      1.0  0.88744  0.49498  0.01603  1.0000
  H   H683      1.0  0.58391  0.67718  0.25608  1.0000
  C   C678      1.0  0.51936  0.55188  0.35316  1.0000
  H   H684      1.0  0.55679  0.65033  0.47354  1.0000
  C   C679      1.0  0.67248  0.57514  0.10510  1.0000
  Fe  Fe114     1.0  0.68974  0.51710  0.13208  1.0000
  H   H685      1.0  0.57082  0.67268  0.22518  1.0000
  C   C680      1.0  0.52517  0.67317  0.38661  1.0000
  N   N56       1.0  0.53414  0.67863  0.40987  1.0000
  H   H686      1.0  0.62318  0.58119  0.17384  1.0000
  C   C681      1.0  0.65267  0.51513  0.05055  1.0000
  C   C682      1.0  0.52343  0.66717  0.43897  1.0000
  C   C683      1.0  0.55588  0.69633  0.40326  1.0000
  H   H687      1.0  0.49743  0.70360  0.34473  1.0000
  H   H688      1.0  0.58981  0.69841  0.22438  1.0000
  C   C684      1.0  0.49410  0.64403  0.42166  1.0000
  C   C685      1.0  0.69640  0.59229  0.05428  1.0000
  H   H689      1.0  0.60395  0.62233  0.47834  1.0000
  C   C686      1.0  0.56893  0.54806  0.13532  1.0000
  Fe  Fe115     1.0  0.57812  0.63222  0.38238  1.0000
  S   S229      1.0  0.57453  0.63071  0.43127  1.0000
  C   C687      1.0  0.60402  0.67147  0.41394  1.0000
  H   H690      1.0  0.56053  0.59443  0.29398  1.0000
  S   S230      1.0  0.56530  0.65524  0.35742  1.0000
  C   C688      1.0  0.58440  0.65636  0.43464  1.0000
  S   S231      1.0  0.57646  0.63642  0.29912  1.0000
  N   N57       1.0  0.55583  0.68802  0.25393  1.0000
  Fe  Fe116     1.0  0.53510  0.50313  0.25606  1.0000
  H   H691      1.0  0.62747  0.70343  0.40193  1.0000
  H   H692      1.0  0.97432  0.48749  0.46902  1.0000
  H   H693      1.0  0.62144  0.53860  0.27078  1.0000
  C   C689      1.0  0.71200  0.58224  0.05985  1.0000
  C   C690      1.0  0.54747  0.54768  0.27594  1.0000
  C   C691      1.0  0.80659  0.48991  0.05389  1.0000
  C   C692      1.0  0.49393  0.53090  0.32975  1.0000
  S   S232      1.0  0.58770  0.57967  0.08350  1.0000
  H   H694      1.0  0.57760  0.69856  0.32257  1.0000
  H   H695      1.0  0.58749  0.54251  0.06526  1.0000
  C   C693      1.0  0.65610  0.52814  0.06999  1.0000
  C   C694      1.0  0.76328  0.49431  0.06146  1.0000
  C   C695      1.0  0.62122  0.50400  0.10598  1.0000
  C   C696      1.0  0.63455  0.52332  0.20682  1.0000
  H   H696      1.0  0.85536  0.52646  0.01881  1.0000
  S   S233      1.0  0.61863  0.69265  0.29076  1.0000
  C   C697      1.0  0.58084  0.53837  0.08941  1.0000
  S   S234      1.0  0.63975  0.61313  0.01367  1.0000
  S   S235      1.0  0.61046  0.64001  0.34627  1.0000
  C   C698      1.0  0.61206  0.69185  0.41760  1.0000
  H   H697      1.0  0.51287  0.50659  0.37078  1.0000
  H   H698      1.0  0.53197  0.72570  0.25025  1.0000
  H   H699      1.0  0.51548  0.58138  0.35553  1.0000
  S   S236      1.0  0.69910  0.60618  0.01775  1.0000
  S   S237      1.0  0.52600  0.53078  0.26376  1.0000
  C   C699      1.0  0.60026  0.69709  0.44169  1.0000
  H   H700      1.0  0.53209  0.57151  0.27300  1.0000
  H   H701      1.0  0.63186  0.72791  0.24110  1.0000
  H   H702      1.0  0.53352  0.68237  0.36362  1.0000
  C   C700      1.0  0.57243  0.66175  0.45825  1.0000
  Fe  Fe117     1.0  0.59576  0.66085  0.31973  1.0000
  Fe  Fe118     1.0  0.72827  0.50046  0.11977  1.0000
  Fe  Fe119     1.0  0.62821  0.55766  0.00008  1.0000
  H   H703      1.0  0.69867  0.64865  0.99881  1.0000
  C   C701      1.0  0.56313  0.52739  0.15195  1.0000
  C   C702      1.0  0.52241  0.51812  0.34885  1.0000
  S   S238      1.0  0.76635  0.50766  0.11296  1.0000
  C   C703      1.0  0.64008  0.52274  0.09768  1.0000
  H   H704      1.0  0.72704  0.58465  0.04218  1.0000
  S   S239      1.0  0.51092  0.71367  0.39764  1.0000
  S   S240      1.0  0.60973  0.72250  0.44635  1.0000
  H   H705      1.0  0.53367  0.55459  0.36384  1.0000
  H   H706      1.0  0.49769  0.65173  0.37378  1.0000
  H   H707      1.0  0.54173  0.65810  0.28547  1.0000
  C   C704      1.0  0.49124  0.56418  0.33413  1.0000
  C   C705      1.0  0.67690  0.58907  0.07711  1.0000
  C   C706      1.0  0.61148  0.56480  0.17775  1.0000
  H   H708      1.0  0.62957  0.53630  0.16423  1.0000
  S   S241      1.0  0.71265  0.51751  0.08885  1.0000
  C   C707      1.0  0.61678  0.55160  0.22742  1.0000
  C   C708      1.0  0.51722  0.69544  0.28219  1.0000
  C   C709      1.0  0.57826  0.55362  0.10411  1.0000
  C   C710      1.0  0.70730  0.56794  0.08767  1.0000
  C   C711      1.0  0.62331  0.53810  0.24737  1.0000
  C   C712      1.0  0.63217  0.52384  0.23695  1.0000
  C   C713      1.0  0.57947  0.51211  0.02388  1.0000
  H   H709      1.0  0.66483  0.59687  0.07286  1.0000
  C   C714      1.0  0.86308  0.51572  0.01108  1.0000
  C   C715      1.0  0.53962  0.67295  0.27764  1.0000
  H   H710      1.0  0.57070  0.68598  0.47992  1.0000
  C   C716      1.0  0.58561  0.71079  0.30193  1.0000
  C   C717      1.0  0.60582  0.71144  0.28263  1.0000
  C   C718      1.0  0.53371  0.71064  0.25782  1.0000
  H   H711      1.0  0.49482  0.64053  0.46824  1.0000
  H   H712      1.0  0.89907  0.48965  0.02740  1.0000
  H   H713      1.0  0.52222  0.50983  0.33055  1.0000
  C   C719      1.0  0.97627  0.51831  0.44708  1.0000
  H   H714      1.0  0.54089  0.52525  0.34892  1.0000
  H   H715      1.0  0.53040  0.67152  0.45749  1.0000
  H   H716      1.0  0.88263  0.51514  0.04471  1.0000
  H   H717      1.0  0.60923  0.49961  0.12792  1.0000
  H   H718      1.0  0.56576  0.71863  0.22500  1.0000
  C   C720      1.0  0.58032  0.68204  0.46178  1.0000
  C   C721      1.0  0.97885  0.49902  0.44766  1.0000
  H   H719      1.0  0.96966  0.52179  0.46795  1.0000
  N   N58       1.0  0.61798  0.49131  0.08674  1.0000
  C   C722      1.0  0.85712  0.50754  0.98715  1.0000
  C   C723      1.0  0.88121  0.48721  0.99192  1.0000
  H   H720      1.0  0.62409  0.73304  0.33104  1.0000
  H   H721      1.0  0.61604  0.73665  0.38345  1.0000
  H   H722      1.0  0.48951  0.71098  0.47991  1.0000
  H   H723      1.0  0.62907  0.56216  0.89425  1.0000
  C   C724      1.0  0.71605  0.68646  0.93302  1.0000
  C   C725      1.0  0.69782  0.64342  0.95483  1.0000
  H   H724      1.0  0.71707  0.69993  0.87664  1.0000
  H   H725      1.0  0.70310  0.67494  0.87101  1.0000
  H   H726      1.0  0.73372  0.68342  0.86974  1.0000
  H   H727      1.0  0.63267  0.58084  0.91695  1.0000
  H   H728      1.0  0.69838  0.64294  0.90885  1.0000
  C   C726      1.0  0.57010  0.64310  0.53514  1.0000
  C   C727      1.0  0.70777  0.72785  0.72933  1.0000
  S   S242      1.0  0.58021  0.69838  0.53197  1.0000
  H   H729      1.0  0.67310  0.73344  0.71069  1.0000
  Fe  Fe120     1.0  0.54281  0.69399  0.53491  1.0000
  H   H730      1.0  0.66380  0.68409  0.96290  1.0000
  H   H731      1.0  0.52738  0.59957  0.53848  1.0000
  H   H732      1.0  0.84465  0.51204  0.97659  1.0000
  H   H733      1.0  0.76476  0.73692  0.72608  1.0000
  S   S243      1.0  0.62927  0.62108  0.93007  1.0000
  S   S244      1.0  0.76586  0.72618  0.78911  1.0000
  C   C728      1.0  0.72745  0.72616  0.73822  1.0000
  C   C729      1.0  0.59202  0.53284  0.94365  1.0000
  N   N59       1.0  0.86621  0.49352  0.97782  1.0000
  H   H734      1.0  0.64195  0.64655  0.97145  1.0000
  H   H735      1.0  0.81040  0.72190  0.77704  1.0000
  H   H736      1.0  0.56166  0.60551  0.49779  1.0000
  H   H737      1.0  0.55388  0.56652  0.95405  1.0000
  C   C730      1.0  0.70232  0.65280  0.92412  1.0000
  H   H738      1.0  0.86535  0.49852  0.93179  1.0000
  C   C731      1.0  0.56860  0.52308  0.95869  1.0000
  S   S245      1.0  0.68506  0.71713  0.90900  1.0000
  C   C732      1.0  0.60646  0.64528  0.50427  1.0000
  S   S246      1.0  0.70158  0.71974  0.82179  1.0000
  S   S247      1.0  0.54943  0.71650  0.49060  1.0000
  C   C733      1.0  0.48975  0.72660  0.48047  1.0000
  H   H739      1.0  0.59525  0.58296  0.92718  1.0000
  N   N60       1.0  0.71125  0.67408  0.91359  1.0000
  H   H740      1.0  0.53674  0.52787  0.97499  1.0000
  C   C734      1.0  0.71144  0.67756  0.96396  1.0000
  C   C735      1.0  0.58784  0.56608  0.93581  1.0000
  Fe  Fe121     1.0  0.70171  0.73453  0.86056  1.0000
  C   C736      1.0  0.48257  0.67454  0.53498  1.0000
  S   S248      1.0  0.54259  0.71769  0.56193  1.0000
  H   H741      1.0  0.72283  0.70334  0.92477  1.0000
  C   C737      1.0  0.64245  0.64817  0.92483  1.0000
  C   C738      1.0  0.64748  0.65649  0.94897  1.0000
  C   C739      1.0  0.65960  0.67788  0.94413  1.0000
  C   C740      1.0  0.66679  0.69111  0.91506  1.0000
  C   C741      1.0  0.66065  0.68304  0.89113  1.0000
  C   C742      1.0  0.64860  0.66158  0.89597  1.0000
  H   H742      1.0  0.63645  0.55652  0.92997  1.0000
  N   N61       1.0  0.60144  0.55410  0.93298  1.0000
  H   H743      1.0  0.66512  0.69323  0.86892  1.0000
  H   H744      1.0  0.64428  0.65535  0.87728  1.0000
  Fe  Fe122     1.0  0.58091  0.72427  0.55446  1.0000
  C   C743      1.0  0.56438  0.55686  0.95094  1.0000
  S   S249      1.0  0.51888  0.66100  0.54108  1.0000
  H   H745      1.0  0.60308  0.66666  0.53137  1.0000
  C   C744      1.0  0.62611  0.56391  0.91767  1.0000
  C   C745      1.0  0.71664  0.68355  0.88113  1.0000
  H   H746      1.0  0.52659  0.61960  0.55766  1.0000
  H   H747      1.0  0.72581  0.71582  0.75964  1.0000
  H   H748      1.0  0.69082  0.71870  0.74429  1.0000
  Fe  Fe123     1.0  0.63101  0.60192  0.97351  1.0000
  S   S250      1.0  0.59831  0.72975  0.59207  1.0000
  H   H749      1.0  0.60282  0.52333  0.94148  1.0000
  C   C746      1.0  0.57073  0.61836  0.50630  1.0000
  C   C747      1.0  0.59474  0.62786  0.49514  1.0000
  C   C748      1.0  0.48433  0.73153  0.50792  1.0000
  C   C749      1.0  0.49156  0.65849  0.53420  1.0000
  C   C750      1.0  0.59414  0.65290  0.52455  1.0000
  H   H750      1.0  0.62497  0.65319  0.49503  1.0000
  C   C751      1.0  0.97624  0.48903  0.55400  1.0000
  H   H751      1.0  0.48518  0.62744  0.52801  1.0000
  Fe  Fe124     1.0  0.58675  0.72238  0.48911  1.0000
  H   H752      1.0  0.68789  0.73582  0.67255  1.0000
  H   H753      1.0  0.49255  0.68872  0.53985  1.0000
  S   S251      1.0  0.65689  0.58576  0.96937  1.0000
  H   H754      1.0  0.56145  0.50626  0.96811  1.0000
  C   C752      1.0  0.55478  0.53522  0.96263  1.0000
  H   H755      1.0  0.52595  0.62393  0.51864  1.0000
  C   C753      1.0  0.70231  0.65587  0.97487  1.0000
  H   H756      1.0  0.69089  0.62658  0.96314  1.0000
  H   H757      1.0  0.56050  0.64959  0.55002  1.0000
  C   C754      1.0  0.53343  0.61674  0.53573  1.0000
  N   N62       1.0  0.55875  0.62594  0.52616  1.0000
  H   H758      1.0  0.96367  0.49526  0.56382  1.0000
  H   H759      1.0  0.71471  0.68739  0.97942  1.0000
  C   C755      1.0  0.62451  0.76383  0.31157  1.0000
  C   C756      1.0  0.56692  0.81139  0.42788  1.0000
  C   C757      1.0  0.62210  0.78213  0.31744  1.0000
  H   H760      1.0  0.62479  0.76772  0.41207  1.0000
  H   H761      1.0  0.57311  0.82823  0.41982  1.0000
  H   H762      1.0  0.62333  0.79485  0.29906  1.0000
  H   H763      1.0  0.54483  0.75113  0.45635  1.0000
  H   H764      1.0  0.62796  0.76237  0.28857  1.0000
  S   S252      1.0  0.57631  0.81057  0.36843  1.0000
  H   H765      1.0  0.55849  0.81136  0.47491  1.0000
  C   C758      1.0  0.58628  0.74203  0.26765  1.0000
  H   H766      1.0  0.61544  0.79793  0.35161  1.0000
  H   H767      1.0  0.49623  0.80329  0.36644  1.0000
  H   H768      1.0  0.61418  0.75450  0.22738  1.0000
  H   H769      1.0  0.55823  0.76771  0.40187  1.0000
  H   H770      1.0  0.60833  0.78424  0.40340  1.0000
  C   C759      1.0  0.56677  0.79907  0.40725  1.0000
  C   C760      1.0  0.61754  0.78372  0.34727  1.0000
  S   S253      1.0  0.57405  0.76089  0.25709  1.0000
  C   C761      1.0  0.61768  0.74947  0.36499  1.0000
  S   S254      1.0  0.51534  0.74648  0.31620  1.0000
  Fe  Fe125     1.0  0.55564  0.78799  0.34657  1.0000
  C   C762      1.0  0.55858  0.77732  0.41766  1.0000
  C   C763      1.0  0.61045  0.76913  0.40181  1.0000
  Fe  Fe126     1.0  0.55295  0.76556  0.29742  1.0000
  S   S255      1.0  0.56291  0.75919  0.34107  1.0000
  C   C764      1.0  0.55119  0.76790  0.44862  1.0000
  N   N63       1.0  0.61532  0.76746  0.37057  1.0000
  S   S256      1.0  0.54894  0.79616  0.30100  1.0000
  Fe  Fe127     1.0  0.51199  0.77634  0.32438  1.0000
  S   S257      1.0  0.51848  0.77068  0.37029  1.0000
  C   C765      1.0  0.62229  0.74736  0.33544  1.0000
  H   H771      1.0  0.50046  0.73856  0.43220  1.0000
  Fe  Fe128     1.0  0.52502  0.74267  0.36027  1.0000
  C   C766      1.0  0.49693  0.76223  0.45456  1.0000
  H   H772      1.0  0.59420  0.75637  0.41540  1.0000
  C   C767      1.0  0.60623  0.74240  0.24826  1.0000
  C   C768      1.0  0.49588  0.74201  0.45364  1.0000
  C   C769      1.0  0.55860  0.80186  0.45895  1.0000
  H   H773      1.0  0.50237  0.77421  0.43357  1.0000
  C   C770      1.0  0.55099  0.78009  0.46931  1.0000
  H   H774      1.0  0.50639  0.79993  0.46170  1.0000
  Fe  Fe129     1.0  0.86732  0.86107  0.71130  1.0000
  S   S258      1.0  0.84514  0.83939  0.75572  1.0000
  S   S259      1.0  0.85196  0.87270  0.67458  1.0000
  Fe  Fe130     1.0  0.91215  0.86666  0.73140  1.0000
  S   S260      1.0  0.89367  0.84537  0.77732  1.0000
  Fe  Fe131     1.0  0.87265  0.82502  0.75291  1.0000
  S   S261      1.0  0.86725  0.79082  0.76542  1.0000
  Fe  Fe132     1.0  0.86810  0.86178  0.77562  1.0000
  S   S262      1.0  0.85429  0.87253  0.81480  1.0000
  S   S263      1.0  0.89320  0.84493  0.70665  1.0000
  S   S264      1.0  0.88816  0.88475  0.73169  1.0000
  Fe  Fe133     1.0  0.78889  0.93828  0.67450  1.0000
  S   S265      1.0  0.75064  0.93055  0.68357  1.0000
  S   S266      1.0  0.81102  0.94613  0.62779  1.0000
  Fe  Fe134     1.0  0.78892  0.93488  0.74023  1.0000
  S   S267      1.0  0.75052  0.92707  0.75499  1.0000
  S   S268      1.0  0.81064  0.94019  0.77330  1.0000
  Fe  Fe135     1.0  0.74907  0.90619  0.72345  1.0000
  S   S269      1.0  0.72376  0.87353  0.73356  1.0000
  Fe  Fe136     1.0  0.75602  0.95224  0.71375  1.0000
  S   S270      1.0  0.73764  0.97533  0.71148  1.0000
  S   S271      1.0  0.78717  0.91215  0.71170  1.0000
  S   S272      1.0  0.79461  0.96185  0.70164  1.0000
  H   H775      1.0  0.83938  0.82765  0.68900  1.0000
  C   C771      1.0  0.83223  0.85311  0.66360  1.0000
  H   H776      1.0  0.82124  0.87490  0.63610  1.0000
  C   C772      1.0  0.80048  0.84308  0.63961  1.0000
  C   C773      1.0  0.69024  0.79718  0.71056  1.0000
  N   N64       1.0  0.94319  0.82412  0.74538  1.0000
  H   H777      1.0  0.74965  0.80849  0.71634  1.0000
  S   S273      1.0  0.75227  0.81010  0.81998  1.0000
  C   C774      1.0  0.81850  0.85861  0.64522  1.0000
  S   S274      1.0  0.74004  0.75150  0.84669  1.0000
  N   N65       1.0  0.76724  0.97351  0.61246  1.0000
  H   H778      1.0  0.80370  0.81174  0.73754  1.0000
  C   C775      1.0  0.77224  0.86138  0.69693  1.0000
  H   H779      1.0  0.76905  0.87483  0.68528  1.0000
  H   H780      1.0  0.63343  0.74944  0.74488  1.0000
  C   C776      1.0  0.78096  0.97523  0.78057  1.0000
  C   C777      1.0  0.73285  0.93915  0.60646  1.0000
  H   H781      1.0  0.78963  0.84748  0.62599  1.0000
  C   C778      1.0  0.96544  0.84552  0.68565  1.0000
  C   C779      1.0  0.73190  0.85610  0.75765  1.0000
  C   C780      1.0  0.74874  0.86348  0.77295  1.0000
  C   C781      1.0  0.75508  0.84931  0.79210  1.0000
  C   C782      1.0  0.74442  0.82780  0.79612  1.0000
  C   C783      1.0  0.72766  0.82044  0.78074  1.0000
  C   C784      1.0  0.72159  0.83459  0.76132  1.0000
  H   H782      1.0  0.75678  0.88008  0.77024  1.0000
  H   H783      1.0  0.76812  0.85505  0.80392  1.0000
  H   H784      1.0  0.71946  0.80385  0.78363  1.0000
  H   H785      1.0  0.70916  0.82883  0.74877  1.0000
  C   C785      1.0  0.83897  0.77350  0.77016  1.0000
  S   S275      1.0  0.66729  0.74264  0.77469  1.0000
  Fe  Fe137     1.0  0.70326  0.82133  0.63482  1.0000
  C   C786      1.0  0.66291  0.76566  0.59188  1.0000
  C   C787      1.0  0.81988  0.78004  0.77460  1.0000
  S   S276      1.0  0.95065  0.88387  0.71504  1.0000
  C   C788      1.0  0.79625  0.82197  0.65216  1.0000
  H   H786      1.0  0.82237  0.79604  0.77470  1.0000
  C   C789      1.0  0.84087  0.89035  0.80376  1.0000
  C   C790      1.0  0.83237  0.89065  0.77791  1.0000
  C   C791      1.0  0.82213  0.90537  0.76904  1.0000
  C   C792      1.0  0.82097  0.92012  0.78552  1.0000
  C   C793      1.0  0.82947  0.91973  0.81132  1.0000
  C   C794      1.0  0.83909  0.90468  0.82068  1.0000
  H   H787      1.0  0.83372  0.87960  0.76475  1.0000
  H   H788      1.0  0.81595  0.90573  0.74890  1.0000
  H   H789      1.0  0.82868  0.93111  0.82411  1.0000
  H   H790      1.0  0.84568  0.90448  0.84064  1.0000
  C   C795      1.0  0.67054  0.79641  0.69991  1.0000
  C   C796      1.0  0.94308  0.83086  0.69294  1.0000
  S   S277      1.0  0.67172  0.81649  0.67036  1.0000
  C   C797      1.0  0.97680  0.84896  0.70839  1.0000
  C   C798      1.0  0.95825  0.87429  0.77168  1.0000
  C   C799      1.0  0.73130  0.75249  0.68362  1.0000
  H   H791      1.0  0.94040  0.86411  0.77915  1.0000
  H   H792      1.0  0.68129  0.84145  0.72187  1.0000
  H   H793      1.0  0.65046  0.82881  0.72922  1.0000
  H   H794      1.0  0.65760  0.81280  0.59016  1.0000
  C   C800      1.0  0.60242  0.78128  0.59872  1.0000
  H   H795      1.0  0.97408  0.84129  0.75595  1.0000
  C   C801      1.0  0.77865  0.91046  0.62419  1.0000
  C   C802      1.0  0.79860  0.92768  0.60896  1.0000
  C   C803      1.0  0.75694  0.84134  0.70016  1.0000
  H   H796      1.0  0.74668  0.97222  0.77527  1.0000
  H   H797      1.0  0.75155  0.88414  0.61996  1.0000
  H   H798      1.0  0.77149  0.90783  0.64800  1.0000
  Fe  Fe138     1.0  0.73910  0.73932  0.80570  1.0000
  C   C804      1.0  0.82867  0.83201  0.67508  1.0000
  N   N66       1.0  0.66438  0.82723  0.76802  1.0000
  C   C805      1.0  0.67321  0.83837  0.78721  1.0000
  C   C806      1.0  0.65746  0.80590  0.77567  1.0000
  C   C807      1.0  0.67556  0.82813  0.81466  1.0000
  C   C808      1.0  0.65970  0.79515  0.80279  1.0000
  C   C809      1.0  0.66889  0.80639  0.82235  1.0000
  C   C810      1.0  0.66444  0.83825  0.73795  1.0000
  H   H799      1.0  0.67952  0.85533  0.78068  1.0000
  H   H800      1.0  0.62496  0.79139  0.52352  1.0000
  C   C811      1.0  0.76435  0.98274  0.77147  1.0000
  H   H801      1.0  0.97373  0.85459  0.66255  1.0000
  H   H802      1.0  0.67121  0.79829  0.84317  1.0000
  N   N67       1.0  0.70989  0.74090  0.70229  1.0000
  H   H803      1.0  0.79039  0.96637  0.58015  1.0000
  N   N68       1.0  0.49216  0.76706  0.48156  1.0000
  N   N69       1.0  0.81029  0.81198  0.84549  1.0000
  C   C812      1.0  0.79428  0.79240  0.85077  1.0000
  C   C813      1.0  0.83343  0.81508  0.83834  1.0000
  C   C814      1.0  0.80132  0.77526  0.84938  1.0000
  C   C815      1.0  0.84108  0.79834  0.83645  1.0000
  C   C816      1.0  0.82488  0.77830  0.84215  1.0000
  C   C817      1.0  0.64923  0.76287  0.73554  1.0000
  H   H804      1.0  0.77593  0.78998  0.85590  1.0000
  H   H805      1.0  0.80502  0.83875  0.82245  1.0000
  H   H806      1.0  0.78866  0.75980  0.85309  1.0000
  C   C818      1.0  0.68926  0.78099  0.73427  1.0000
  H   H807      1.0  0.83060  0.76527  0.83996  1.0000
  C   C819      1.0  0.66386  0.76195  0.54110  1.0000
  H   H808      1.0  0.62158  0.79307  0.62977  1.0000
  H   H809      1.0  0.67326  0.76550  0.51780  1.0000
  C   C820      1.0  0.60339  0.78106  0.56865  1.0000
  H   H810      1.0  0.83483  0.91319  0.65275  1.0000
  H   H811      1.0  0.76827  0.76056  0.67700  1.0000
  S   S278      1.0  0.70394  0.78792  0.54882  1.0000
  H   H812      1.0  0.73304  0.76283  0.66213  1.0000
  H   H813      1.0  0.66419  0.82970  0.51856  1.0000
  H   H814      1.0  0.66800  0.80530  0.51507  1.0000
  N   N70       1.0  0.85752  0.93294  0.67254  1.0000
  C   C821      1.0  0.78482  0.80857  0.74154  1.0000
  H   H815      1.0  0.78263  0.77049  0.78489  1.0000
  H   H816      1.0  0.80954  0.84862  0.73406  1.0000
  H   H817      1.0  0.70615  0.81033  0.70056  1.0000
  S   S279      1.0  0.77191  0.80231  0.64894  1.0000
  C   C822      1.0  0.79472  0.84638  0.72460  1.0000
  C   C823      1.0  0.79131  0.86394  0.70925  1.0000
  S   S280      1.0  0.73916  0.84094  0.63365  1.0000
  Fe  Fe139     1.0  0.73179  0.77738  0.82041  1.0000
  S   S281      1.0  0.70635  0.83356  0.58588  1.0000
  C   C824      1.0  0.76138  0.82404  0.71461  1.0000
  H   H818      1.0  0.74148  0.83928  0.69213  1.0000
  H   H819      1.0  0.77762  0.79483  0.73267  1.0000
  C   C825      1.0  0.49378  0.78845  0.48216  1.0000
  H   H820      1.0  0.80373  0.87931  0.70653  1.0000
  S   S282      1.0  0.76202  0.88405  0.55691  1.0000
  H   H821      1.0  0.77714  0.80477  0.76612  1.0000
  N   N71       1.0  0.78031  0.82674  0.72626  1.0000
  C   C826      1.0  0.81077  0.81647  0.66924  1.0000
  H   H822      1.0  0.68335  0.83708  0.82928  1.0000
  S   S283      1.0  0.71228  0.79323  0.62955  1.0000
  H   H823      1.0  0.91469  0.80893  0.72859  1.0000
  H   H824      1.0  0.84113  0.95536  0.66394  1.0000
  H   H825      1.0  0.50010  0.79257  0.50183  1.0000
  C   C827      1.0  0.85276  0.92469  0.64665  1.0000
  C   C828      1.0  0.84991  0.94857  0.67865  1.0000
  S   S284      1.0  0.75578  0.82510  0.57352  1.0000
  C   C829      1.0  0.62815  0.74448  0.58040  1.0000
  C   C830      1.0  0.76752  0.89681  0.60839  1.0000
  H   H826      1.0  0.65476  0.77823  0.80825  1.0000
  H   H827      1.0  0.84663  0.96797  0.70932  1.0000
  H   H828      1.0  0.63183  0.74280  0.53419  1.0000
  C   C831      1.0  0.85319  0.95594  0.70410  1.0000
  H   H829      1.0  0.93398  0.82822  0.67548  1.0000
  C   C832      1.0  0.86440  0.94728  0.72330  1.0000
  C   C833      1.0  0.86840  0.92426  0.69140  1.0000
  H   H830      1.0  0.91242  0.80636  0.78038  1.0000
  C   C834      1.0  0.87213  0.93139  0.71693  1.0000
  H   H831      1.0  0.67139  0.77215  0.60795  1.0000
  H   H832      1.0  0.86646  0.95245  0.74359  1.0000
  Fe  Fe140     1.0  0.74343  0.85077  0.58385  1.0000
  C   C835      1.0  0.83544  0.75249  0.77115  1.0000
  Fe  Fe141     1.0  0.74891  0.81406  0.62379  1.0000
  H   H833      1.0  0.80777  0.80016  0.67866  1.0000
  H   H834      1.0  0.87415  0.91167  0.68682  1.0000
  H   H835      1.0  0.86487  0.91671  0.63926  1.0000
  Fe  Fe142     1.0  0.71800  0.80677  0.58019  1.0000
  C   C836      1.0  0.77645  0.90022  0.57740  1.0000
  C   C837      1.0  0.65001  0.77932  0.71250  1.0000
  C   C838      1.0  0.80768  0.93104  0.57806  1.0000
  H   H836      1.0  0.88044  0.92431  0.73216  1.0000
  H   H837      1.0  0.82307  0.94438  0.56618  1.0000
  C   C839      1.0  0.75553  0.94508  0.58935  1.0000
  H   H838      1.0  0.75997  0.93604  0.57407  1.0000
  C   C840      1.0  0.79735  0.76553  0.78056  1.0000
  H   H839      1.0  0.58839  0.77162  0.56260  1.0000
  C   C841      1.0  0.79650  0.91740  0.56226  1.0000
  C   C842      1.0  0.66878  0.76375  0.74654  1.0000
  H   H840      1.0  0.85457  0.93741  0.62702  1.0000
  H   H841      1.0  0.80338  0.92013  0.53827  1.0000
  H   H842      1.0  0.66204  0.85341  0.73818  1.0000
  H   H843      1.0  0.63487  0.77859  0.70402  1.0000
  H   H844      1.0  0.84616  0.83058  0.83386  1.0000
  H   H845      1.0  0.70998  0.94599  0.64030  1.0000
  C   C843      1.0  0.72748  0.95064  0.62649  1.0000
  H   H846      1.0  0.71958  0.92549  0.60445  1.0000
  N   N72       1.0  0.64341  0.80326  0.55452  1.0000
  H   H847      1.0  0.93787  0.80017  0.78417  1.0000
  H   H848      1.0  0.70443  0.78165  0.74254  1.0000
  H   H849      1.0  0.85009  0.74730  0.76786  1.0000
  C   C844      1.0  0.66495  0.81482  0.53106  1.0000
  H   H850      1.0  0.85944  0.80094  0.82997  1.0000
  C   C845      1.0  0.64240  0.80408  0.58384  1.0000
  H   H851      1.0  0.65053  0.79709  0.76051  1.0000
  H   H852      1.0  0.68025  0.81834  0.54077  1.0000
  S   S285      1.0  0.73355  0.76639  0.77798  1.0000
  C   C846      1.0  0.77265  0.96232  0.59279  1.0000
  S   S286      1.0  0.69338  0.76179  0.83829  1.0000
  C   C847      1.0  0.62198  0.79300  0.60641  1.0000
  H   H853      1.0  0.78428  0.82513  0.85804  1.0000
  C   C848      1.0  0.80279  0.82996  0.84592  1.0000
  C   C849      1.0  0.67509  0.77048  0.56173  1.0000
  H   H854      1.0  0.81315  0.84070  0.85736  1.0000
  S   S287      1.0  0.54096  0.76801  0.50802  1.0000
  C   C850      1.0  0.62416  0.79217  0.54670  1.0000
  C   C851      1.0  0.96730  0.88634  0.74182  1.0000
  C   C852      1.0  0.48539  0.75192  0.50803  1.0000
  H   H855      1.0  0.93479  0.82400  0.79172  1.0000
  C   C853      1.0  0.79391  0.74456  0.78132  1.0000
  Fe  Fe143     1.0  0.69582  0.74816  0.79833  1.0000
  C   C854      1.0  0.96538  0.83800  0.73831  1.0000
  H   H856      1.0  0.96552  0.86562  0.81485  1.0000
  C   C855      1.0  0.93219  0.82013  0.72310  1.0000
  H   H857      1.0  0.77627  0.95886  0.79190  1.0000
  C   C856      1.0  0.93151  0.81307  0.77698  1.0000
  C   C857      1.0  0.97252  0.87513  0.79186  1.0000
  H   H858      1.0  0.69026  0.75874  0.68660  1.0000
  H   H859      1.0  0.48170  0.75578  0.52944  1.0000
  C   C858      1.0  0.74501  0.96785  0.62927  1.0000
  C   C859      1.0  0.64040  0.74912  0.55033  1.0000
  H   H860      1.0  0.58670  0.77192  0.61606  1.0000
  H   H861      1.0  0.79099  0.98530  0.63752  1.0000
  H   H862      1.0  0.74082  0.97637  0.64545  1.0000
  Fe  Fe144     1.0  0.55294  0.74075  0.51689  1.0000
  C   C860      1.0  0.68926  0.74221  0.69259  1.0000
  C   C861      1.0  0.63956  0.75248  0.60125  1.0000
  H   H863      1.0  0.81676  0.98304  0.78163  1.0000
  S   S288      1.0  0.59114  0.74889  0.51108  1.0000
  C   C862      1.0  0.75133  0.75124  0.69188  1.0000
  H   H864      1.0  0.63016  0.74888  0.62455  1.0000
  C   C863      1.0  0.74935  0.73800  0.71937  1.0000
  C   C864      1.0  0.81299  0.73811  0.77638  1.0000
