data_image0
_chemical_formula_structural       FeS2FeS2FeS2FeS2FeS2FeSFeS3FeS2FeS2FeSFeS3FeSHFeS2FeSFeS3NSH2C2HCH2C4H3C6H5C6H4C6H4C6H4C6H4C3HCHCNH2CH2C2H5C3NH2CFeHCH3CH3C2HC2H3C2HCNC2H3NCNH2CHC3H4CH2C2H3CHCHCHCHC2H2CHNC3H3C3HCHSCHCSHC3SCFeS2FeS2FeSFeS3FeSHFeS2FeSFeS3FeS2FeS2FeSFeS3FeS2FeHFeS3C6H4C6H4CHC6H4C6H4C6H4CSHCH4C4H2C2NH2NC6H8CH2C2HCH2NH2C3NC5H2CHNC6H8CNH2CSC3HC2H2FeH2CSC3HNC2HCHCH2CH4C2FeH3CHCH2NHCH3C2SH10FeS2H3FeS2FeS2FeS2FeSFeS3FeS2FeCSFeSH2S2HSFeS2FeSFeS2CFeS2C2HC2HC4H2C3H2C5H5NCNHC6H4C6H5C6H7CH2NC5H4SHC2HSC2H2CHC2H2FeNC2H2NC6H4CH4C3H4CH3C2H3CHCHCNCH2NH2CHCHCHCFe2HCHCH2C3H3SC2HCHC3FeS2CHCHS2FeS2FeS2FeSFeS3FeS2FeS2FeSCS2FeSFeS2FeSFeSNSHS2HCSHC3H2C5HC2H2FeC4H2C6H4C6H5CHC3H2FeSCHC6H6FeNC6H8NC6H6C4HCH2C2HSHCH5CH3C2H3N2H2C3H2CHCH6C5FeSH2C2H4C2HCNC2HCH5CFeS2HSC9H6C2HFeNH2SHCHNH2CHC2H2CFeSH3SC6H4C3H2CH2NHSH3NHCHC2H2CSFeS2HSCFeS2FeS2FeSFeS3FeS2FeSHFeSFeS4C6H3C6H4C6H4C6H4C3H2FeC6H4C6H2CNC2SCHC2H6CH2CH3CSHC3HNC6H9C2HCH2CH5SHCHCNHCHCH2NH3S2HFeCH2C2H3CHNCHC4H2C2HNHNHCHCHC3HC5H3CSHCHSHCHC3NC2H3SH3FeH3FeS2HS2FeS2FeS2FeSFeS3FeS2FeS2FeSFeS3C7H3C2NC6H5SCSHC6H4C6H5C2HCH2CH3C6H4CH2CHCHCHC2H2C2HCH6C3HNC2HC3H5C6SNC2HCSH5NHNHNHCH2CH2CH2C2HFeH2C3H3C2H2CHCFeCH3CHC2HCSHCHSH2CHC2HC2HCH2CH2CFeCSFeCSFeS2FeSHFeS2FeSCSHFeS2FeS2FeSFeS3FeS2FeS2FeSFeS3C6H4C6H4C6H4C6H3C3H3C3H4C6H2C7HNH3CHCNSCH2CHC2HNCHNC6H8NC6H9SC2SHCH5CH8CNHC6H3FeC2HC2HC2SC4H2CHSCHCNHC3H2CH9CHCHC2FeSHFeS2CFeSHSFeCSFeHSFeS2FeS2FeS2FeSFeS3FeS2FeS2FeSFeS3HCH3C2HC6H4C3HC2H4SC3H3C7H4C6H4C6H4C2H2C3H2CHCHC3HC3H3NC6H8NC6H7CHC4N2CNH3CH2FeCHCH6C5HCH4CN2HC3HCSCHC2HSC2HCSC4HCHFeS3HFeSFeHS2FeS2H3FeHSHC3HC2HSC7H4C2H3CNC2FeH3CHC2H6C2NCNHC2HCSHCH2FeHCSCH2FeS2FeSFeNS2FeS2CH2S3HCH2CH2CHCH2C7H4C4HC2H2FeHCH2CHCHCFeHCHC2H2CNH3C2HCSHC3H2FeS2FeS2FeSFeS3FeS2FeS2FeS2FeSFeS3FeS2FeS2FeSFeS4C2H2CH2C3HCSH2CNHCH2C6H4C6H2CHC6H4C6H4C6H4C2HCH2CHC2H3CH2C4H3C2NHCHCHNC6H5CH3CH4CHCHCHFeCH2CSC2NHC2NCHCHCNCHCHC2HC3H2CHCHCH2NHC2H4C2H2CH6C2HNFeHCHNHSHCHCH2FeS2FeS2FeSFeS3HFeS2FeS2FeSFeS3FeS2FeS2FeSFeS3HFeS2C7H3NHC6H4CH3C7H4C6H4C6H7CSHC6H4FeH2NH3CHCHCHNH2CFeH4C5H2NH4NC6H2CH6CSC2HC4HCH3CHC2H3SCHCNHCHC2HCH3CNC6H4SC2HCH2C2HCH4SH4FeSCFeS2FeS2FeSFeS3FeSHFeS2FeSFeHS2FeS2FeS2FeSFeCS3C5H2C2HCH3CH3C6H5C8H4C6H4C6H4C5H2C4H2CNC5H7NHCH2CNSC2HC3HCNH2CH3C3H2CHCHC2SH2NHSHCHSHC2HC2H2CH4NCH10C3NC4H3FeS2FeS2FeS2FeSFeS3FeS2FeSHFeSFeCS2FeSHFeSCFeSFeSCS2H6C2HC4H3CH3C3HC6H4C6H4CH3CHC2NC6HNH3C4HC4HCH3FeHSHCHC3FeC2HCH2SCHNC2HCSNSH3C4H4CHC3H2NSCHCH2CHCHSCH2NC4HCHCHCHNH3NHC2HC2H4C
_chemical_formula_sum              "Fe192 S384 H1152 N96 C1152"
_cell_length_a       54.6589
_cell_length_b       54.5494
_cell_length_c       95.103
_cell_angle_alpha    91.6706
_cell_angle_beta     91.9585
_cell_angle_gamma    113.925

_space_group_name_H-M_alt    "P 1"
_space_group_IT_number       1

loop_
  _space_group_symop_operation_xyz
  'x, y, z'

loop_
  _atom_site_type_symbol
  _atom_site_label
  _atom_site_symmetry_multiplicity
  _atom_site_fract_x
  _atom_site_fract_y
  _atom_site_fract_z
  _atom_site_occupancy
  Fe  Fe1       1.0  0.20612  0.02087  0.02611  1.0000
  S   S1        1.0  0.16385  0.01067  0.03213  1.0000
  S   S2        1.0  0.21812  0.03679  0.00414  1.0000
  Fe  Fe2       1.0  0.22496  0.01840  0.05750  1.0000
  S   S3        1.0  0.18321  0.00728  0.06505  1.0000
  S   S4        1.0  0.26358  0.02467  0.07079  1.0000
  Fe  Fe3       1.0  0.18243  0.03949  0.05076  1.0000
  S   S5        1.0  0.16642  0.07082  0.05650  1.0000
  S   S6        1.0  0.22442  0.05151  0.04412  1.0000
  Fe  Fe4       1.0  0.21195  0.26907  0.02448  1.0000
  S   S7        1.0  0.18276  0.22752  0.02887  1.0000
  S   S8        1.0  0.20893  0.28508  0.00274  1.0000
  Fe  Fe5       1.0  0.23327  0.28110  0.05610  1.0000
  S   S9        1.0  0.20423  0.24037  0.06233  1.0000
  S   S10       1.0  0.26747  0.31331  0.07004  1.0000
  Fe  Fe6       1.0  0.21573  0.22495  0.04261  1.0000
  S   S11       1.0  0.23137  0.19235  0.04149  1.0000
  Fe  Fe7       1.0  0.17324  0.24668  0.04805  1.0000
  S   S12       1.0  0.12802  0.22977  0.05124  1.0000
  S   S13       1.0  0.24600  0.26526  0.03676  1.0000
  S   S14       1.0  0.20133  0.28865  0.04324  1.0000
  Fe  Fe8       1.0  0.40221  0.14907  0.14497  1.0000
  S   S15       1.0  0.36400  0.12945  0.15592  1.0000
  S   S16       1.0  0.40918  0.18684  0.13341  1.0000
  Fe  Fe9       1.0  0.41921  0.10335  0.15044  1.0000
  S   S17       1.0  0.38080  0.07972  0.16122  1.0000
  S   S18       1.0  0.45099  0.08601  0.15035  1.0000
  Fe  Fe10      1.0  0.35948  0.09179  0.14349  1.0000
  S   S19       1.0  0.31690  0.06932  0.13301  1.0000
  Fe  Fe11      1.0  0.38842  0.11921  0.17251  1.0000
  S   S20       1.0  0.38929  0.13104  0.19601  1.0000
  S   S21       1.0  0.39724  0.11204  0.13196  1.0000
  S   S22       1.0  0.42732  0.14220  0.16231  1.0000
  Fe  Fe12      1.0  0.43145  0.38041  0.14921  1.0000
  S   S23       1.0  0.39212  0.38437  0.15177  1.0000
  H   H1        1.0  0.32692  0.35835  0.20156  1.0000
  Fe  Fe13      1.0  0.40884  0.32368  0.16069  1.0000
  S   S24       1.0  0.36885  0.32435  0.16422  1.0000
  S   S25       1.0  0.41752  0.28979  0.16949  1.0000
  Fe  Fe14      1.0  0.37188  0.34147  0.14259  1.0000
  S   S26       1.0  0.33382  0.31801  0.12812  1.0000
  Fe  Fe15      1.0  0.39236  0.36633  0.17300  1.0000
  S   S27       1.0  0.38454  0.38325  0.19385  1.0000
  S   S28       1.0  0.41122  0.33850  0.13881  1.0000
  S   S29       1.0  0.43230  0.36477  0.17072  1.0000
  N   N1        1.0  0.31640  0.34460  0.17991  1.0000
  S   S30       1.0  0.03832  0.27713  0.04544  1.0000
  H   H2        1.0  0.38239  0.31279  0.22596  1.0000
  H   H3        1.0  0.31180  0.12247  0.13591  1.0000
  C   C1        1.0  0.38554  0.36967  0.21061  1.0000
  C   C2        1.0  0.38533  0.38446  0.22296  1.0000
  H   H4        1.0  0.33734  0.38718  0.18279  1.0000
  C   C3        1.0  0.38491  0.34392  0.21184  1.0000
  H   H5        1.0  0.38575  0.40437  0.22216  1.0000
  H   H6        1.0  0.38500  0.33222  0.20247  1.0000
  C   C4        1.0  0.38872  0.11537  0.21226  1.0000
  C   C5        1.0  0.39637  0.13156  0.22480  1.0000
  C   C6        1.0  0.28091  0.24520  0.06848  1.0000
  C   C7        1.0  0.37919  0.08749  0.21315  1.0000
  H   H7        1.0  0.40381  0.15314  0.22427  1.0000
  H   H8        1.0  0.37303  0.07470  0.20364  1.0000
  H   H9        1.0  0.27137  0.21510  0.08394  1.0000
  C   C8        1.0  0.41309  0.26067  0.15927  1.0000
  C   C9        1.0  0.40944  0.25938  0.14459  1.0000
  C   C10       1.0  0.40820  0.23661  0.13673  1.0000
  C   C11       1.0  0.41000  0.21481  0.14351  1.0000
  C   C12       1.0  0.41305  0.21590  0.15819  1.0000
  C   C13       1.0  0.41489  0.23888  0.16602  1.0000
  H   H10       1.0  0.40808  0.27612  0.13931  1.0000
  H   H11       1.0  0.40582  0.23584  0.12536  1.0000
  H   H12       1.0  0.41444  0.19921  0.16351  1.0000
  H   H13       1.0  0.41773  0.23977  0.17737  1.0000
  H   H14       1.0  0.29901  0.14280  0.12580  1.0000
  C   C14       1.0  0.10351  0.24353  0.04957  1.0000
  C   C15       1.0  0.11041  0.27107  0.04860  1.0000
  C   C16       1.0  0.09020  0.28090  0.04729  1.0000
  C   C17       1.0  0.06284  0.26342  0.04700  1.0000
  C   C18       1.0  0.05594  0.23587  0.04789  1.0000
  C   C19       1.0  0.07615  0.22604  0.04920  1.0000
  H   H15       1.0  0.13129  0.28491  0.04919  1.0000
  H   H16       1.0  0.09583  0.30227  0.04675  1.0000
  H   H17       1.0  0.03504  0.22214  0.04774  1.0000
  H   H18       1.0  0.07050  0.20472  0.05005  1.0000
  C   C20       1.0  0.28426  0.31482  0.08681  1.0000
  C   C21       1.0  0.27623  0.29335  0.09579  1.0000
  C   C22       1.0  0.29130  0.29501  0.10848  1.0000
  C   C23       1.0  0.31483  0.31795  0.11235  1.0000
  C   C24       1.0  0.32260  0.33960  0.10349  1.0000
  C   C25       1.0  0.30729  0.33810  0.09092  1.0000
  H   H19       1.0  0.25850  0.27537  0.09292  1.0000
  H   H20       1.0  0.28485  0.27816  0.11525  1.0000
  H   H21       1.0  0.34044  0.35750  0.10629  1.0000
  H   H22       1.0  0.31365  0.35500  0.08419  1.0000
  C   C26       1.0  0.18534  0.10514  0.05346  1.0000
  C   C27       1.0  0.17366  0.12369  0.05513  1.0000
  C   C28       1.0  0.18767  0.15075  0.05183  1.0000
  C   C29       1.0  0.21354  0.15938  0.04690  1.0000
  C   C30       1.0  0.22535  0.14100  0.04550  1.0000
  C   C31       1.0  0.21136  0.11407  0.04876  1.0000
  H   H23       1.0  0.15356  0.11702  0.05882  1.0000
  H   H24       1.0  0.17838  0.16479  0.05300  1.0000
  H   H25       1.0  0.24535  0.14750  0.04171  1.0000
  H   H26       1.0  0.22071  0.10024  0.04750  1.0000
  C   C32       1.0  0.27811  0.03801  0.08805  1.0000
  C   C33       1.0  0.30550  0.04420  0.09103  1.0000
  C   C34       1.0  0.31781  0.05406  0.10458  1.0000
  C   C35       1.0  0.30274  0.05724  0.11554  1.0000
  C   C36       1.0  0.27527  0.05081  0.11260  1.0000
  C   C37       1.0  0.26315  0.04172  0.09895  1.0000
  H   H27       1.0  0.31735  0.04129  0.08278  1.0000
  H   H28       1.0  0.33887  0.05871  0.10659  1.0000
  H   H29       1.0  0.26325  0.05296  0.12096  1.0000
  H   H30       1.0  0.24210  0.03710  0.09695  1.0000
  C   C38       1.0  0.43242  0.08746  0.18885  1.0000
  C   C39       1.0  0.46213  0.13535  0.19198  1.0000
  C   C40       1.0  0.34741  0.13761  0.11650  1.0000
  H   H31       1.0  0.14838  0.06982  0.02538  1.0000
  C   C41       1.0  0.11291  0.20441  0.00135  1.0000
  H   H32       1.0  0.34680  0.15547  0.22039  1.0000
  C   C42       1.0  0.32544  0.37509  0.16109  1.0000
  N   N2        1.0  0.18880  0.13088  0.01434  1.0000
  H   H33       1.0  0.42839  0.07299  0.17966  1.0000
  H   H34       1.0  0.33452  0.39539  0.15750  1.0000
  C   C43       1.0  0.20869  0.09929  0.01076  1.0000
  H   H35       1.0  0.46689  0.33063  0.18157  1.0000
  H   H36       1.0  0.04590  0.29141  0.01569  1.0000
  C   C44       1.0  0.18950  0.15785  0.01289  1.0000
  C   C45       1.0  0.16530  0.08514  0.02065  1.0000
  H   H37       1.0  0.29636  0.30292  0.17400  1.0000
  H   H38       1.0  0.31201  0.35678  0.14023  1.0000
  H   H39       1.0  0.98276  0.32560  0.99452  1.0000
  H   H40       1.0  0.21046  0.17326  0.01290  1.0000
  H   H41       1.0  0.29937  0.32610  0.19871  1.0000
  C   C46       1.0  0.38346  0.33294  0.22521  1.0000
  C   C47       1.0  0.13721  0.23520  0.98396  1.0000
  C   C48       1.0  0.32701  0.37027  0.17539  1.0000
  N   N3        1.0  0.13624  0.25147  0.00760  1.0000
  H   H42       1.0  0.15643  0.27655  0.99119  1.0000
  H   H43       1.0  0.36858  0.05442  0.22703  1.0000
  C   C49       1.0  0.12044  0.22600  0.01125  1.0000
  Fe  Fe16      1.0  0.99233  0.25655  0.04480  1.0000
  H   H44       1.0  0.44537  0.13933  0.19555  1.0000
  C   C50       1.0  0.14375  0.27379  0.01811  1.0000
  H   H45       1.0  0.43163  0.07697  0.19876  1.0000
  H   H46       1.0  0.41606  0.09461  0.18858  1.0000
  H   H47       1.0  0.17862  0.15859  0.00297  1.0000
  C   C51       1.0  0.30411  0.32329  0.17048  1.0000
  H   H48       1.0  0.31868  0.06265  0.22270  1.0000
  H   H49       1.0  0.12730  0.28066  0.01891  1.0000
  H   H50       1.0  0.16248  0.29092  0.01549  1.0000
  C   C52       1.0  0.02376  0.31550  0.01918  1.0000
  C   C53       1.0  0.28538  0.23476  0.08104  1.0000
  H   H51       1.0  0.22524  0.09468  0.00743  1.0000
  C   C54       1.0  0.32519  0.27542  0.08603  1.0000
  C   C55       1.0  0.03402  0.27690  0.98849  1.0000
  H   H52       1.0  0.35593  0.14732  0.12669  1.0000
  H   H53       1.0  0.38619  0.14818  0.10789  1.0000
  H   H54       1.0  0.26348  0.23374  0.06160  1.0000
  C   C56       1.0  0.36463  0.13819  0.10586  1.0000
  C   C57       1.0  0.30264  0.12421  0.12556  1.0000
  H   H55       1.0  0.22708  0.14075  0.00579  1.0000
  C   C58       1.0  0.16680  0.11123  0.01961  1.0000
  N   N4        1.0  0.32024  0.12469  0.11418  1.0000
  C   C59       1.0  0.29880  0.27074  0.06495  1.0000
  C   C60       1.0  0.30770  0.24989  0.08989  1.0000
  H   H56       1.0  0.29488  0.27897  0.05532  1.0000
  H   H57       1.0  0.31113  0.24225  0.09983  1.0000
  H   H58       1.0  0.15061  0.11582  0.02346  1.0000
  N   N5        1.0  0.02490  0.29429  0.99687  1.0000
  C   C61       1.0  0.31282  0.35348  0.15142  1.0000
  N   N6        1.0  0.32039  0.28562  0.07377  1.0000
  H   H59       1.0  0.28323  0.10636  0.12425  1.0000
  H   H60       1.0  0.05596  0.28325  0.99026  1.0000
  C   C62       1.0  0.18641  0.07925  0.01619  1.0000
  H   H61       1.0  0.31743  0.10277  0.08026  1.0000
  C   C63       1.0  0.30948  0.11306  0.10120  1.0000
  C   C64       1.0  0.35386  0.12556  0.09274  1.0000
  C   C65       1.0  0.33882  0.31232  0.06977  1.0000
  H   H62       1.0  0.34207  0.28735  0.09316  1.0000
  H   H63       1.0  0.35317  0.31049  0.06228  1.0000
  H   H64       1.0  0.28793  0.10288  0.09932  1.0000
  H   H65       1.0  0.35012  0.32508  0.07914  1.0000
  C   C66       1.0  0.32610  0.11304  0.09034  1.0000
  H   H66       1.0  0.32746  0.32299  0.06475  1.0000
  H   H67       1.0  0.36701  0.12535  0.08449  1.0000
  C   C67       1.0  0.37656  0.07603  0.22645  1.0000
  C   C68       1.0  0.20955  0.12518  0.00987  1.0000
  H   H68       1.0  0.14781  0.26740  0.02859  1.0000
  H   H69       1.0  0.33347  0.32997  0.19619  1.0000
  H   H70       1.0  0.18031  0.16359  0.02197  1.0000
  C   C69       1.0  0.21146  0.02015  0.98713  1.0000
  H   H71       1.0  0.18571  0.05926  0.01713  1.0000
  C   C70       1.0  0.30195  0.32742  0.15613  1.0000
  H   H72       1.0  0.29271  0.31048  0.14860  1.0000
  C   C71       1.0  0.31904  0.33948  0.19482  1.0000
  H   H73       1.0  0.11376  0.22225  0.02190  1.0000
  C   C72       1.0  0.03283  0.29970  0.01083  1.0000
  H   H74       1.0  0.23997  0.25506  0.99308  1.0000
  C   C73       1.0  0.33078  0.11398  0.22593  1.0000
  C   C74       1.0  0.14412  0.25631  0.99409  1.0000
  H   H75       1.0  0.32765  0.10660  0.21500  1.0000
  H   H76       1.0  0.99766  0.33633  0.01981  1.0000
  C   C75       1.0  0.99758  0.31923  0.99908  1.0000
  H   H77       1.0  0.10059  0.18424  0.00437  1.0000
  N   N7        1.0  0.45870  0.10979  0.18804  1.0000
  C   C76       1.0  0.00580  0.32508  0.01328  1.0000
  C   C77       1.0  0.21609  0.27567  0.98576  1.0000
  C   C78       1.0  0.00757  0.30392  0.99094  1.0000
  H   H78       1.0  0.46685  0.45287  0.15781  1.0000
  H   H79       1.0  0.02984  0.31939  0.03031  1.0000
  H   H80       1.0  0.46739  0.28359  0.13837  1.0000
  C   C79       1.0  0.34162  0.14173  0.22892  1.0000
  C   C80       1.0  0.23199  0.26127  0.98394  1.0000
  C   C81       1.0  0.47315  0.30429  0.14208  1.0000
  H   H81       1.0  0.47342  0.29538  0.16390  1.0000
  C   C82       1.0  0.12150  0.20908  0.98764  1.0000
  H   H82       1.0  0.02346  0.25580  0.99157  1.0000
  S   S31       1.0  0.47116  0.40917  0.14040  1.0000
  C   C83       1.0  0.20199  0.99223  0.98525  1.0000
  H   H83       1.0  0.47299  0.31908  0.12132  1.0000
  C   C84       1.0  0.47617  0.32414  0.13254  1.0000
  S   S32       1.0  0.21039  0.98839  0.03877  1.0000
  H   H84       1.0  0.47717  0.08447  0.18059  1.0000
  C   C85       1.0  0.47671  0.31110  0.15652  1.0000
  C   C86       1.0  0.31365  0.06746  0.23337  1.0000
  C   C87       1.0  0.34656  0.15151  0.24292  1.0000
  S   S33       1.0  0.03466  0.24470  0.41317  1.0000
  C   C88       1.0  0.14068  0.30487  0.42298  1.0000
  Fe  Fe17      1.0  0.21637  0.25372  0.41637  1.0000
  S   S34       1.0  0.17781  0.22797  0.40428  1.0000
  S   S35       1.0  0.21729  0.24022  0.43899  1.0000
  Fe  Fe18      1.0  0.24345  0.28072  0.38876  1.0000
  S   S36       1.0  0.20609  0.25685  0.37551  1.0000
  S   S37       1.0  0.28457  0.30477  0.37953  1.0000
  Fe  Fe19      1.0  0.18338  0.26545  0.39310  1.0000
  S   S38       1.0  0.15079  0.28073  0.38847  1.0000
  Fe  Fe20      1.0  0.20401  0.22184  0.38807  1.0000
  S   S39       1.0  0.20329  0.18403  0.37734  1.0000
  S   S40       1.0  0.22118  0.29199  0.40587  1.0000
  S   S41       1.0  0.24209  0.24511  0.40064  1.0000
  Fe  Fe21      1.0  0.42466  0.12326  0.30227  1.0000
  S   S42       1.0  0.39366  0.08125  0.29734  1.0000
  H   H85       1.0  0.36446  0.08030  0.35765  1.0000
  Fe  Fe22      1.0  0.38588  0.14802  0.29310  1.0000
  S   S43       1.0  0.35258  0.10757  0.28773  1.0000
  S   S44       1.0  0.37538  0.18216  0.28623  1.0000
  Fe  Fe23      1.0  0.36443  0.09464  0.30822  1.0000
  S   S45       1.0  0.33228  0.06533  0.32220  1.0000
  Fe  Fe24      1.0  0.38427  0.09813  0.27737  1.0000
  S   S46       1.0  0.37599  0.07661  0.25549  1.0000
  S   S47       1.0  0.39605  0.13596  0.31423  1.0000
  S   S48       1.0  0.41693  0.13915  0.28173  1.0000
  Fe  Fe25      1.0  0.36503  0.34964  0.30674  1.0000
  S   S49       1.0  0.40574  0.36304  0.31771  1.0000
  S   S50       1.0  0.32496  0.33944  0.31743  1.0000
  Fe  Fe26      1.0  0.38810  0.34804  0.27705  1.0000
  S   S51       1.0  0.42999  0.36052  0.28651  1.0000
  S   S52       1.0  0.37975  0.33195  0.25402  1.0000
  Fe  Fe27      1.0  0.41044  0.33172  0.30333  1.0000
  S   S53       1.0  0.42630  0.30208  0.31161  1.0000
  Fe  Fe28      1.0  0.42164  0.39083  0.29981  1.0000
  S   S54       1.0  0.44751  0.43630  0.30224  1.0000
  S   S55       1.0  0.36921  0.31728  0.29323  1.0000
  S   S56       1.0  0.38013  0.37950  0.28957  1.0000
  Fe  Fe29      1.0  0.19071  0.05076  0.40836  1.0000
  S   S57       1.0  0.23262  0.05505  0.41341  1.0000
  S   S58       1.0  0.17595  0.08260  0.41454  1.0000
  Fe  Fe30      1.0  0.21306  0.01373  0.42177  1.0000
  H   H86       1.0  0.98553  0.27659  0.46091  1.0000
  Fe  Fe31      1.0  0.22969  0.03481  0.39179  1.0000
  S   S59       1.0  0.26497  0.05902  0.37778  1.0000
  S   S60       1.0  0.17129  0.01104  0.41826  1.0000
  S   S61       1.0  0.18811  0.03261  0.38665  1.0000
  C   C89       1.0  0.31296  0.06456  0.33731  1.0000
  C   C90       1.0  0.29266  0.03992  0.34085  1.0000
  C   C91       1.0  0.27767  0.03783  0.35299  1.0000
  C   C92       1.0  0.28282  0.06038  0.36199  1.0000
  C   C93       1.0  0.30321  0.08502  0.35848  1.0000
  C   C94       1.0  0.31801  0.08718  0.34625  1.0000
  H   H87       1.0  0.28840  0.02219  0.33411  1.0000
  H   H88       1.0  0.26218  0.01870  0.35542  1.0000
  H   H89       1.0  0.30750  0.10269  0.36526  1.0000
  H   H90       1.0  0.33343  0.10633  0.34380  1.0000
  C   C95       1.0  0.41017  0.26794  0.30572  1.0000
  C   C96       1.0  0.41927  0.24910  0.31093  1.0000
  C   C97       1.0  0.40821  0.22231  0.30544  1.0000
  C   C98       1.0  0.38796  0.21433  0.29473  1.0000
  C   C99       1.0  0.37841  0.23298  0.28985  1.0000
  C   C100      1.0  0.38947  0.25961  0.29529  1.0000
  H   H91       1.0  0.43531  0.25536  0.31901  1.0000
  H   H92       1.0  0.41572  0.20806  0.30927  1.0000
  H   H93       1.0  0.36274  0.22693  0.28157  1.0000
  H   H94       1.0  0.38236  0.27374  0.29110  1.0000
  C   C101      1.0  0.32975  0.10593  0.25036  1.0000
  H   H95       1.0  0.98332  0.36365  0.41698  1.0000
  C   C102      1.0  0.19521  0.15571  0.38760  1.0000
  C   C103      1.0  0.18172  0.15368  0.40003  1.0000
  C   C104      1.0  0.17548  0.13089  0.40806  1.0000
  C   C105      1.0  0.18323  0.11032  0.40389  1.0000
  C   C106      1.0  0.19680  0.11235  0.39148  1.0000
  C   C107      1.0  0.20251  0.13488  0.38328  1.0000
  H   H96       1.0  0.17583  0.16954  0.40337  1.0000
  H   H97       1.0  0.16485  0.12934  0.41761  1.0000
  H   H98       1.0  0.20295  0.09661  0.38821  1.0000
  H   H99       1.0  0.21299  0.13637  0.37368  1.0000
  C   C108      1.0  0.29521  0.31424  0.36214  1.0000
  C   C109      1.0  0.32267  0.32332  0.35950  1.0000
  C   C110      1.0  0.33211  0.33074  0.34592  1.0000
  C   C111      1.0  0.31426  0.32972  0.33478  1.0000
  C   C112      1.0  0.28687  0.32103  0.33746  1.0000
  C   C113      1.0  0.27736  0.31309  0.35097  1.0000
  H   H100      1.0  0.33674  0.32440  0.36803  1.0000
  H   H101      1.0  0.35321  0.33735  0.34411  1.0000
  H   H102      1.0  0.27281  0.32028  0.32899  1.0000
  H   H103      1.0  0.25624  0.30646  0.35278  1.0000
  C   C114      1.0  0.06527  0.25269  0.40460  1.0000
  C   C115      1.0  0.07475  0.27333  0.39517  1.0000
  C   C116      1.0  0.10064  0.28107  0.39001  1.0000
  C   C117      1.0  0.11728  0.26815  0.39407  1.0000
  C   C118      1.0  0.10748  0.24695  0.40316  1.0000
  C   C119      1.0  0.08173  0.23945  0.40846  1.0000
  H   H104      1.0  0.06246  0.28383  0.39216  1.0000
  H   H105      1.0  0.10799  0.29747  0.38298  1.0000
  H   H106      1.0  0.11996  0.23679  0.40637  1.0000
  H   H107      1.0  0.07462  0.22347  0.41574  1.0000
  C   C120      1.0  0.45071  0.29480  0.27927  1.0000
  S   S62       1.0  0.98058  0.27808  0.41794  1.0000
  H   H108      1.0  0.38421  0.38529  0.24574  1.0000
  C   C121      1.0  0.38325  0.09220  0.23902  1.0000
  H   H109      1.0  0.45621  0.31547  0.28294  1.0000
  H   H110      1.0  0.13804  0.31929  0.41614  1.0000
  H   H111      1.0  0.39895  0.13283  0.24762  1.0000
  H   H112      1.0  0.46725  0.09026  0.29408  1.0000
  C   C122      1.0  0.21227  0.23797  0.46772  1.0000
  C   C123      1.0  0.21696  0.25444  0.45609  1.0000
  C   C124      1.0  0.22131  0.28137  0.45844  1.0000
  C   C125      1.0  0.22132  0.29168  0.47225  1.0000
  H   H113      1.0  0.20885  0.21711  0.46608  1.0000
  H   H114      1.0  0.22534  0.29446  0.44970  1.0000
  C   C126      1.0  0.22261  0.01183  0.45993  1.0000
  C   C127      1.0  0.22330  0.03752  0.46238  1.0000
  N   N8        1.0  0.43100  0.28315  0.26891  1.0000
  H   H115      1.0  0.22370  0.04974  0.45356  1.0000
  H   H116      1.0  0.33165  0.38884  0.30314  1.0000
  N   N9        1.0  0.22810  0.16672  0.42957  1.0000
  C   C128      1.0  0.23096  0.14293  0.42863  1.0000
  C   C129      1.0  0.23924  0.18585  0.41998  1.0000
  C   C130      1.0  0.24507  0.13773  0.41776  1.0000
  C   C131      1.0  0.25317  0.18118  0.40887  1.0000
  C   C132      1.0  0.25605  0.15693  0.40777  1.0000
  C   C133      1.0  0.21279  0.17203  0.44072  1.0000
  H   H117      1.0  0.22155  0.12737  0.43596  1.0000
  H   H118      1.0  0.23677  0.20459  0.42076  1.0000
  H   H119      1.0  0.24648  0.11847  0.41676  1.0000
  H   H120      1.0  0.26099  0.19598  0.40096  1.0000
  H   H121      1.0  0.26616  0.15270  0.39900  1.0000
  H   H122      1.0  0.20337  0.15446  0.44731  1.0000
  H   H123      1.0  0.22613  0.18952  0.44761  1.0000
  H   H124      1.0  0.19655  0.17699  0.43598  1.0000
  C   C134      1.0  0.15912  0.99298  0.47149  1.0000
  H   H125      1.0  0.35460  0.39009  0.35313  1.0000
  H   H126      1.0  0.34449  0.14099  0.26464  1.0000
  C   C135      1.0  0.16469  0.30157  0.42333  1.0000
  C   C136      1.0  0.43464  0.24099  0.27135  1.0000
  H   H127      1.0  0.42731  0.21964  0.26866  1.0000
  C   C137      1.0  0.34051  0.13354  0.25372  1.0000
  H   H128      1.0  0.35226  0.42292  0.29915  1.0000
  H   H129      1.0  0.13217  0.07068  0.39293  1.0000
  N   N10       1.0  0.37799  0.05809  0.34337  1.0000
  H   H130      1.0  0.40619  0.24697  0.25731  1.0000
  H   H131      1.0  0.18588  0.27906  0.43162  1.0000
  C   C138      1.0  0.39365  0.12010  0.23809  1.0000
  C   C139      1.0  0.37985  0.08092  0.35059  1.0000
  C   C140      1.0  0.22436  0.04775  0.47630  1.0000
  N   N11       1.0  0.35863  0.41143  0.31989  1.0000
  C   C141      1.0  0.34746  0.39997  0.33200  1.0000
  C   C142      1.0  0.38590  0.42314  0.31907  1.0000
  C   C143      1.0  0.40270  0.42349  0.33058  1.0000
  C   C144      1.0  0.39147  0.41165  0.34293  1.0000
  C   C145      1.0  0.34107  0.40988  0.30758  1.0000
  H   H132      1.0  0.39489  0.43189  0.30941  1.0000
  H   H133      1.0  0.42431  0.43235  0.32973  1.0000
  C   C146      1.0  0.41886  0.08329  0.33213  1.0000
  H   H134      1.0  0.43384  0.08416  0.32471  1.0000
  N   N12       1.0  0.28006  0.25209  0.34722  1.0000
  C   C147      1.0  0.27690  0.25617  0.33327  1.0000
  C   C148      1.0  0.30481  0.25631  0.35299  1.0000
  C   C149      1.0  0.29901  0.26541  0.32478  1.0000
  C   C150      1.0  0.32731  0.26533  0.34477  1.0000
  C   C151      1.0  0.32435  0.27001  0.33060  1.0000
  C   C152      1.0  0.25663  0.24225  0.35592  1.0000
  H   H135      1.0  0.25732  0.25294  0.32870  1.0000
  H   H136      1.0  0.30733  0.25327  0.36407  1.0000
  H   H137      1.0  0.29666  0.26966  0.31386  1.0000
  H   H138      1.0  0.34700  0.26915  0.34942  1.0000
  H   H139      1.0  0.34172  0.27760  0.32417  1.0000
  H   H140      1.0  0.24171  0.25021  0.35253  1.0000
  H   H141      1.0  0.24694  0.21994  0.35524  1.0000
  H   H142      1.0  0.26232  0.24908  0.36716  1.0000
  C   C153      1.0  0.14970  0.24507  0.44759  1.0000
  N   N13       1.0  0.32529  0.09651  0.23660  1.0000
  H   H143      1.0  0.13010  0.22894  0.44991  1.0000
  H   H144      1.0  0.16112  0.23529  0.44194  1.0000
  C   C154      1.0  0.35566  0.03226  0.34546  1.0000
  S   S63       1.0  0.46712  0.13507  0.31208  1.0000
  C   C155      1.0  0.42270  0.25653  0.26502  1.0000
  C   C156      1.0  0.38325  0.34770  0.23757  1.0000
  C   C157      1.0  0.40127  0.10553  0.34869  1.0000
  H   H145      1.0  0.34478  0.02353  0.33519  1.0000
  C   C158      1.0  0.22232  0.99631  0.47156  1.0000
  C   C159      1.0  0.13254  0.05845  0.38380  1.0000
  H   H146      1.0  0.32563  0.09206  0.25880  1.0000
  H   H147      1.0  0.40238  0.12369  0.35418  1.0000
  Fe  Fe32      1.0  0.17174  0.99251  0.39701  1.0000
  H   H148      1.0  0.43758  0.12561  0.33776  1.0000
  H   H149      1.0  0.11424  0.99880  0.39837  1.0000
  C   C160      1.0  0.14296  0.07103  0.37142  1.0000
  S   S64       1.0  0.22192  0.99815  0.44262  1.0000
  C   C161      1.0  0.21214  0.24825  0.48151  1.0000
  C   C162      1.0  0.11963  0.28855  0.43086  1.0000
  C   C163      1.0  0.42096  0.10662  0.33947  1.0000
  H   H150      1.0  0.40428  0.41126  0.35181  1.0000
  N   N14       1.0  0.14636  0.26551  0.43901  1.0000
  C   C164      1.0  0.16726  0.28174  0.43151  1.0000
  C   C165      1.0  0.39702  0.05908  0.33415  1.0000
  H   H151      1.0  0.32583  0.38989  0.33249  1.0000
  C   C166      1.0  0.12284  0.26887  0.43890  1.0000
  H   H152      1.0  0.10613  0.25591  0.44473  1.0000
  C   C167      1.0  0.36366  0.39987  0.34369  1.0000
  H   H153      1.0  0.16092  0.25454  0.45768  1.0000
  H   H154      1.0  0.18081  0.31365  0.41687  1.0000
  C   C168      1.0  0.45502  0.25281  0.28178  1.0000
  H   H155      1.0  0.40850  0.29095  0.25202  1.0000
  H   H156      1.0  0.22517  0.31265  0.47396  1.0000
  H   H157      1.0  0.10052  0.29030  0.43022  1.0000
  H   H158      1.0  0.13445  0.01528  0.35136  1.0000
  C   C169      1.0  0.11291  0.01855  0.39766  1.0000
  C   C170      1.0  0.13383  0.02763  0.36038  1.0000
  Fe  Fe33      1.0  0.99407  0.24709  0.40855  1.0000
  H   H159      1.0  0.15240  0.06505  0.35012  1.0000
  H   H160      1.0  0.39518  0.04113  0.32817  1.0000
  H   H161      1.0  0.32499  0.41624  0.31059  1.0000
  C   C171      1.0  0.14388  0.05550  0.35970  1.0000
  H   H162      1.0  0.40071  0.29796  0.26952  1.0000
  C   C172      1.0  0.46314  0.27989  0.28579  1.0000
  H   H163      1.0  0.16421  0.00854  0.46389  1.0000
  H   H164      1.0  0.15061  0.09273  0.37101  1.0000
  N   N15       1.0  0.12346  0.03119  0.38451  1.0000
  H   H165      1.0  0.46371  0.24072  0.28715  1.0000
  C   C173      1.0  0.12330  0.01571  0.37289  1.0000
  H   H166      1.0  0.35532  0.17295  0.24546  1.0000
  H   H167      1.0  0.34075  0.03451  0.35248  1.0000
  H   H168      1.0  0.32192  0.05721  0.24094  1.0000
  C   C174      1.0  0.38450  0.37370  0.23637  1.0000
  C   C175      1.0  0.41720  0.29872  0.26280  1.0000
  S   S65       1.0  0.21315  0.99312  0.40067  1.0000
  H   H169      1.0  0.43110  0.32012  0.26193  1.0000
  H   H170      1.0  0.22564  0.06792  0.47807  1.0000
  H   H171      1.0  0.99248  0.34912  0.43970  1.0000
  H   H172      1.0  0.11549  0.99404  0.37331  1.0000
  H   H173      1.0  0.09162  0.01544  0.39829  1.0000
  H   H174      1.0  0.12480  0.03126  0.40692  1.0000
  H   H175      1.0  0.36320  0.01812  0.35016  1.0000
  H   H176      1.0  0.47802  0.28898  0.29437  1.0000
  H   H177      1.0  0.97908  0.33232  0.40803  1.0000
  H   H178      1.0  0.29155  0.05924  0.23400  1.0000
  Fe  Fe34      1.0  0.21218  0.02647  0.52599  1.0000
  S   S66       1.0  0.17197  0.02634  0.52987  1.0000
  S   S67       1.0  0.22627  0.04663  0.50523  1.0000
  H   H179      1.0  0.15724  0.47242  0.64639  1.0000
  H   H180      1.0  0.20872  0.23538  0.49033  1.0000
  H   H181      1.0  0.05899  0.30018  0.55064  1.0000
  Fe  Fe35      1.0  0.18945  0.04363  0.55141  1.0000
  S   S68       1.0  0.17882  0.07787  0.55935  1.0000
  S   S69       1.0  0.23050  0.04535  0.54750  1.0000
  Fe  Fe36      1.0  0.21503  0.23140  0.54402  1.0000
  S   S70       1.0  0.24147  0.27422  0.53936  1.0000
  S   S71       1.0  0.23492  0.20182  0.54551  1.0000
  Fe  Fe37      1.0  0.16521  0.24289  0.54264  1.0000
  S   S72       1.0  0.18803  0.28626  0.53808  1.0000
  S   S73       1.0  0.12000  0.22087  0.53991  1.0000
  Fe  Fe38      1.0  0.20979  0.27095  0.52273  1.0000
  S   S74       1.0  0.21796  0.28972  0.50113  1.0000
  Fe  Fe39      1.0  0.21808  0.28650  0.55518  1.0000
  S   S75       1.0  0.24175  0.32489  0.56947  1.0000
  S   S76       1.0  0.18526  0.22762  0.52636  1.0000
  S   S77       1.0  0.19342  0.24359  0.56081  1.0000
  Fe  Fe40      1.0  0.29681  0.42059  0.64362  1.0000
  S   S78       1.0  0.30935  0.46044  0.63350  1.0000
  S   S79       1.0  0.27773  0.37824  0.63243  1.0000
  Fe  Fe41      1.0  0.30062  0.44774  0.67406  1.0000
  C   C176      1.0  0.27850  0.25543  0.56631  1.0000
  S   S80       1.0  0.28641  0.44465  0.69671  1.0000
  Fe  Fe42      1.0  0.28120  0.46791  0.64810  1.0000
  S   S81       1.0  0.98349  0.28050  0.51271  1.0000
  H   H182      1.0  0.20549  0.08464  0.52721  1.0000
  H   H183      1.0  0.20993  0.35967  0.60276  1.0000
  S   S82       1.0  0.26760  0.42777  0.65742  1.0000
  S   S83       1.0  0.32927  0.43693  0.66129  1.0000
  H   H184      1.0  0.18912  0.47502  0.70996  1.0000
  S   S84       1.0  0.03472  0.45004  0.65618  1.0000
  Fe  Fe43      1.0  0.10248  0.44451  0.66393  1.0000
  S   S85       1.0  0.06292  0.40896  0.66436  1.0000
  S   S86       1.0  0.13931  0.43748  0.67025  1.0000
  Fe  Fe44      1.0  0.05149  0.42394  0.64435  1.0000
  S   S87       1.0  0.04045  0.39913  0.62308  1.0000
  Fe  Fe45      1.0  0.04980  0.43759  0.67621  1.0000
  S   S88       1.0  0.02677  0.42861  0.69645  1.0000
  S   S89       1.0  0.09228  0.45814  0.64350  1.0000
  C   C177      1.0  0.33160  0.98862  0.60801  1.0000
  Fe  Fe46      1.0  0.99698  0.24911  0.55981  1.0000
  S   S90       1.0  0.99647  0.28801  0.55332  1.0000
  S   S91       1.0  0.03720  0.25609  0.57038  1.0000
  C   C178      1.0  0.04039  0.42412  0.71299  1.0000
  C   C179      1.0  0.02502  0.42009  0.72498  1.0000
  H   H185      1.0  0.34981  0.42835  0.72958  1.0000
  C   C180      1.0  0.06639  0.42526  0.71453  1.0000
  C   C181      1.0  0.02850  0.46083  0.62094  1.0000
  H   H186      1.0  0.07841  0.42815  0.70542  1.0000
  C   C182      1.0  0.01582  0.37302  0.61194  1.0000
  C   C183      1.0  0.22267  0.00629  0.48547  1.0000
  C   C184      1.0  0.00567  0.34252  0.59086  1.0000
  C   C185      1.0  0.02409  0.36359  0.59981  1.0000
  H   H187      1.0  0.01249  0.33552  0.58165  1.0000
  H   H188      1.0  0.04497  0.37255  0.59733  1.0000
  C   C186      1.0  0.30270  0.44553  0.71339  1.0000
  C   C187      1.0  0.29179  0.45138  0.72558  1.0000
  C   C188      1.0  0.32418  0.43792  0.71494  1.0000
  H   H189      1.0  0.00482  0.41899  0.72391  1.0000
  H   H190      1.0  0.33275  0.43325  0.70569  1.0000
  C   C189      1.0  0.31289  0.99397  0.58510  1.0000
  C   C190      1.0  0.21348  0.45041  0.65857  1.0000
  C   C191      1.0  0.18869  0.44014  0.66479  1.0000
  C   C192      1.0  0.16841  0.44820  0.66056  1.0000
  C   C193      1.0  0.17276  0.46597  0.64966  1.0000
  H   H191      1.0  0.29209  0.32024  0.57419  1.0000
  H   H192      1.0  0.22922  0.44519  0.66260  1.0000
  H   H193      1.0  0.18551  0.42651  0.67325  1.0000
  H   H194      1.0  0.22848  0.10968  0.51695  1.0000
  H   H195      1.0  0.29279  0.24040  0.54857  1.0000
  N   N16       1.0  0.26171  0.38295  0.72499  1.0000
  C   C194      1.0  0.98441  0.27760  0.48370  1.0000
  N   N17       1.0  0.20903  0.48474  0.69075  1.0000
  H   H196      1.0  0.22680  0.39000  0.58325  1.0000
  C   C195      1.0  0.09729  0.23021  0.54897  1.0000
  C   C196      1.0  0.06986  0.21748  0.54500  1.0000
  C   C197      1.0  0.05124  0.22546  0.55134  1.0000
  C   C198      1.0  0.05988  0.24561  0.56206  1.0000
  C   C199      1.0  0.08721  0.25791  0.56628  1.0000
  C   C200      1.0  0.10596  0.25052  0.55961  1.0000
  H   H197      1.0  0.06305  0.20166  0.53680  1.0000
  H   H198      1.0  0.03020  0.21574  0.54810  1.0000
  H   H199      1.0  0.09396  0.27339  0.57464  1.0000
  H   H200      1.0  0.12703  0.26032  0.56277  1.0000
  C   C201      1.0  0.25138  0.33923  0.58712  1.0000
  C   C202      1.0  0.24186  0.32452  0.59908  1.0000
  C   C203      1.0  0.25047  0.33672  0.61275  1.0000
  C   C204      1.0  0.26829  0.36397  0.61478  1.0000
  C   C205      1.0  0.27763  0.37875  0.60282  1.0000
  C   C206      1.0  0.26936  0.36642  0.58915  1.0000
  H   H201      1.0  0.22783  0.30373  0.59784  1.0000
  H   H202      1.0  0.24310  0.32495  0.62185  1.0000
  H   H203      1.0  0.29141  0.39965  0.60411  1.0000
  H   H204      1.0  0.27699  0.37813  0.58005  1.0000
  H   H205      1.0  0.21029  0.35301  0.62738  1.0000
  C   C207      1.0  0.19570  0.11271  0.55644  1.0000
  C   C208      1.0  0.22144  0.12371  0.55130  1.0000
  C   C209      1.0  0.23339  0.15116  0.54834  1.0000
  C   C210      1.0  0.21968  0.16786  0.55035  1.0000
  C   C211      1.0  0.19419  0.15701  0.55577  1.0000
  C   C212      1.0  0.18240  0.12965  0.55891  1.0000
  H   H206      1.0  0.23214  0.11108  0.54960  1.0000
  H   H207      1.0  0.25323  0.15939  0.54429  1.0000
  H   H208      1.0  0.18345  0.16962  0.55748  1.0000
  H   H209      1.0  0.16259  0.12141  0.56302  1.0000
  H   H210      1.0  0.05436  0.29939  0.59702  1.0000
  H   H211      1.0  0.03156  0.48026  0.71979  1.0000
  H   H212      1.0  0.19600  0.17671  0.51668  1.0000
  C   C213      1.0  0.30814  0.28369  0.54959  1.0000
  H   H213      1.0  0.24862  0.01652  0.59314  1.0000
  H   H214      1.0  0.22544  0.38086  0.63958  1.0000
  N   N18       1.0  0.19135  0.11337  0.52004  1.0000
  C   C214      1.0  0.20174  0.13978  0.51669  1.0000
  C   C215      1.0  0.16628  0.10179  0.52514  1.0000
  C   C216      1.0  0.18717  0.15547  0.51873  1.0000
  C   C217      1.0  0.15112  0.11689  0.52726  1.0000
  C   C218      1.0  0.16173  0.14393  0.52408  1.0000
  H   H215      1.0  0.33062  0.00577  0.57910  1.0000
  H   H216      1.0  0.22179  0.14915  0.51290  1.0000
  H   H217      1.0  0.16131  0.02024  0.48894  1.0000
  H   H218      1.0  0.09675  0.42284  0.72887  1.0000
  S   S92       1.0  0.17463  0.00258  0.56077  1.0000
  H   H219      1.0  0.15061  0.15615  0.52614  1.0000
  C   C219      1.0  0.07677  0.42233  0.72787  1.0000
  C   C220      1.0  0.29344  0.25814  0.55435  1.0000
  H   H220      1.0  0.13172  0.10789  0.53184  1.0000
  S   S93       1.0  0.09014  0.47210  0.67699  1.0000
  C   C221      1.0  0.15742  0.99974  0.48563  1.0000
  C   C222      1.0  0.20682  0.09711  0.51799  1.0000
  H   H221      1.0  0.26807  0.01466  0.61692  1.0000
  H   H222      1.0  0.31858  0.32609  0.55304  1.0000
  C   C223      1.0  0.24197  0.43629  0.61052  1.0000
  H   H223      1.0  0.15835  0.08105  0.52816  1.0000
  C   C224      1.0  0.22814  0.39830  0.59391  1.0000
  C   C225      1.0  0.21865  0.38120  0.60502  1.0000
  H   H224      1.0  0.33436  0.00888  0.61120  1.0000
  H   H225      1.0  0.16814  0.47617  0.69518  1.0000
  Fe  Fe47      1.0  0.21475  0.00296  0.55556  1.0000
  N   N19       1.0  0.22128  0.39144  0.61857  1.0000
  C   C226      1.0  0.23225  0.41860  0.62136  1.0000
  C   C227      1.0  0.21139  0.37338  0.63015  1.0000
  H   H226      1.0  0.01732  0.34454  0.63841  1.0000
  H   H227      1.0  0.23370  0.42674  0.63203  1.0000
  N   N20       1.0  0.06806  0.28290  0.53229  1.0000
  C   C228      1.0  0.04292  0.27360  0.52593  1.0000
  C   C229      1.0  0.08620  0.27324  0.52791  1.0000
  C   C230      1.0  0.03506  0.25349  0.51518  1.0000
  C   C231      1.0  0.07898  0.25300  0.51724  1.0000
  C   C232      1.0  0.05318  0.24301  0.51089  1.0000
  C   C233      1.0  0.07573  0.30407  0.54348  1.0000
  H   H228      1.0  0.02873  0.28162  0.52921  1.0000
  H   H229      1.0  0.10614  0.28047  0.53295  1.0000
  H   H230      1.0  0.17749  0.44852  0.69618  1.0000
  H   H231      1.0  0.98183  0.36802  0.62415  1.0000
  C   C234      1.0  0.26183  0.99734  0.60965  1.0000
  H   H232      1.0  0.25106  0.45782  0.61288  1.0000
  H   H233      1.0  0.09313  0.30472  0.55013  1.0000
  H   H234      1.0  0.08080  0.32385  0.53882  1.0000
  H   H235      1.0  0.26644  0.23539  0.56964  1.0000
  C   C235      1.0  0.29276  0.30272  0.56880  1.0000
  C   C236      1.0  0.98867  0.36111  0.61492  1.0000
  C   C237      1.0  0.01215  0.28355  0.60031  1.0000
  H   H236      1.0  0.24219  0.27443  0.58192  1.0000
  H   H237      1.0  0.06226  0.45539  0.61273  1.0000
  H   H238      1.0  0.29167  0.38004  0.71209  1.0000
  H   H239      1.0  0.26687  0.38762  0.70289  1.0000
  C   C238      1.0  0.21819  0.46842  0.64781  1.0000
  H   H240      1.0  0.27517  0.45726  0.72455  1.0000
  H   H241      1.0  0.01495  0.24612  0.51029  1.0000
  H   H242      1.0  0.19131  0.37199  0.63291  1.0000
  C   C239      1.0  0.19762  0.47598  0.64326  1.0000
  C   C240      1.0  0.04548  0.31782  0.61556  1.0000
  H   H243      1.0  0.27153  0.29104  0.59356  1.0000
  H   H244      1.0  0.24786  0.43952  0.58825  1.0000
  H   H245      1.0  0.25792  0.25524  0.59071  1.0000
  C   C241      1.0  0.22404  0.03224  0.48793  1.0000
  H   H246      1.0  0.31922  0.28599  0.54011  1.0000
  C   C242      1.0  0.26172  0.27435  0.58552  1.0000
  H   H247      1.0  0.23298  0.39526  0.71536  1.0000
  C   C243      1.0  0.30781  0.30617  0.55684  1.0000
  N   N21       1.0  0.02582  0.31892  0.62378  1.0000
  C   C244      1.0  0.33376  0.43507  0.72852  1.0000
  H   H248      1.0  0.00683  0.27014  0.59101  1.0000
  H   H249      1.0  0.19906  0.08364  0.50840  1.0000
  N   N22       1.0  0.27851  0.27759  0.57343  1.0000
  H   H250      1.0  0.22267  0.99420  0.49429  1.0000
  H   H251      1.0  0.09314  0.24465  0.51426  1.0000
  C   C245      1.0  0.18485  0.47053  0.69845  1.0000
  H   H252      1.0  0.25824  0.35399  0.70879  1.0000
  C   C246      1.0  0.24006  0.42602  0.59673  1.0000
  H   H253      1.0  0.06632  0.33087  0.61807  1.0000
  C   C247      1.0  0.03893  0.30016  0.60369  1.0000
  H   H254      1.0  0.30591  0.00798  0.59067  1.0000
  C   C248      1.0  0.24195  0.39230  0.72515  1.0000
  Fe  Fe48      1.0  0.34019  0.47764  0.65176  1.0000
  Fe  Fe49      1.0  0.07629  0.48313  0.65651  1.0000
  H   H255      1.0  0.01657  0.43944  0.62163  1.0000
  C   C249      1.0  0.25069  0.99845  0.59614  1.0000
  H   H256      1.0  0.00423  0.29356  0.48524  1.0000
  C   C250      1.0  0.26993  0.37567  0.71154  1.0000
  H   H257      1.0  0.04719  0.22710  0.50273  1.0000
  H   H258      1.0  0.03589  0.32651  0.64571  1.0000
  C   C251      1.0  0.99228  0.28456  0.60881  1.0000
  C   C252      1.0  0.03307  0.33704  0.63639  1.0000
  C   C253      1.0  0.99952  0.30238  0.62063  1.0000
  H   H259      1.0  0.98388  0.30345  0.62701  1.0000
  H   H260      1.0  0.05180  0.35520  0.63505  1.0000
  H   H261      1.0  0.23131  0.46583  0.70136  1.0000
  S   S94       1.0  0.25007  0.48287  0.64061  1.0000
  C   C254      1.0  0.03973  0.48310  0.73059  1.0000
  C   C255      1.0  0.05419  0.46981  0.61591  1.0000
  H   H262      1.0  0.07667  0.48169  0.72473  1.0000
  C   C256      1.0  0.01855  0.47946  0.62541  1.0000
  H   H263      1.0  0.99883  0.47266  0.62965  1.0000
  C   C257      1.0  0.23139  0.47994  0.69354  1.0000
  C   C258      1.0  0.21690  0.27529  0.48390  1.0000
  C   C259      1.0  0.06528  0.48379  0.73346  1.0000
  Fe  Fe50      1.0  0.18823  0.04073  0.90500  1.0000
  S   S95       1.0  0.22451  0.03225  0.91043  1.0000
  S   S96       1.0  0.18545  0.08009  0.91201  1.0000
  C   C260      1.0  0.24562  0.39589  0.75058  1.0000
  H   H264      1.0  0.99578  0.44678  0.80879  1.0000
  C   C261      1.0  0.30160  0.44889  0.73914  1.0000
  H   H265      1.0  0.23205  0.46719  0.80890  1.0000
  S   S97       1.0  0.17914  0.01706  0.88426  1.0000
  S   S98       1.0  0.16018  0.00544  0.91642  1.0000
  Fe  Fe51      1.0  0.19978  0.22604  0.89299  1.0000
  S   S99       1.0  0.23922  0.26000  0.89986  1.0000
  S   S100      1.0  0.20091  0.18853  0.88215  1.0000
  Fe  Fe52      1.0  0.16776  0.25606  0.90425  1.0000
  S   S101      1.0  0.20513  0.29135  0.91206  1.0000
  S   S102      1.0  0.13102  0.26203  0.91075  1.0000
  Fe  Fe53      1.0  0.22160  0.28776  0.89093  1.0000
  S   S103      1.0  0.24319  0.32880  0.88067  1.0000
  Fe  Fe54      1.0  0.21902  0.26070  0.92013  1.0000
  S   S104      1.0  0.23916  0.25866  0.94135  1.0000
  S   S105      1.0  0.18321  0.25374  0.88280  1.0000
  S   S106      1.0  0.18079  0.22560  0.91359  1.0000
  Fe  Fe55      1.0  0.31633  0.44014  0.77837  1.0000
  S   S107      1.0  0.24262  0.00877  0.87269  1.0000
  S   S108      1.0  0.33297  0.43345  0.75751  1.0000
  Fe  Fe56      1.0  0.29757  0.42097  0.80866  1.0000
  S   S109      1.0  0.28741  0.45665  0.81279  1.0000
  S   S110      1.0  0.28290  0.38198  0.82111  1.0000
  Fe  Fe57      1.0  0.26924  0.44839  0.79067  1.0000
  S   S111      1.0  0.22820  0.44083  0.78124  1.0000
  C   C262      1.0  0.99316  0.41269  0.84401  1.0000
  S   S112      1.0  0.27776  0.41207  0.78683  1.0000
  S   S113      1.0  0.33802  0.44596  0.79972  1.0000
  Fe  Fe58      1.0  0.05312  0.45898  0.79908  1.0000
  S   S114      1.0  0.02861  0.41766  0.78913  1.0000
  Fe  Fe59      1.0  0.09914  0.44331  0.80718  1.0000
  S   S115      1.0  0.07838  0.40176  0.79735  1.0000
  S   S116      1.0  0.14066  0.45749  0.81768  1.0000
  Fe  Fe60      1.0  0.06677  0.42161  0.77928  1.0000
  S   S117      1.0  0.07616  0.41553  0.75643  1.0000
  Fe  Fe61      1.0  0.04209  0.40128  0.80824  1.0000
  S   S118      1.0  0.01392  0.36259  0.81860  1.0000
  N   N23       1.0  0.00603  0.45263  0.83086  1.0000
  S   S119      1.0  0.06348  0.44244  0.81889  1.0000
  H   H266      1.0  0.23203  0.35507  0.90615  1.0000
  S   S120      1.0  0.00075  0.26530  0.90358  1.0000
  S   S121      1.0  0.01294  0.20898  0.88330  1.0000
  H   H267      1.0  0.01556  0.45262  0.85282  1.0000
  C   C263      1.0  0.19203  0.46408  0.81249  1.0000
  S   S122      1.0  0.09056  0.46327  0.78856  1.0000
  H   H268      1.0  0.39011  0.47579  0.76291  1.0000
  C   C264      1.0  0.00885  0.34936  0.83589  1.0000
  C   C265      1.0  0.02051  0.36518  0.84820  1.0000
  C   C266      1.0  0.01409  0.35428  0.86162  1.0000
  H   H269      1.0  0.03412  0.38596  0.84739  1.0000
  H   H270      1.0  0.02288  0.36696  0.87100  1.0000
  C   C267      1.0  0.23372  0.39906  0.73794  1.0000
  C   C268      1.0  0.20461  0.44689  0.79134  1.0000
  C   C269      1.0  0.17808  0.43788  0.78590  1.0000
  C   C270      1.0  0.15849  0.44162  0.79379  1.0000
  C   C271      1.0  0.16537  0.45460  0.80714  1.0000
  H   H271      1.0  0.22398  0.05728  0.97643  1.0000
  C   C272      1.0  0.21160  0.46004  0.80466  1.0000
  C   C273      1.0  0.20621  0.28385  0.97372  1.0000
  H   H272      1.0  0.13802  0.43430  0.78955  1.0000
  H   H273      1.0  0.25933  0.32079  0.94863  1.0000
  Fe  Fe62      1.0  0.19575  0.99592  0.92096  1.0000
  C   C274      1.0  0.22865  0.26408  0.95826  1.0000
  C   C275      1.0  0.21209  0.27776  0.96006  1.0000
  C   C276      1.0  0.98527  0.31124  0.85073  1.0000
  C   C277      1.0  0.23851  0.25584  0.97028  1.0000
  H   H274      1.0  0.20441  0.28432  0.95094  1.0000
  H   H275      1.0  0.25151  0.24544  0.96905  1.0000
  C   C278      1.0  0.09794  0.24378  0.90388  1.0000
  C   C279      1.0  0.09186  0.22629  0.89196  1.0000
  C   C280      1.0  0.06546  0.21482  0.88594  1.0000
  C   C281      1.0  0.04510  0.22065  0.89189  1.0000
  C   C282      1.0  0.05107  0.23697  0.90421  1.0000
  C   C283      1.0  0.07735  0.24863  0.91010  1.0000
  H   H276      1.0  0.10760  0.22230  0.88714  1.0000
  H   H277      1.0  0.06094  0.20192  0.87649  1.0000
  H   H278      1.0  0.03549  0.24077  0.90922  1.0000
  H   H279      1.0  0.08183  0.26185  0.91943  1.0000
  C   C284      1.0  0.25319  0.34293  0.86382  1.0000
  C   C285      1.0  0.25212  0.32730  0.85167  1.0000
  C   C286      1.0  0.26122  0.33961  0.83881  1.0000
  C   C287      1.0  0.27135  0.36772  0.83774  1.0000
  C   C288      1.0  0.27204  0.38334  0.84985  1.0000
  C   C289      1.0  0.26320  0.37106  0.86275  1.0000
  H   H280      1.0  0.24462  0.30572  0.85220  1.0000
  H   H281      1.0  0.26054  0.32717  0.82961  1.0000
  H   H282      1.0  0.27987  0.40494  0.84935  1.0000
  H   H283      1.0  0.26427  0.38352  0.87199  1.0000
  H   H284      1.0  0.26462  0.37751  0.90121  1.0000
  C   C290      1.0  0.28110  0.34278  0.91124  1.0000
  H   H285      1.0  0.23805  0.14471  0.93582  1.0000
  C   C291      1.0  0.11102  0.99977  0.93877  1.0000
  C   C292      1.0  0.14075  0.99447  0.95660  1.0000
  C   C293      1.0  0.12972  0.01054  0.95014  1.0000
  H   H286      1.0  0.98599  0.22851  0.97005  1.0000
  H   H287      1.0  0.27520  0.38370  0.75999  1.0000
  Fe  Fe63      1.0  0.32668  0.48116  0.80262  1.0000
  S   S123      1.0  0.30671  0.47597  0.78097  1.0000
  C   C294      1.0  0.21236  0.02354  0.96142  1.0000
  H   H288      1.0  0.29033  0.30483  0.93693  1.0000
  C   C295      1.0  0.18727  0.10876  0.90288  1.0000
  C   C296      1.0  0.19496  0.11276  0.88895  1.0000
  C   C297      1.0  0.19835  0.13698  0.88263  1.0000
  C   C298      1.0  0.19405  0.15743  0.89012  1.0000
  C   C299      1.0  0.18582  0.15314  0.90394  1.0000
  C   C300      1.0  0.18251  0.12900  0.91026  1.0000
  H   H289      1.0  0.19867  0.09739  0.88312  1.0000
  H   H290      1.0  0.20462  0.14003  0.87192  1.0000
  H   H291      1.0  0.18231  0.16857  0.90982  1.0000
  H   H292      1.0  0.17648  0.12612  0.92101  1.0000
  H   H293      1.0  0.14425  0.23913  0.97337  1.0000
  H   H294      1.0  0.27584  0.01584  0.84903  1.0000
  Fe  Fe64      1.0  0.21348  0.00582  0.89022  1.0000
  N   N24       1.0  0.04642  0.28034  0.87161  1.0000
  C   C301      1.0  0.05228  0.30033  0.88185  1.0000
  C   C302      1.0  0.06465  0.26984  0.86869  1.0000
  C   C303      1.0  0.07647  0.30942  0.88992  1.0000
  C   C304      1.0  0.08931  0.27898  0.87631  1.0000
  C   C305      1.0  0.09502  0.29854  0.88715  1.0000
  C   C306      1.0  0.02093  0.27071  0.86331  1.0000
  H   H295      1.0  0.03801  0.30898  0.88403  1.0000
  H   H296      1.0  0.05984  0.25373  0.86071  1.0000
  H   H297      1.0  0.08059  0.32453  0.89838  1.0000
  H   H298      1.0  0.10347  0.27015  0.87422  1.0000
  H   H299      1.0  0.11355  0.30473  0.89357  1.0000
  H   H300      1.0  0.02392  0.28022  0.85297  1.0000
  H   H301      1.0  0.01246  0.24848  0.86166  1.0000
  H   H302      1.0  0.00575  0.27558  0.86880  1.0000
  N   N25       1.0  0.20492  0.39081  0.81460  1.0000
  C   C307      1.0  0.22182  0.40279  0.82608  1.0000
  C   C308      1.0  0.18035  0.39185  0.81330  1.0000
  C   C309      1.0  0.21407  0.41594  0.83675  1.0000
  C   C310      1.0  0.17180  0.40448  0.82387  1.0000
  C   C311      1.0  0.18888  0.41675  0.83561  1.0000
  C   C312      1.0  0.21335  0.37755  0.80331  1.0000
  H   H303      1.0  0.24151  0.40237  0.82701  1.0000
  H   H304      1.0  0.22766  0.42564  0.84576  1.0000
  H   H305      1.0  0.18273  0.42737  0.84363  1.0000
  H   H306      1.0  0.21785  0.39009  0.79396  1.0000
  H   H307      1.0  0.23158  0.37441  0.80658  1.0000
  H   H308      1.0  0.19728  0.35751  0.80034  1.0000
  C   C313      1.0  0.32226  0.44012  0.74070  1.0000
  C   C314      1.0  0.99638  0.32724  0.86304  1.0000
  C   C315      1.0  0.26534  0.38580  0.75029  1.0000
  C   C316      1.0  0.29096  0.32600  0.91803  1.0000
  H   H309      1.0  0.19747  0.47422  0.82279  1.0000
  C   C317      1.0  0.25268  0.36801  0.91034  1.0000
  H   H310      1.0  0.99313  0.40309  0.85386  1.0000
  H   H311      1.0  0.13611  0.03138  0.95370  1.0000
  C   C318      1.0  0.27315  0.37935  0.73734  1.0000
  C   C319      1.0  0.28335  0.31834  0.93162  1.0000
  H   H312      1.0  0.23982  0.40166  0.76054  1.0000
  S   S124      1.0  0.98810  0.31504  0.88039  1.0000
  H   H313      1.0  0.30397  0.31857  0.91267  1.0000
  C   C320      1.0  0.99478  0.43737  0.81877  1.0000
  H   H314      1.0  0.19420  0.29531  0.97495  1.0000
  H   H315      1.0  0.16739  0.38335  0.80393  1.0000
  H   H316      1.0  0.25549  0.20849  0.89773  1.0000
  H   H317      1.0  0.10311  0.01261  0.93352  1.0000
  H   H318      1.0  0.23285  0.18749  0.93995  1.0000
  C   C321      1.0  0.25251  0.19501  0.90631  1.0000
  H   H319      1.0  0.26068  0.16587  0.89399  1.0000
  H   H320      1.0  0.27507  0.13178  0.91392  1.0000
  H   H321      1.0  0.15249  0.40574  0.82268  1.0000
  C   C322      1.0  0.25524  0.17076  0.90423  1.0000
  C   C323      1.0  0.24445  0.20103  0.91923  1.0000
  H   H322      1.0  0.24154  0.21941  0.92086  1.0000
  H   H323      1.0  0.28680  0.34828  0.90058  1.0000
  H   H324      1.0  0.17255  0.42778  0.77559  1.0000
  N   N26       1.0  0.26405  0.35160  0.91780  1.0000
  N   N27       1.0  0.25001  0.15298  0.91474  1.0000
  H   H325      1.0  0.24179  0.11243  0.91972  1.0000
  H   H326      1.0  0.24199  0.35008  0.93609  1.0000
  C   C324      1.0  0.24243  0.15890  0.92753  1.0000
  C   C325      1.0  0.23944  0.18297  0.92995  1.0000
  C   C326      1.0  0.25359  0.12796  0.91241  1.0000
  H   H327      1.0  0.21647  0.03577  0.95232  1.0000
  H   H328      1.0  0.02363  0.41483  0.74752  1.0000
  C   C327      1.0  0.06162  0.41879  0.73991  1.0000
  H   H329      1.0  0.29252  0.45288  0.74838  1.0000
  C   C328      1.0  0.00578  0.44063  0.84333  1.0000
  H   H330      1.0  0.15550  0.00261  0.96533  1.0000
  H   H331      1.0  0.24618  0.11916  0.90160  1.0000
  H   H332      1.0  0.25211  0.38427  0.91743  1.0000
  H   H333      1.0  0.11600  0.19253  0.97986  1.0000
  H   H334      1.0  0.21854  0.40712  0.73810  1.0000
  H   H335      1.0  0.28903  0.37224  0.73726  1.0000
  C   C329      1.0  0.21652  0.03567  0.97512  1.0000
  C   C330      1.0  0.26591  0.32733  0.93821  1.0000
  C   C331      1.0  0.26443  0.99445  0.84968  1.0000
  C   C332      1.0  0.25623  0.34389  0.93107  1.0000
  C   C333      1.0  0.03566  0.41781  0.73840  1.0000
  Fe  Fe65      1.0  0.98415  0.22494  0.89238  1.0000
  S   S125      1.0  0.98136  0.24729  0.94274  1.0000
  H   H336      1.0  0.02981  0.27759  0.97701  1.0000
  H   H337      1.0  0.10193  0.47420  0.75905  1.0000
  C   C334      1.0  0.20351  0.99567  0.95955  1.0000
  C   C335      1.0  0.99127  0.32229  0.83732  1.0000
  H   H338      1.0  0.10849  0.47755  0.74093  1.0000
  H   H339      1.0  0.22128  0.01628  0.83293  1.0000
  H   H340      1.0  0.00061  0.29904  0.97998  1.0000
  H   H341      1.0  0.19248  0.00491  0.85329  1.0000
  C   C336      1.0  0.02002  0.48186  0.83026  1.0000
  C   C337      1.0  0.98223  0.40938  0.81906  1.0000
  H   H342      1.0  0.98195  0.30977  0.82795  1.0000
  C   C338      1.0  0.20815  0.99552  0.83447  1.0000
  N   N28       1.0  0.07521  0.48587  0.74706  1.0000
  C   C339      1.0  0.98119  0.39705  0.83180  1.0000
  C   C340      1.0  0.19174  0.98896  0.84596  1.0000
  H   H343      1.0  0.00445  0.48390  0.73967  1.0000
  C   C341      1.0  0.02448  0.48489  0.74173  1.0000
  H   H344      1.0  0.23480  0.96549  0.06877  1.0000
  H   H345      1.0  0.17997  0.96873  0.09920  1.0000
  H   H346      1.0  0.03516  0.81540  0.00391  1.0000
  H   H347      1.0  0.98463  0.70989  0.02633  1.0000
  H   H348      1.0  0.98064  0.82202  0.98450  1.0000
  C   C342      1.0  0.20990  0.96911  0.08493  1.0000
  Fe  Fe66      1.0  0.99414  0.81262  0.05469  1.0000
  S   S126      1.0  0.02697  0.85185  0.06438  1.0000
  S   S127      1.0  0.99795  0.77298  0.05191  1.0000
  H   H349      1.0  0.19814  0.98000  0.99435  1.0000
  S   S128      1.0  0.13858  0.93503  0.04185  1.0000
  C   C343      1.0  0.21472  0.95740  0.07264  1.0000
  C   C344      1.0  0.16351  0.93786  0.08262  1.0000
  C   C345      1.0  0.19963  0.92407  0.05274  1.0000
  C   C346      1.0  0.05728  0.87524  0.05749  1.0000
  C   C347      1.0  0.06818  0.86920  0.04543  1.0000
  C   C348      1.0  0.09283  0.88786  0.04077  1.0000
  C   C349      1.0  0.10678  0.91304  0.04790  1.0000
  C   C350      1.0  0.09576  0.91924  0.05986  1.0000
  C   C351      1.0  0.07132  0.90039  0.06465  1.0000
  H   H350      1.0  0.05784  0.84995  0.03985  1.0000
  H   H351      1.0  0.10117  0.88270  0.03158  1.0000
  H   H352      1.0  0.10612  0.93843  0.06549  1.0000
  H   H353      1.0  0.06315  0.90534  0.07398  1.0000
  H   H354      1.0  0.20110  0.90495  0.05522  1.0000
  H   H355      1.0  0.14322  0.93028  0.08620  1.0000
  C   C352      1.0  0.16914  0.92634  0.07050  1.0000
  C   C353      1.0  0.18408  0.95939  0.08987  1.0000
  H   H356      1.0  0.15301  0.90967  0.06489  1.0000
  Fe  Fe67      1.0  0.16831  0.97930  0.04559  1.0000
  N   N29       1.0  0.19436  0.93648  0.06551  1.0000
  H   H357      1.0  0.18320  0.91990  0.04456  1.0000
  H   H358      1.0  0.21846  0.93755  0.04805  1.0000
  S   S129      1.0  0.99430  0.76024  0.01035  1.0000
  H   H359      1.0  0.99000  0.68988  0.04899  1.0000
  C   C354      1.0  0.02412  0.82753  0.00037  1.0000
  H   H360      1.0  0.03491  0.84858  0.00459  1.0000
  N   N30       1.0  0.02138  0.82668  0.98495  1.0000
  H   H361      1.0  0.97967  0.71435  0.05710  1.0000
  H   H362      1.0  0.00426  0.81869  0.00513  1.0000
  C   C355      1.0  0.98026  0.76007  0.99318  1.0000
  H   H363      1.0  0.22608  0.98596  0.09039  1.0000
  C   C356      1.0  0.99476  0.81530  0.47679  1.0000
  C   C357      1.0  0.05611  0.82727  0.44480  1.0000
  H   H364      1.0  0.06607  0.84928  0.46486  1.0000
  H   H365      1.0  0.99761  0.74761  0.43718  1.0000
  C   C358      1.0  0.05709  0.82963  0.45947  1.0000
  Fe  Fe68      1.0  0.00585  0.81791  0.40396  1.0000
  S   S130      1.0  0.05059  0.84539  0.40853  1.0000
  H   H366      1.0  0.02260  0.73713  0.44442  1.0000
  H   H367      1.0  0.02721  0.75246  0.42776  1.0000
  H   H368      1.0  0.02365  0.76386  0.46605  1.0000
  S   S131      1.0  0.13224  0.95964  0.38764  1.0000
  C   C359      1.0  0.07231  0.87787  0.40299  1.0000
  C   C360      1.0  0.06537  0.89019  0.39174  1.0000
  C   C361      1.0  0.08384  0.91521  0.38732  1.0000
  C   C362      1.0  0.10936  0.92859  0.39418  1.0000
  C   C363      1.0  0.11607  0.91659  0.40565  1.0000
  C   C364      1.0  0.09777  0.89134  0.40992  1.0000
  H   H369      1.0  0.04601  0.88015  0.38622  1.0000
  H   H370      1.0  0.07837  0.92411  0.37840  1.0000
  H   H371      1.0  0.13564  0.92638  0.41097  1.0000
  H   H372      1.0  0.10356  0.88202  0.41854  1.0000
  C   C365      1.0  0.04400  0.80182  0.43801  1.0000
  C   C366      1.0  0.01948  0.75285  0.43840  1.0000
  C   C367      1.0  0.03343  0.78152  0.46002  1.0000
  H   H373      1.0  0.99023  0.81639  0.45412  1.0000
  H   H374      1.0  0.16317  0.97810  0.44593  1.0000
  C   C368      1.0  0.04590  0.80662  0.46717  1.0000
  H   H375      1.0  0.00836  0.83625  0.47811  1.0000
  H   H376      1.0  0.06436  0.84500  0.43861  1.0000
  N   N31       1.0  0.03301  0.77934  0.44564  1.0000
  H   H377      1.0  0.04584  0.80828  0.47859  1.0000
  S   S132      1.0  0.99369  0.77436  0.40923  1.0000
  H   H378      1.0  0.04338  0.80031  0.42659  1.0000
  H   H379      1.0  0.14723  0.92786  0.47387  1.0000
  H   H380      1.0  0.13812  0.94490  0.44824  1.0000
  N   N32       1.0  0.15542  0.96739  0.46740  1.0000
  H   H381      1.0  0.22197  0.97649  0.46980  1.0000
  C   C369      1.0  0.15750  0.96040  0.45261  1.0000
  H   H382      1.0  0.17346  0.95280  0.45167  1.0000
  C   C370      1.0  0.14988  0.94804  0.47710  1.0000
  C   C371      1.0  0.98458  0.80409  0.46318  1.0000
  H   H383      1.0  0.47886  0.49125  0.29586  1.0000
  H   H384      1.0  0.38361  0.96509  0.68391  1.0000
  C   C372      1.0  0.08692  0.87031  0.56896  1.0000
  S   S133      1.0  0.00466  0.75045  0.56827  1.0000
  Fe  Fe69      1.0  0.00031  0.83897  0.55516  1.0000
  S   S134      1.0  0.02633  0.88019  0.56482  1.0000
  S   S135      1.0  0.02122  0.81506  0.54586  1.0000
  H   H385      1.0  0.07696  0.54917  0.60684  1.0000
  S   S136      1.0  0.12592  0.94915  0.52967  1.0000
  C   C373      1.0  0.47031  0.56254  0.68679  1.0000
  Fe  Fe70      1.0  0.07243  0.70899  0.67655  1.0000
  S   S137      1.0  0.09774  0.68688  0.67063  1.0000
  S   S138      1.0  0.06750  0.72311  0.69879  1.0000
  Fe  Fe71      1.0  0.05446  0.71168  0.64509  1.0000
  S   S139      1.0  0.07777  0.68854  0.63730  1.0000
  S   S140      1.0  0.03278  0.73335  0.63247  1.0000
  Fe  Fe72      1.0  0.06295  0.66192  0.65573  1.0000
  S   S141      1.0  0.04232  0.61594  0.65597  1.0000
  Fe  Fe73      1.0  0.11054  0.71536  0.65287  1.0000
  S   S142      1.0  0.15256  0.73616  0.64513  1.0000
  S   S143      1.0  0.03684  0.68310  0.66244  1.0000
  S   S144      1.0  0.08796  0.73937  0.65988  1.0000
  Fe  Fe74      1.0  0.30771  0.93179  0.67313  1.0000
  S   S145      1.0  0.29959  0.88951  0.66613  1.0000
  S   S146      1.0  0.32843  0.94084  0.69511  1.0000
  Fe  Fe75      1.0  0.28848  0.94298  0.64350  1.0000
  S   S147      1.0  0.27943  0.90108  0.63511  1.0000
  H   H386      1.0  0.41266  0.56885  0.67782  1.0000
  Fe  Fe76      1.0  0.26127  0.88793  0.65607  1.0000
  S   S148      1.0  0.22025  0.85917  0.66258  1.0000
  Fe  Fe77      1.0  0.31907  0.90709  0.64623  1.0000
  S   S149      1.0  0.35016  0.89388  0.63703  1.0000
  S   S150      1.0  0.26843  0.92968  0.66402  1.0000
  S   S151      1.0  0.32915  0.94959  0.65356  1.0000
  S   S152      1.0  0.09078  0.52725  0.65095  1.0000
  C   C374      1.0  0.40432  0.53940  0.64839  1.0000
  C   C375      1.0  0.43252  0.54942  0.64896  1.0000
  C   C376      1.0  0.44858  0.57704  0.64773  1.0000
  C   C377      1.0  0.43660  0.59502  0.64551  1.0000
  C   C378      1.0  0.40840  0.58496  0.64467  1.0000
  C   C379      1.0  0.39236  0.55743  0.64625  1.0000
  H   H387      1.0  0.44205  0.53570  0.65057  1.0000
  H   H388      1.0  0.39884  0.59857  0.64284  1.0000
  H   H389      1.0  0.37074  0.55012  0.64570  1.0000
  C   C380      1.0  0.44236  0.93238  0.64491  1.0000
  C   C381      1.0  0.42914  0.90614  0.63916  1.0000
  C   C382      1.0  0.40102  0.89486  0.63664  1.0000
  C   C383      1.0  0.38566  0.90937  0.64012  1.0000
  C   C384      1.0  0.39887  0.93556  0.64596  1.0000
  C   C385      1.0  0.42704  0.94705  0.64818  1.0000
  H   H390      1.0  0.44058  0.89460  0.63651  1.0000
  H   H391      1.0  0.39108  0.87464  0.63207  1.0000
  H   H392      1.0  0.38743  0.94705  0.64865  1.0000
  H   H393      1.0  0.46140  0.64049  0.61339  1.0000
  C   C386      1.0  0.17273  0.76958  0.65109  1.0000
  C   C387      1.0  0.16386  0.78292  0.66113  1.0000
  C   C388      1.0  0.17926  0.81012  0.66490  1.0000
  C   C389      1.0  0.20368  0.82428  0.65869  1.0000
  C   C390      1.0  0.21304  0.81081  0.64895  1.0000
  C   C391      1.0  0.19756  0.78352  0.64516  1.0000
  H   H394      1.0  0.14501  0.77237  0.66592  1.0000
  H   H395      1.0  0.17192  0.82036  0.67247  1.0000
  H   H396      1.0  0.23184  0.82153  0.64411  1.0000
  H   H397      1.0  0.20463  0.77327  0.63744  1.0000
  C   C392      1.0  0.05672  0.59188  0.65548  1.0000
  C   C393      1.0  0.08355  0.59882  0.65253  1.0000
  C   C394      1.0  0.09375  0.57887  0.65160  1.0000
  C   C395      1.0  0.07744  0.55177  0.65379  1.0000
  C   C396      1.0  0.05072  0.54487  0.65698  1.0000
  C   C397      1.0  0.04042  0.56479  0.65772  1.0000
  H   H398      1.0  0.09636  0.61952  0.65075  1.0000
  H   H399      1.0  0.11443  0.58448  0.64908  1.0000
  H   H400      1.0  0.03788  0.52414  0.65864  1.0000
  H   H401      1.0  0.01962  0.55916  0.65999  1.0000
  C   C398      1.0  0.24624  0.95334  0.59062  1.0000
  C   C399      1.0  0.25699  0.95209  0.60421  1.0000
  C   C400      1.0  0.00526  0.67100  0.71434  1.0000
  H   H402      1.0  0.24056  0.93625  0.58324  1.0000
  H   H403      1.0  0.25943  0.93418  0.60717  1.0000
  Fe  Fe78      1.0  0.99007  0.80488  0.52792  1.0000
  C   C401      1.0  0.05279  0.90058  0.55462  1.0000
  C   C402      1.0  0.07238  0.92477  0.56055  1.0000
  C   C403      1.0  0.09480  0.94016  0.55298  1.0000
  C   C404      1.0  0.09753  0.93154  0.53935  1.0000
  C   C405      1.0  0.07764  0.90768  0.53332  1.0000
  C   C406      1.0  0.05540  0.89222  0.54092  1.0000
  H   H404      1.0  0.07041  0.93139  0.57112  1.0000
  H   H405      1.0  0.10993  0.95859  0.55769  1.0000
  H   H406      1.0  0.07954  0.90093  0.52277  1.0000
  H   H407      1.0  0.04036  0.87374  0.53620  1.0000
  C   C407      1.0  0.01509  0.74827  0.58609  1.0000
  C   C408      1.0  0.02607  0.72954  0.58913  1.0000
  C   C409      1.0  0.03227  0.72517  0.60315  1.0000
  C   C410      1.0  0.02721  0.73923  0.61444  1.0000
  C   C411      1.0  0.01648  0.75815  0.61140  1.0000
  C   C412      1.0  0.01065  0.76281  0.59736  1.0000
  H   H408      1.0  0.02946  0.71799  0.58055  1.0000
  H   H409      1.0  0.04031  0.71041  0.60523  1.0000
  C   C413      1.0  0.33934  0.97368  0.61752  1.0000
  N   N33       1.0  0.01830  0.63976  0.70172  1.0000
  C   C414      1.0  0.07029  0.70979  0.71535  1.0000
  C   C415      1.0  0.07558  0.68687  0.71646  1.0000
  S   S153      1.0  0.31282  0.48867  0.66526  1.0000
  C   C416      1.0  0.29274  0.94832  0.71324  1.0000
  H   H410      1.0  0.07988  0.67778  0.70714  1.0000
  C   C417      1.0  0.32658  0.93576  0.72378  1.0000
  C   C418      1.0  0.31450  0.94132  0.71169  1.0000
  H   H411      1.0  0.00164  0.68915  0.71451  1.0000
  H   H412      1.0  0.34353  0.93051  0.72275  1.0000
  H   H413      1.0  0.42155  0.61429  0.67339  1.0000
  H   H414      1.0  0.08970  0.50428  0.61160  1.0000
  H   H415      1.0  0.13300  0.89328  0.54414  1.0000
  H   H416      1.0  0.28834  0.87543  0.70760  1.0000
  C   C419      1.0  0.12408  0.89206  0.55425  1.0000
  H   H417      1.0  0.08869  0.85662  0.54771  1.0000
  H   H418      1.0  0.41628  0.97554  0.69243  1.0000
  C   C420      1.0  0.24314  0.97656  0.58641  1.0000
  H   H419      1.0  0.00217  0.77723  0.59529  1.0000
  H   H420      1.0  0.08998  0.88992  0.58931  1.0000
  H   H421      1.0  0.02661  0.52129  0.62818  1.0000
  C   C421      1.0  0.44036  0.62218  0.68016  1.0000
  S   S154      1.0  0.23211  0.97779  0.56855  1.0000
  H   H422      1.0  0.42980  0.53396  0.68144  1.0000
  C   C422      1.0  0.26525  0.97427  0.61380  1.0000
  C   C423      1.0  0.26436  0.88050  0.72413  1.0000
  C   C424      1.0  0.15164  0.98009  0.49555  1.0000
  H   H423      1.0  0.16166  0.94294  0.55263  1.0000
  N   N34       1.0  0.11948  0.77890  0.62729  1.0000
  C   C425      1.0  0.10568  0.78972  0.63532  1.0000
  C   C426      1.0  0.14620  0.79308  0.62547  1.0000
  C   C427      1.0  0.11889  0.81505  0.64216  1.0000
  C   C428      1.0  0.15989  0.81870  0.63189  1.0000
  C   C429      1.0  0.14621  0.82957  0.64043  1.0000
  C   C430      1.0  0.10558  0.75238  0.62015  1.0000
  H   H424      1.0  0.08442  0.77858  0.63670  1.0000
  H   H425      1.0  0.15724  0.78425  0.61936  1.0000
  H   H426      1.0  0.10806  0.82316  0.64888  1.0000
  H   H427      1.0  0.18124  0.82965  0.63073  1.0000
  H   H428      1.0  0.15699  0.84895  0.64594  1.0000
  H   H429      1.0  0.11744  0.74011  0.62163  1.0000
  H   H430      1.0  0.08570  0.74109  0.62449  1.0000
  H   H431      1.0  0.10244  0.75450  0.60874  1.0000
  H   H432      1.0  0.21606  0.88296  0.69418  1.0000
  C   C431      1.0  0.40184  0.88931  0.67191  1.0000
  C   C432      1.0  0.22969  0.88229  0.70259  1.0000
  H   H433      1.0  0.40321  0.87203  0.66665  1.0000
  C   C433      1.0  0.32290  0.93610  0.60062  1.0000
  H   H434      1.0  0.25687  0.87653  0.68836  1.0000
  H   H435      1.0  0.28341  0.95293  0.70407  1.0000
  C   C434      1.0  0.42500  0.91074  0.67723  1.0000
  H   H436      1.0  0.44116  0.95007  0.68734  1.0000
  H   H437      1.0  0.01248  0.76921  0.62000  1.0000
  H   H438      1.0  0.19101  0.50519  0.67804  1.0000
  H   H439      1.0  0.47018  0.58430  0.64844  1.0000
  H   H440      1.0  0.01385  0.63143  0.67951  1.0000
  S   S155      1.0  0.00309  0.81434  0.50534  1.0000
  H   H441      1.0  0.47875  0.79022  0.66276  1.0000
  C   C435      1.0  0.31553  0.95167  0.59132  1.0000
  H   H442      1.0  0.44450  0.91019  0.67616  1.0000
  C   C436      1.0  0.43363  0.57492  0.68100  1.0000
  N   N35       1.0  0.45064  0.60153  0.68236  1.0000
  H   H443      1.0  0.23141  0.52800  0.66459  1.0000
  C   C437      1.0  0.37573  0.91364  0.67914  1.0000
  H   H444      1.0  0.20686  0.88835  0.71926  1.0000
  C   C438      1.0  0.42298  0.93339  0.68342  1.0000
  H   H445      1.0  0.38707  0.95338  0.70106  1.0000
  H   H446      1.0  0.04790  0.64563  0.68679  1.0000
  N   N36       1.0  0.13665  0.91123  0.56475  1.0000
  H   H447      1.0  0.13458  0.92591  0.58553  1.0000
  H   H448      1.0  0.26777  0.95717  0.72792  1.0000
  H   H449      1.0  0.02360  0.60979  0.71384  1.0000
  S   S156      1.0  0.45575  0.62999  0.64342  1.0000
  S   S157      1.0  0.47782  0.94785  0.64818  1.0000
  H   H450      1.0  0.27198  0.48825  0.68811  1.0000
  Fe  Fe79      1.0  0.99168  0.78069  0.55726  1.0000
  C   C439      1.0  0.37701  0.89070  0.67287  1.0000
  H   H451      1.0  0.31921  0.91547  0.59771  1.0000
  H   H452      1.0  0.35641  0.91472  0.67973  1.0000
  C   C440      1.0  0.47710  0.60906  0.68630  1.0000
  C   C441      1.0  0.09909  0.87127  0.55621  1.0000
  H   H453      1.0  0.47786  0.68545  0.60346  1.0000
  H   H454      1.0  0.35895  0.87454  0.66834  1.0000
  H   H455      1.0  0.34064  0.93535  0.62112  1.0000
  C   C442      1.0  0.98778  0.79958  0.48869  1.0000
  H   H456      1.0  0.02650  0.61094  0.68902  1.0000
  N   N37       1.0  0.05950  0.51555  0.61948  1.0000
  C   C443      1.0  0.14780  0.95406  0.49130  1.0000
  H   H457      1.0  0.45496  0.63913  0.67455  1.0000
  C   C444      1.0  0.23181  0.51511  0.67300  1.0000
  C   C445      1.0  0.25264  0.87857  0.69929  1.0000
  C   C446      1.0  0.33494  0.94726  0.61378  1.0000
  C   C447      1.0  0.07564  0.54430  0.61811  1.0000
  H   H458      1.0  0.06109  0.73930  0.72694  1.0000
  H   H459      1.0  0.01388  0.67300  0.69246  1.0000
  C   C448      1.0  0.09981  0.89003  0.57957  1.0000
  C   C449      1.0  0.20901  0.50210  0.68063  1.0000
  H   H460      1.0  0.06701  0.85498  0.57038  1.0000
  N   N38       1.0  0.39855  0.93468  0.68420  1.0000
  H   H461      1.0  0.43667  0.62988  0.69044  1.0000
  N   N39       1.0  0.24197  0.88452  0.72728  1.0000
  H   H462      1.0  0.17817  0.92424  0.56120  1.0000
  C   C450      1.0  0.06512  0.72151  0.72766  1.0000
  H   H463      1.0  0.07725  0.65668  0.73018  1.0000
  C   C451      1.0  0.01784  0.62661  0.71382  1.0000
  H   H464      1.0  0.17008  0.94811  0.57117  1.0000
  C   C452      1.0  0.01224  0.66176  0.70187  1.0000
  C   C453      1.0  0.22463  0.88527  0.71674  1.0000
  C   C454      1.0  0.16287  0.93263  0.56236  1.0000
  H   H465      1.0  0.20110  0.49005  0.63499  1.0000
  C   C455      1.0  0.12488  0.91044  0.57730  1.0000
  C   C456      1.0  0.39645  0.95838  0.69073  1.0000
  C   C457      1.0  0.25462  0.51019  0.67571  1.0000
  C   C458      1.0  0.44323  0.55503  0.68308  1.0000
  C   C459      1.0  0.00469  0.65769  0.72671  1.0000
  H   H466      1.0  0.14341  0.93881  0.49906  1.0000
  H   H467      1.0  0.27203  0.51931  0.66945  1.0000
  H   H468      1.0  0.09615  0.54994  0.62292  1.0000
  C   C460      1.0  0.02705  0.63151  0.68869  1.0000
  S   S158      1.0  0.38532  0.50451  0.65082  1.0000
  H   H469      1.0  0.43702  0.96739  0.65258  1.0000
  C   C461      1.0  0.01092  0.63530  0.72648  1.0000
  H   H470      1.0  0.34805  0.98240  0.62786  1.0000
  S   S159      1.0  0.28184  0.97513  0.63054  1.0000
  H   H471      1.0  0.06705  0.55692  0.62373  1.0000
  C   C462      1.0  0.27012  0.87766  0.71009  1.0000
  H   H472      1.0  0.30612  0.94286  0.58111  1.0000
  C   C463      1.0  0.03438  0.50692  0.62456  1.0000
  C   C464      1.0  0.28393  0.95074  0.72679  1.0000
  C   C465      1.0  0.06956  0.49742  0.61529  1.0000
  N   N40       1.0  0.31977  0.97754  0.59512  1.0000
  C   C466      1.0  0.07419  0.67502  0.72957  1.0000
  C   C467      1.0  0.25450  0.49259  0.68609  1.0000
  H   H473      1.0  0.46628  0.59990  0.61698  1.0000
  H   H474      1.0  0.29619  0.98138  0.57755  1.0000
  H   H475      1.0  0.46774  0.80571  0.67695  1.0000
  S   S160      1.0  0.20059  0.98475  0.53344  1.0000
  H   H476      1.0  0.27828  0.88019  0.73246  1.0000
  H   H477      1.0  0.15035  0.98499  0.50656  1.0000
  H   H478      1.0  0.47812  0.54736  0.68827  1.0000
  Fe  Fe80      1.0  0.16139  0.98590  0.53862  1.0000
  H   H479      1.0  0.08386  0.72789  0.86712  1.0000
  H   H480      1.0  0.12429  0.77287  0.81783  1.0000
  H   H481      1.0  0.41044  0.57119  0.77459  1.0000
  Fe  Fe81      1.0  0.00545  0.81505  0.91221  1.0000
  S   S161      1.0  0.04457  0.84919  0.91999  1.0000
  S   S162      1.0  0.00226  0.77436  0.91839  1.0000
  H   H482      1.0  0.07301  0.70489  0.85187  1.0000
  S   S163      1.0  0.18806  0.96879  0.90129  1.0000
  S   S164      1.0  0.11419  0.95186  0.88672  1.0000
  Fe  Fe82      1.0  0.27260  0.91837  0.80651  1.0000
  S   S165      1.0  0.27494  0.87793  0.80525  1.0000
  S   S166      1.0  0.25429  0.92523  0.82710  1.0000
  Fe  Fe83      1.0  0.28719  0.92703  0.77514  1.0000
  S   S167      1.0  0.29022  0.88753  0.77233  1.0000
  S   S168      1.0  0.28535  0.95013  0.75579  1.0000
  Fe  Fe84      1.0  0.25270  0.87105  0.78429  1.0000
  S   S169      1.0  0.21624  0.83579  0.77491  1.0000
  Fe  Fe85      1.0  0.31272  0.89805  0.79349  1.0000
  S   S170      1.0  0.34603  0.88321  0.79737  1.0000
  S   S171      1.0  0.24825  0.90997  0.78602  1.0000
  S   S172      1.0  0.31201  0.93919  0.79591  1.0000
  Fe  Fe86      1.0  0.06556  0.67884  0.78096  1.0000
  S   S173      1.0  0.09878  0.67006  0.79113  1.0000
  S   S174      1.0  0.06138  0.66741  0.75726  1.0000
  Fe  Fe87      1.0  0.05010  0.69500  0.80999  1.0000
  S   S175      1.0  0.08192  0.68617  0.82144  1.0000
  S   S176      1.0  0.02840  0.71811  0.82126  1.0000
  Fe  Fe88      1.0  0.10839  0.70773  0.80431  1.0000
  S   S177      1.0  0.15074  0.73671  0.81084  1.0000
  Fe  Fe89      1.0  0.06940  0.64880  0.80719  1.0000
  S   S178      1.0  0.07218  0.61198  0.81687  1.0000
  S   S179      1.0  0.07759  0.71842  0.79318  1.0000
  S   S180      1.0  0.03518  0.65578  0.79669  1.0000
  C   C468      1.0  0.06780  0.68604  0.74175  1.0000
  C   C469      1.0  0.44485  0.57689  0.80428  1.0000
  C   C470      1.0  0.42657  0.58869  0.80578  1.0000
  C   C471      1.0  0.39910  0.57247  0.80725  1.0000
  C   C472      1.0  0.38935  0.54424  0.80697  1.0000
  C   C473      1.0  0.40760  0.53243  0.80537  1.0000
  C   C474      1.0  0.43517  0.54867  0.80424  1.0000
  H   H483      1.0  0.43360  0.61032  0.80594  1.0000
  H   H484      1.0  0.38528  0.58190  0.80863  1.0000
  H   H485      1.0  0.40056  0.51081  0.80528  1.0000
  C   C475      1.0  0.31721  0.93733  0.73727  1.0000
  C   C476      1.0  0.26730  0.97661  0.83942  1.0000
  N   N41       1.0  0.10342  0.97365  0.93404  1.0000
  C   C477      1.0  0.06351  0.57887  0.80957  1.0000
  C   C478      1.0  0.07555  0.56291  0.81556  1.0000
  C   C479      1.0  0.06804  0.53596  0.81080  1.0000
  C   C480      1.0  0.04774  0.52435  0.80024  1.0000
  C   C481      1.0  0.03581  0.54033  0.79417  1.0000
  C   C482      1.0  0.04385  0.56751  0.79867  1.0000
  H   H486      1.0  0.09075  0.57147  0.82400  1.0000
  H   H487      1.0  0.07761  0.52410  0.81552  1.0000
  H   H488      1.0  0.02000  0.53159  0.78605  1.0000
  H   H489      1.0  0.03421  0.57941  0.79405  1.0000
  H   H490      1.0  0.22373  0.91800  0.85181  1.0000
  S   S181      1.0  0.35446  0.52492  0.80905  1.0000
  C   C483      1.0  0.46512  0.74875  0.77512  1.0000
  S   S182      1.0  0.19818  0.97922  0.94255  1.0000
  H   H491      1.0  0.44906  0.53924  0.80317  1.0000
  C   C484      1.0  0.19681  0.81085  0.78612  1.0000
  C   C485      1.0  0.20809  0.80605  0.79859  1.0000
  C   C486      1.0  0.19336  0.78371  0.80634  1.0000
  C   C487      1.0  0.16722  0.76621  0.80176  1.0000
  C   C488      1.0  0.15546  0.77169  0.78965  1.0000
  C   C489      1.0  0.17030  0.79390  0.78181  1.0000
  H   H492      1.0  0.22853  0.81893  0.80195  1.0000
  H   H493      1.0  0.20252  0.77956  0.81572  1.0000
  H   H494      1.0  0.13531  0.75837  0.78606  1.0000
  H   H495      1.0  0.16147  0.79759  0.77219  1.0000
  C   C490      1.0  0.38179  0.89841  0.79798  1.0000
  C   C491      1.0  0.39645  0.92615  0.80010  1.0000
  C   C492      1.0  0.42468  0.93687  0.80196  1.0000
  C   C493      1.0  0.43872  0.92019  0.80129  1.0000
  C   C494      1.0  0.42410  0.89256  0.79875  1.0000
  C   C495      1.0  0.39583  0.88176  0.79730  1.0000
  H   H496      1.0  0.38606  0.93929  0.80057  1.0000
  H   H497      1.0  0.43576  0.95827  0.80392  1.0000
  H   H498      1.0  0.43449  0.87940  0.79830  1.0000
  H   H499      1.0  0.38475  0.86028  0.79570  1.0000
  H   H500      1.0  0.28075  0.98436  0.83099  1.0000
  C   C496      1.0  0.32729  0.88591  0.83193  1.0000
  C   C497      1.0  0.08929  0.72366  0.85643  1.0000
  H   H501      1.0  0.44758  0.55662  0.77316  1.0000
  C   C498      1.0  0.25250  0.94889  0.84002  1.0000
  H   H502      1.0  0.36239  0.96088  0.81941  1.0000
  H   H503      1.0  0.36446  0.56242  0.76743  1.0000
  C   C499      1.0  0.35121  0.96027  0.82905  1.0000
  H   H504      1.0  0.05892  0.71847  0.75005  1.0000
  H   H505      1.0  0.06387  0.75626  0.85728  1.0000
  H   H506      1.0  0.09635  0.79894  0.82043  1.0000
  C   C500      1.0  0.06406  0.87649  0.90996  1.0000
  C   C501      1.0  0.09025  0.89311  0.91499  1.0000
  C   C502      1.0  0.10604  0.91585  0.90774  1.0000
  C   C503      1.0  0.09561  0.92234  0.89548  1.0000
  C   C504      1.0  0.06954  0.90558  0.89034  1.0000
  C   C505      1.0  0.05382  0.88266  0.89752  1.0000
  H   H507      1.0  0.09839  0.88830  0.92453  1.0000
  H   H508      1.0  0.12621  0.92846  0.91170  1.0000
  H   H509      1.0  0.06134  0.91050  0.88085  1.0000
  H   H510      1.0  0.03365  0.87007  0.89358  1.0000
  C   C506      1.0  0.01754  0.72057  0.83864  1.0000
  H   H511      1.0  0.16461  0.92170  0.84176  1.0000
  H   H512      1.0  0.36571  0.97083  0.83796  1.0000
  C   C507      1.0  0.07766  0.76030  0.84883  1.0000
  H   H513      1.0  0.22191  0.97975  0.81680  1.0000
  C   C508      1.0  0.98395  0.75855  0.96755  1.0000
  H   H514      1.0  0.99516  0.75759  0.95854  1.0000
  C   C509      1.0  0.01080  0.74223  0.84231  1.0000
  H   H515      1.0  0.21855  0.94953  0.86971  1.0000
  C   C510      1.0  0.17632  0.94251  0.83959  1.0000
  C   C511      1.0  0.23604  0.88748  0.74201  1.0000
  H   H516      1.0  0.32698  0.93338  0.74648  1.0000
  H   H517      1.0  0.12318  0.68804  0.76169  1.0000
  C   C512      1.0  0.07890  0.77984  0.83934  1.0000
  C   C513      1.0  0.15992  0.95642  0.86081  1.0000
  H   H518      1.0  0.30606  0.94278  0.84290  1.0000
  C   C514      1.0  0.01672  0.82582  0.95570  1.0000
  H   H519      1.0  0.14273  0.95582  0.95610  1.0000
  H   H520      1.0  0.33831  0.97123  0.82681  1.0000
  H   H521      1.0  0.01198  0.75667  0.83451  1.0000
  H   H522      1.0  0.02009  0.49228  0.84047  1.0000
  H   H523      1.0  0.11611  0.71699  0.76559  1.0000
  H   H524      1.0  0.02074  0.68523  0.84629  1.0000
  C   C515      1.0  0.13333  0.96806  0.95152  1.0000
  C   C516      1.0  0.42707  0.54224  0.77080  1.0000
  C   C517      1.0  0.24660  0.98499  0.86061  1.0000
  H   H525      1.0  0.29117  0.85925  0.84115  1.0000
  N   N42       1.0  0.15745  0.72535  0.76470  1.0000
  C   C518      1.0  0.17289  0.74766  0.75781  1.0000
  C   C519      1.0  0.16739  0.71857  0.77667  1.0000
  H   H526      1.0  0.99809  0.76256  0.85857  1.0000
  C   C520      1.0  0.19362  0.73400  0.78188  1.0000
  C   C521      1.0  0.20957  0.75666  0.77487  1.0000
  C   C522      1.0  0.12948  0.70976  0.75985  1.0000
  H   H527      1.0  0.16469  0.75367  0.74865  1.0000
  H   H528      1.0  0.15482  0.70165  0.78253  1.0000
  H   H529      1.0  0.12630  0.71139  0.74837  1.0000
  H   H530      1.0  0.22953  0.76949  0.77913  1.0000
  H   H531      1.0  0.06162  0.83131  0.98242  1.0000
  C   C523      1.0  0.29631  0.90054  0.84314  1.0000
  C   C524      1.0  0.99460  0.75894  0.98134  1.0000
  C   C525      1.0  0.06400  0.70981  0.74081  1.0000
  C   C526      1.0  0.30380  0.87990  0.83905  1.0000
  C   C527      1.0  0.19256  0.94835  0.82801  1.0000
  C   C528      1.0  0.23211  0.95724  0.86132  1.0000
  S   S183      1.0  0.47405  0.93449  0.80510  1.0000
  N   N43       1.0  0.17591  0.96275  0.84831  1.0000
  C   C529      1.0  0.00279  0.74559  0.85598  1.0000
  C   C530      1.0  0.23517  0.93938  0.85114  1.0000
  H   H532      1.0  0.34061  0.52881  0.76295  1.0000
  C   C531      1.0  0.10955  0.75032  0.83628  1.0000
  S   S184      1.0  0.03519  0.48961  0.79496  1.0000
  H   H533      1.0  0.09560  0.96935  0.91195  1.0000
  H   H534      1.0  0.00054  0.66535  0.73660  1.0000
  H   H535      1.0  0.47255  0.91055  0.83463  1.0000
  H   H536      1.0  0.21109  0.78184  0.75761  1.0000
  H   H537      1.0  0.01405  0.75832  0.98282  1.0000
  N   N44       1.0  0.09273  0.74571  0.84717  1.0000
  H   H538      1.0  0.06871  0.97091  0.92194  1.0000
  N   N45       1.0  0.38000  0.53235  0.76892  1.0000
  H   H539      1.0  0.25361  0.89113  0.74930  1.0000
  N   N46       1.0  0.33492  0.93253  0.83254  1.0000
  H   H540      1.0  0.01482  0.82506  0.94428  1.0000
  C   C532      1.0  0.99777  0.82425  0.97839  1.0000
  H   H541      1.0  0.43758  0.50855  0.76741  1.0000
  H   H542      1.0  0.05773  0.83047  0.95627  1.0000
  C   C533      1.0  0.34283  0.91253  0.82886  1.0000
  H   H543      1.0  0.44686  0.74637  0.78018  1.0000
  H   H544      1.0  0.10800  0.72033  0.85764  1.0000
  C   C534      1.0  0.40594  0.55042  0.77155  1.0000
  H   H545      1.0  0.06624  0.79070  0.84045  1.0000
  H   H546      1.0  0.21918  0.86905  0.74517  1.0000
  C   C535      1.0  0.31232  0.92694  0.83988  1.0000
  C   C536      1.0  0.09570  0.78437  0.82809  1.0000
  H   H547      1.0  0.12139  0.73865  0.83488  1.0000
  Fe  Fe90      1.0  0.15443  0.98109  0.89628  1.0000
  H   H548      1.0  0.47257  0.78821  0.76795  1.0000
  H   H549      1.0  0.17307  0.95818  0.87029  1.0000
  C   C537      1.0  0.11130  0.76969  0.82659  1.0000
  C   C538      1.0  0.08463  0.96318  0.92176  1.0000
  C   C539      1.0  0.00717  0.70507  0.86245  1.0000
  H   H550      1.0  0.23104  0.90517  0.74357  1.0000
  H   H551      1.0  0.36091  0.91692  0.82320  1.0000
  H   H552      1.0  0.19152  0.95857  0.97026  1.0000
  C   C540      1.0  0.19921  0.76355  0.76274  1.0000
  C   C541      1.0  0.00049  0.72676  0.86613  1.0000
  H   H553      1.0  0.35143  0.53907  0.78111  1.0000
  H   H554      1.0  0.33313  0.87003  0.82838  1.0000
  C   C542      1.0  0.47498  0.72890  0.77597  1.0000
  H   H555      1.0  0.14997  0.97043  0.86233  1.0000
  C   C543      1.0  0.42144  0.51527  0.76768  1.0000
  Fe  Fe91      1.0  0.98005  0.75961  0.89717  1.0000
  C   C544      1.0  0.01589  0.70213  0.84889  1.0000
  H   H556      1.0  0.00540  0.69026  0.87013  1.0000
  H   H557      1.0  0.27775  0.89615  0.84839  1.0000
  H   H558      1.0  0.20100  0.72909  0.79167  1.0000
  C   C545      1.0  0.35807  0.54111  0.77013  1.0000
  H   H559      1.0  0.10944  0.93758  0.93609  1.0000
  C   C546      1.0  0.29615  0.94535  0.73889  1.0000
  C   C547      1.0  0.11461  0.95794  0.94013  1.0000
  H   H560      1.0  0.46448  0.71101  0.78171  1.0000
  C   C548      1.0  0.37432  0.50587  0.76586  1.0000
  S   S185      1.0  0.98509  0.80070  0.89066  1.0000
  H   H561      1.0  0.14375  0.93582  0.86001  1.0000
  C   C549      1.0  0.20853  0.97504  0.82546  1.0000
  H   H562      1.0  0.01169  0.62562  0.73621  1.0000
  S   S186      1.0  0.98832  0.72853  0.88327  1.0000
  H   H563      1.0  0.02349  0.48923  0.76434  1.0000
  H   H564      1.0  0.06865  0.49051  0.76881  1.0000
  C   C550      1.0  0.19830  0.98013  0.97155  1.0000
  H   H565      1.0  0.19363  0.93228  0.82140  1.0000
  C   C551      1.0  0.99504  0.82365  0.96367  1.0000
  C   C552      1.0  0.04083  0.82873  0.96247  1.0000
  H   H566      1.0  0.01023  0.48973  0.82217  1.0000
  C   C553      1.0  0.06065  0.48830  0.75803  1.0000
  C   C554      1.0  0.03504  0.48771  0.75554  1.0000
  H   H567      1.0  0.47368  0.76861  0.81476  1.0000
  C   C555      1.0  0.04285  0.82918  0.97721  1.0000
  H   H568      1.0  0.07450  0.94088  0.92140  1.0000
  H   H569      1.0  0.35379  0.49141  0.76396  1.0000
  C   C556      1.0  0.39490  0.49692  0.76520  1.0000
  H   H570      1.0  0.11672  0.50746  0.75227  1.0000
  H   H571      1.0  0.04106  0.48719  0.82740  1.0000
  C   C557      1.0  0.10198  0.48650  0.74993  1.0000
  Fe  Fe92      1.0  0.94719  0.25225  0.02355  1.0000
  C   C558      1.0  0.48641  0.46039  0.15343  1.0000
  S   S187      1.0  0.93688  0.26362  0.00183  1.0000
  Fe  Fe93      1.0  0.94176  0.26276  0.05569  1.0000
  C   C559      1.0  0.72992  0.24985  0.18320  1.0000
  S   S188      1.0  0.91962  0.28279  0.06904  1.0000
  Fe  Fe94      1.0  0.93846  0.20839  0.04436  1.0000
  S   S189      1.0  0.91848  0.16339  0.04729  1.0000
  S   S190      1.0  0.91523  0.23275  0.03890  1.0000
  Fe  Fe95      1.0  0.72684  0.01581  0.02655  1.0000
  S   S191      1.0  0.76914  0.02551  0.03436  1.0000
  H   H572      1.0  0.52189  0.12166  0.17927  1.0000
  Fe  Fe96      1.0  0.71016  0.02361  0.05707  1.0000
  S   S192      1.0  0.75154  0.03314  0.06628  1.0000
  S   S193      1.0  0.67525  0.01960  0.07108  1.0000
  Fe  Fe97      1.0  0.76557  0.05858  0.04750  1.0000
  S   S194      1.0  0.79188  0.10318  0.04776  1.0000
  C   C560      1.0  0.83706  0.10982  0.01310  1.0000
  S   S195      1.0  0.72401  0.05048  0.03876  1.0000
  H   H573      1.0  0.90613  0.43514  0.12514  1.0000
  Fe  Fe98      1.0  0.82080  0.32180  0.14905  1.0000
  S   S196      1.0  0.84525  0.30087  0.15782  1.0000
  S   S197      1.0  0.77664  0.29911  0.14246  1.0000
  Fe  Fe99      1.0  0.86674  0.37740  0.15391  1.0000
  S   S198      1.0  0.89408  0.35929  0.16308  1.0000
  S   S199      1.0  0.88634  0.42344  0.15392  1.0000
  Fe  Fe100     1.0  0.87817  0.32836  0.14486  1.0000
  S   S200      1.0  0.90649  0.31342  0.13342  1.0000
  Fe  Fe101     1.0  0.85864  0.33343  0.17513  1.0000
  S   S201      1.0  0.85193  0.31782  0.19745  1.0000
  S   S202      1.0  0.85297  0.34797  0.13506  1.0000
  S   S203      1.0  0.83233  0.35309  0.16690  1.0000
  Fe  Fe102     1.0  0.63989  0.09777  0.14298  1.0000
  S   S204      1.0  0.64608  0.14026  0.13870  1.0000
  S   S205      1.0  0.63848  0.06679  0.12551  1.0000
  Fe  Fe103     1.0  0.63059  0.10584  0.17476  1.0000
  S   S206      1.0  0.63686  0.14865  0.17233  1.0000
  S   S207      1.0  0.61819  0.08548  0.19563  1.0000
  Fe  Fe104     1.0  0.61079  0.13322  0.15237  1.0000
  S   S208      1.0  0.57823  0.14843  0.14720  1.0000
  Fe  Fe105     1.0  0.67117  0.15147  0.15908  1.0000
  S   S209      1.0  0.71417  0.18166  0.16360  1.0000
  S   S210      1.0  0.60286  0.09011  0.15531  1.0000
  S   S211      1.0  0.66657  0.10916  0.16280  1.0000
  C   C561      1.0  0.75938  0.26485  0.14632  1.0000
  C   C562      1.0  0.77308  0.25017  0.15175  1.0000
  C   C563      1.0  0.75886  0.22402  0.15617  1.0000
  C   C564      1.0  0.73075  0.21213  0.15518  1.0000
  C   C565      1.0  0.71693  0.22619  0.14909  1.0000
  C   C566      1.0  0.73125  0.25249  0.14467  1.0000
  H   H574      1.0  0.79464  0.25905  0.15278  1.0000
  H   H575      1.0  0.76973  0.21323  0.16075  1.0000
  H   H576      1.0  0.69525  0.21728  0.14831  1.0000
  H   H577      1.0  0.72046  0.26360  0.14037  1.0000
  C   C567      1.0  0.66760  0.03456  0.08647  1.0000
  C   C568      1.0  0.68506  0.05890  0.09342  1.0000
  C   C569      1.0  0.67689  0.06932  0.10548  1.0000
  C   C570      1.0  0.65134  0.05527  0.11076  1.0000
  C   C571      1.0  0.63431  0.03105  0.10377  1.0000
  C   C572      1.0  0.64224  0.02096  0.09180  1.0000
  H   H578      1.0  0.70469  0.06980  0.08946  1.0000
  H   H579      1.0  0.69036  0.08809  0.11068  1.0000
  H   H580      1.0  0.61460  0.01992  0.10760  1.0000
  H   H581      1.0  0.62845  0.00229  0.08663  1.0000
  C   C573      1.0  0.88320  0.14638  0.04640  1.0000
  C   C574      1.0  0.87127  0.11832  0.04738  1.0000
  C   C575      1.0  0.84322  0.10454  0.04776  1.0000
  C   C576      1.0  0.82703  0.11885  0.04714  1.0000
  C   C577      1.0  0.83893  0.14675  0.04589  1.0000
  C   C578      1.0  0.86685  0.16044  0.04551  1.0000
  H   H582      1.0  0.88382  0.10728  0.04809  1.0000
  H   H583      1.0  0.83419  0.08299  0.04865  1.0000
  H   H584      1.0  0.82651  0.15794  0.04535  1.0000
  H   H585      1.0  0.87568  0.18197  0.04488  1.0000
  C   C579      1.0  0.91572  0.29003  0.08713  1.0000
  C   C580      1.0  0.93202  0.28751  0.09818  1.0000
  C   C581      1.0  0.92854  0.29430  0.11223  1.0000
  C   C582      1.0  0.90857  0.30339  0.11554  1.0000
  C   C583      1.0  0.89200  0.30550  0.10450  1.0000
  C   C584      1.0  0.89567  0.29902  0.09043  1.0000
  H   H586      1.0  0.81628  0.26414  0.18267  1.0000
  H   H587      1.0  0.87655  0.31243  0.10679  1.0000
  H   H588      1.0  0.88286  0.30101  0.08202  1.0000
  C   C585      1.0  0.88399  0.35883  0.21685  1.0000
  C   C586      1.0  0.86338  0.33319  0.21462  1.0000
  C   C587      1.0  0.85167  0.31868  0.22642  1.0000
  H   H589      1.0  0.89335  0.37018  0.20792  1.0000
  H   H590      1.0  0.83581  0.29881  0.22485  1.0000
  H   H591      1.0  0.79395  0.23310  0.18927  1.0000
  C   C588      1.0  0.65318  0.12420  0.21500  1.0000
  C   C589      1.0  0.63024  0.10028  0.21281  1.0000
  C   C590      1.0  0.61774  0.08641  0.22462  1.0000
  H   H592      1.0  0.66123  0.05848  0.22993  1.0000
  H   H593      1.0  0.66306  0.13507  0.20604  1.0000
  H   H594      1.0  0.59989  0.06797  0.22307  1.0000
  H   H595      1.0  0.70959  0.23454  0.18306  1.0000
  C   C591      1.0  0.49823  0.13138  0.14720  1.0000
  C   C592      1.0  0.52636  0.14471  0.14667  1.0000
  C   C593      1.0  0.54296  0.13082  0.14851  1.0000
  C   C594      1.0  0.53106  0.10335  0.15088  1.0000
  C   C595      1.0  0.50291  0.08993  0.15118  1.0000
  C   C596      1.0  0.89593  0.41632  0.11850  1.0000
  H   H596      1.0  0.53530  0.16593  0.14478  1.0000
  H   H597      1.0  0.54349  0.09234  0.15233  1.0000
  C   C597      1.0  0.79379  0.06216  0.00524  1.0000
  C   C598      1.0  0.81977  0.06310  0.00537  1.0000
  C   C599      1.0  0.67178  0.06958  0.22114  1.0000
  C   C600      1.0  0.87377  0.44784  0.14954  1.0000
  C   C601      1.0  0.84725  0.44081  0.14468  1.0000
  C   C602      1.0  0.83796  0.46100  0.14205  1.0000
  C   C603      1.0  0.48710  0.15683  0.19113  1.0000
  H   H598      1.0  0.83379  0.41985  0.14309  1.0000
  N   N47       1.0  0.77732  0.26212  0.18629  1.0000
  H   H599      1.0  0.70105  0.04200  0.99395  1.0000
  H   H600      1.0  0.52492  0.44087  0.13249  1.0000
  H   H601      1.0  0.48578  0.14239  0.14581  1.0000
  C   C604      1.0  0.72285  0.01890  0.98731  1.0000
  H   H602      1.0  0.85378  0.12850  0.01644  1.0000
  C   C605      1.0  0.71041  0.03652  0.98527  1.0000
  N   N48       1.0  0.91221  0.40057  0.11831  1.0000
  S   S212      1.0  0.96869  0.22565  0.02777  1.0000
  C   C606      1.0  0.67494  0.07558  0.19652  1.0000
  H   H603      1.0  0.66693  0.06920  0.18580  1.0000
  H   H604      1.0  0.92968  0.36099  0.09632  1.0000
  C   C607      1.0  0.79987  0.25514  0.19001  1.0000
  H   H605      1.0  0.76539  0.31404  0.17411  1.0000
  C   C608      1.0  0.91362  0.38724  0.10614  1.0000
  C   C609      1.0  0.92492  0.39825  0.13053  1.0000
  H   H606      1.0  0.80271  0.30211  0.18151  1.0000
  N   N49       1.0  0.78958  0.08434  0.00933  1.0000
  C   C610      1.0  0.76121  0.29442  0.17815  1.0000
  H   H607      1.0  0.52816  0.16835  0.18558  1.0000
  N   N50       1.0  0.61164  0.10582  0.10425  1.0000
  C   C611      1.0  0.59284  0.08162  0.10797  1.0000
  C   C612      1.0  0.60847  0.12901  0.10726  1.0000
  C   C613      1.0  0.56998  0.08020  0.11471  1.0000
  C   C614      1.0  0.58574  0.12829  0.11387  1.0000
  C   C615      1.0  0.56640  0.10371  0.11760  1.0000
  C   C616      1.0  0.63619  0.10723  0.09786  1.0000
  H   H608      1.0  0.59576  0.06331  0.10602  1.0000
  H   H609      1.0  0.62382  0.14830  0.10481  1.0000
  H   H610      1.0  0.55540  0.06107  0.11790  1.0000
  H   H611      1.0  0.58346  0.14673  0.11651  1.0000
  H   H612      1.0  0.54895  0.10302  0.12297  1.0000
  H   H613      1.0  0.65244  0.11208  0.10620  1.0000
  H   H614      1.0  0.63324  0.08776  0.09249  1.0000
  H   H615      1.0  0.64268  0.12278  0.08988  1.0000
  N   N51       1.0  0.87962  0.16693  0.08012  1.0000
  C   C617      1.0  0.85470  0.16727  0.07925  1.0000
  C   C618      1.0  0.90212  0.19037  0.08015  1.0000
  C   C619      1.0  0.85188  0.19153  0.07809  1.0000
  C   C620      1.0  0.90000  0.21497  0.07925  1.0000
  C   C621      1.0  0.87474  0.21552  0.07812  1.0000
  C   C622      1.0  0.88238  0.14152  0.08178  1.0000
  H   H616      1.0  0.83682  0.14868  0.07913  1.0000
  H   H617      1.0  0.92188  0.19011  0.08074  1.0000
  H   H618      1.0  0.83213  0.19173  0.07714  1.0000
  H   H619      1.0  0.91784  0.23355  0.07938  1.0000
  H   H620      1.0  0.87297  0.23457  0.07724  1.0000
  H   H621      1.0  0.88562  0.13872  0.09310  1.0000
  H   H622      1.0  0.86427  0.12418  0.07741  1.0000
  H   H623      1.0  0.89962  0.14134  0.07593  1.0000
  H   H624      1.0  0.74747  0.22325  0.19004  1.0000
  S   S213      1.0  0.97196  0.28429  0.03981  1.0000
  C   C623      1.0  0.69791  0.09942  0.19888  1.0000
  C   C624      1.0  0.76229  0.08307  0.00925  1.0000
  S   S214      1.0  0.72027  0.00173  0.00319  1.0000
  H   H625      1.0  0.49393  0.06864  0.15289  1.0000
  C   C625      1.0  0.75152  0.24354  0.18710  1.0000
  H   H626      1.0  0.82294  0.04525  0.00250  1.0000
  H   H627      1.0  0.80801  0.26314  0.20085  1.0000
  H   H628      1.0  0.86175  0.08806  0.00981  1.0000
  H   H629      1.0  0.72530  0.12699  0.21466  1.0000
  H   H630      1.0  0.70752  0.11123  0.19007  1.0000
  C   C626      1.0  0.78230  0.28744  0.18217  1.0000
  H   H631      1.0  0.91157  0.48094  0.15512  1.0000
  H   H632      1.0  0.64248  0.01862  0.20644  1.0000
  H   H633      1.0  0.48953  0.17714  0.19390  1.0000
  H   H634      1.0  0.92314  0.40806  0.14028  1.0000
  H   H635      1.0  0.71840  0.28018  0.17489  1.0000
  H   H636      1.0  0.94764  0.28082  0.09590  1.0000
  H   H637      1.0  0.90277  0.38819  0.09656  1.0000
  H   H638      1.0  0.81733  0.45534  0.13839  1.0000
  C   C627      1.0  0.73487  0.27540  0.17858  1.0000
  N   N52       1.0  0.48290  0.33691  0.16133  1.0000
  H   H639      1.0  0.48507  0.36614  0.13023  1.0000
  C   C628      1.0  0.92887  0.37192  0.10590  1.0000
  C   C629      1.0  0.89308  0.36951  0.23071  1.0000
  C   C630      1.0  0.51913  0.45374  0.13921  1.0000
  C   C631      1.0  0.94228  0.36990  0.11826  1.0000
  C   C632      1.0  0.83392  0.45741  0.17751  1.0000
  C   C633      1.0  0.63776  0.03638  0.20504  1.0000
  H   H640      1.0  0.87630  0.40452  0.12299  1.0000
  H   H641      1.0  0.94160  0.29265  0.12063  1.0000
  H   H642      1.0  0.80744  0.12561  0.01635  1.0000
  Fe  Fe106     1.0  0.75059  0.99862  0.05208  1.0000
  C   C634      1.0  0.94009  0.38288  0.13069  1.0000
  C   C635      1.0  0.70785  0.10826  0.21267  1.0000
  H   H643      1.0  0.74741  0.99592  0.09868  1.0000
  C   C636      1.0  0.48630  0.10383  0.14935  1.0000
  C   C637      1.0  0.69479  0.09324  0.22389  1.0000
  H   H644      1.0  0.62220  0.03598  0.21238  1.0000
  C   C638      1.0  0.87820  0.46322  0.18585  1.0000
  C   C639      1.0  0.53722  0.48082  0.14199  1.0000
  S   S215      1.0  0.96384  0.23722  0.06194  1.0000
  C   C640      1.0  0.48628  0.35658  0.15204  1.0000
  C   C641      1.0  0.96326  0.24213  0.98402  1.0000
  C   C642      1.0  0.66402  0.13350  0.22880  1.0000
  C   C643      1.0  0.49355  0.44330  0.14485  1.0000
  H   H645      1.0  0.77698  0.04340  0.00214  1.0000
  H   H646      1.0  0.49116  0.37708  0.15580  1.0000
  C   C644      1.0  0.50526  0.12568  0.18300  1.0000
  H   H647      1.0  0.75750  0.09054  0.99924  1.0000
  S   S216      1.0  0.70839  0.98742  0.04389  1.0000
  C   C645      1.0  0.81080  0.10807  0.01301  1.0000
  H   H648      1.0  0.62869  0.03517  0.19425  1.0000
  C   C646      1.0  0.84150  0.08709  0.00941  1.0000
  N   N53       1.0  0.66203  0.06117  0.20760  1.0000
  H   H649      1.0  0.89231  0.42216  0.10780  1.0000
  C   C647      1.0  0.48293  0.35050  0.13752  1.0000
  C   C648      1.0  0.89095  0.47524  0.15145  1.0000
  C   C649      1.0  0.94693  0.25619  0.98524  1.0000
  H   H650      1.0  0.74734  0.06218  0.01032  1.0000
  H   H651      1.0  0.76006  0.09526  0.01832  1.0000
  C   C650      1.0  0.50875  0.15191  0.18652  1.0000
  H   H652      1.0  0.70680  0.00202  0.09012  1.0000
  H   H653      1.0  0.68223  0.15155  0.23030  1.0000
  H   H654      1.0  0.90942  0.38910  0.23230  1.0000
  H   H655      1.0  0.96892  0.23425  0.99330  1.0000
  H   H656      1.0  0.81379  0.44451  0.17356  1.0000
  H   H657      1.0  0.50252  0.33916  0.18128  1.0000
  H   H658      1.0  0.48963  0.36454  0.17907  1.0000
  H   H659      1.0  0.84594  0.42475  0.18060  1.0000
  H   H660      1.0  0.95336  0.35727  0.11835  1.0000
  C   C651      1.0  0.85194  0.44634  0.18147  1.0000
  H   H661      1.0  0.94942  0.38031  0.14047  1.0000
  C   C652      1.0  0.48575  0.34320  0.17656  1.0000
  H   H662      1.0  0.89255  0.45474  0.18843  1.0000
  C   C653      1.0  0.47994  0.10472  0.18382  1.0000
  C   C654      1.0  0.84252  0.48535  0.17790  1.0000
  Fe  Fe107     1.0  0.72474  0.01275  0.42822  1.0000
  S   S217      1.0  0.76757  0.02093  0.42477  1.0000
  H   H663      1.0  0.92084  0.30211  0.41540  1.0000
  Fe  Fe108     1.0  0.71678  0.03043  0.39775  1.0000
  S   S218      1.0  0.75925  0.03811  0.39268  1.0000
  S   S219      1.0  0.68971  0.04599  0.38487  1.0000
  C   C655      1.0  0.93317  0.23696  0.47951  1.0000
  Fe  Fe109     1.0  0.77024  0.05812  0.41432  1.0000
  S   S220      1.0  0.80044  0.10015  0.42079  1.0000
  H   H664      1.0  0.91311  0.22142  0.47797  1.0000
  S   S221      1.0  0.72832  0.05165  0.41930  1.0000
  Fe  Fe110     1.0  0.94915  0.24350  0.42839  1.0000
  C   C656      1.0  0.49277  0.12453  0.30719  1.0000
  S   S222      1.0  0.93249  0.23663  0.45049  1.0000
  Fe  Fe111     1.0  0.95134  0.26746  0.39867  1.0000
  H   H665      1.0  0.76116  0.47482  0.31760  1.0000
  S   S223      1.0  0.93553  0.29626  0.38800  1.0000
  Fe  Fe112     1.0  0.93560  0.20755  0.40120  1.0000
  S   S224      1.0  0.90925  0.16575  0.39214  1.0000
  S   S225      1.0  0.91907  0.23562  0.41016  1.0000
  Fe  Fe113     1.0  0.65105  0.12235  0.27951  1.0000
  S   S226      1.0  0.63119  0.14858  0.28746  1.0000
  S   S227      1.0  0.66834  0.13010  0.25755  1.0000
  Fe  Fe114     1.0  0.65309  0.10057  0.30965  1.0000
  S   S228      1.0  0.63300  0.12552  0.31913  1.0000
  S   S229      1.0  0.66973  0.07335  0.32116  1.0000
  Fe  Fe115     1.0  0.60528  0.11331  0.29953  1.0000
  S   S230      1.0  0.55925  0.09504  0.29764  1.0000
  Fe  Fe116     1.0  0.66068  0.15860  0.30607  1.0000
  S   S231      1.0  0.68383  0.20200  0.31406  1.0000
  S   S232      1.0  0.62381  0.08609  0.29063  1.0000
  S   S233      1.0  0.68191  0.13431  0.29763  1.0000
  Fe  Fe117     1.0  0.87555  0.35249  0.28052  1.0000
  S   S234      1.0  0.83343  0.34728  0.28375  1.0000
  S   S235      1.0  0.89430  0.36888  0.25977  1.0000
  Fe  Fe118     1.0  0.88366  0.33888  0.31180  1.0000
  S   S236      1.0  0.84183  0.33384  0.31680  1.0000
  S   S237      1.0  0.91244  0.32618  0.32519  1.0000
  Fe  Fe119     1.0  0.82913  0.31109  0.29583  1.0000
  S   S238      1.0  0.79825  0.26859  0.29071  1.0000
  Fe  Fe120     1.0  0.85018  0.37111  0.30420  1.0000
  S   S239      1.0  0.83493  0.40411  0.30797  1.0000
  S   S240      1.0  0.87047  0.31470  0.29115  1.0000
  S   S241      1.0  0.89284  0.37774  0.30063  1.0000
  H   H666      1.0  0.95540  0.28920  0.36026  1.0000
  C   C657      1.0  0.55909  0.04025  0.31126  1.0000
  H   H667      1.0  0.55851  0.05876  0.33989  1.0000
  H   H668      1.0  0.65809  0.21102  0.28332  1.0000
  H   H669      1.0  0.85144  0.31794  0.24919  1.0000
  C   C658      1.0  0.92141  0.29241  0.43707  1.0000
  C   C659      1.0  0.73384  0.04507  0.48271  1.0000
  H   H670      1.0  0.61873  0.08477  0.24737  1.0000
  C   C660      1.0  0.71714  0.22006  0.30908  1.0000
  C   C661      1.0  0.73008  0.20763  0.30096  1.0000
  C   C662      1.0  0.75556  0.22269  0.29608  1.0000
  C   C663      1.0  0.76838  0.25042  0.29915  1.0000
  C   C664      1.0  0.75607  0.26287  0.30775  1.0000
  C   C665      1.0  0.73048  0.24767  0.31270  1.0000
  H   H671      1.0  0.72029  0.18652  0.29816  1.0000
  H   H672      1.0  0.76502  0.21288  0.28950  1.0000
  H   H673      1.0  0.76577  0.28427  0.31017  1.0000
  H   H674      1.0  0.72066  0.25744  0.31903  1.0000
  C   C666      1.0  0.53447  0.10771  0.30108  1.0000
  C   C667      1.0  0.50804  0.09320  0.29555  1.0000
  C   C668      1.0  0.90386  0.46959  0.27439  1.0000
  H   H675      1.0  0.86331  0.06479  0.43316  1.0000
  C   C669      1.0  0.51918  0.13896  0.31279  1.0000
  C   C670      1.0  0.53995  0.13079  0.30966  1.0000
  H   H676      1.0  0.50348  0.07530  0.28891  1.0000
  H   H677      1.0  0.93359  0.15443  0.42149  1.0000
  H   H678      1.0  0.52362  0.15662  0.31960  1.0000
  H   H679      1.0  0.56006  0.14214  0.31408  1.0000
  S   S242      1.0  0.70879  0.99017  0.40724  1.0000
  C   C671      1.0  0.83817  0.45429  0.30168  1.0000
  C   C672      1.0  0.85262  0.43902  0.30554  1.0000
  C   C673      1.0  0.88030  0.45219  0.30833  1.0000
  H   H680      1.0  0.81675  0.44430  0.29951  1.0000
  H   H681      1.0  0.89162  0.44079  0.31149  1.0000
  H   H682      1.0  0.58889  0.00412  0.29489  1.0000
  C   C674      1.0  0.56285  0.02292  0.30127  1.0000
  C   C675      1.0  0.92843  0.30311  0.37031  1.0000
  C   C676      1.0  0.94119  0.29818  0.35871  1.0000
  C   C677      1.0  0.93637  0.30584  0.34514  1.0000
  C   C678      1.0  0.91815  0.31783  0.34278  1.0000
  C   C679      1.0  0.90494  0.32223  0.35432  1.0000
  C   C680      1.0  0.91032  0.31525  0.36796  1.0000
  H   H683      1.0  0.54149  0.04469  0.31008  1.0000
  H   H684      1.0  0.94689  0.30242  0.33638  1.0000
  H   H685      1.0  0.89093  0.33146  0.35278  1.0000
  H   H686      1.0  0.90042  0.31941  0.37680  1.0000
  C   C681      1.0  0.82864  0.11885  0.41130  1.0000
  C   C682      1.0  0.83698  0.10727  0.40016  1.0000
  C   C683      1.0  0.86135  0.12217  0.39399  1.0000
  C   C684      1.0  0.87734  0.14866  0.39886  1.0000
  C   C685      1.0  0.86835  0.16045  0.40961  1.0000
  C   C686      1.0  0.84407  0.14562  0.41577  1.0000
  H   H687      1.0  0.82519  0.08662  0.39664  1.0000
  H   H688      1.0  0.86821  0.11296  0.38565  1.0000
  H   H689      1.0  0.88049  0.18075  0.41349  1.0000
  H   H690      1.0  0.83768  0.15471  0.42435  1.0000
  C   C687      1.0  0.68455  0.05325  0.36702  1.0000
  C   C688      1.0  0.69531  0.04493  0.35561  1.0000
  C   C689      1.0  0.69057  0.05132  0.34174  1.0000
  C   C690      1.0  0.67552  0.06658  0.33902  1.0000
  C   C691      1.0  0.66518  0.07533  0.35046  1.0000
  C   C692      1.0  0.66938  0.06840  0.36429  1.0000
  H   H691      1.0  0.70695  0.03324  0.35744  1.0000
  H   H692      1.0  0.69864  0.04430  0.33302  1.0000
  H   H693      1.0  0.65372  0.08720  0.34867  1.0000
  H   H694      1.0  0.66092  0.07499  0.37299  1.0000
  C   C693      1.0  0.72948  0.23970  0.26964  1.0000
  C   C694      1.0  0.94799  0.24780  0.46768  1.0000
  H   H695      1.0  0.56580  0.08399  0.32686  1.0000
  H   H696      1.0  0.87469  0.40231  0.27472  1.0000
  C   C695      1.0  0.88153  0.47490  0.27075  1.0000
  C   C696      1.0  0.72919  0.03420  0.46872  1.0000
  C   C697      1.0  0.71654  0.00640  0.46603  1.0000
  H   H697      1.0  0.83575  0.07399  0.42886  1.0000
  H   H698      1.0  0.73478  0.04737  0.46001  1.0000
  C   C698      1.0  0.69444  0.24656  0.28167  1.0000
  H   H699      1.0  0.59229  0.08359  0.33824  1.0000
  C   C699      1.0  0.60398  0.02885  0.31395  1.0000
  H   H700      1.0  0.79264  0.09484  0.36829  1.0000
  C   C700      1.0  0.86807  0.12031  0.44072  1.0000
  C   C701      1.0  0.62834  0.09593  0.23843  1.0000
  C   C702      1.0  0.67795  0.21941  0.27919  1.0000
  H   H701      1.0  0.73362  0.27779  0.27901  1.0000
  C   C703      1.0  0.88148  0.35489  0.24250  1.0000
  C   C704      1.0  0.86050  0.32949  0.24026  1.0000
  C   C705      1.0  0.58551  0.01726  0.30264  1.0000
  H   H702      1.0  0.90317  0.10742  0.41537  1.0000
  H   H703      1.0  0.74483  0.20481  0.25845  1.0000
  H   H704      1.0  0.72114  0.17797  0.26779  1.0000
  N   N54       1.0  0.87063  0.25829  0.31877  1.0000
  C   C706      1.0  0.87716  0.25729  0.33269  1.0000
  C   C707      1.0  0.84752  0.26091  0.31485  1.0000
  C   C708      1.0  0.86049  0.25917  0.34313  1.0000
  C   C709      1.0  0.83031  0.26273  0.32499  1.0000
  C   C710      1.0  0.83697  0.26203  0.33922  1.0000
  C   C711      1.0  0.88944  0.25844  0.30811  1.0000
  H   H705      1.0  0.89580  0.25590  0.33584  1.0000
  H   H706      1.0  0.84241  0.26189  0.30384  1.0000
  H   H707      1.0  0.86627  0.25924  0.35417  1.0000
  H   H708      1.0  0.81218  0.26512  0.32178  1.0000
  H   H709      1.0  0.82408  0.26399  0.34720  1.0000
  H   H710      1.0  0.87913  0.25166  0.29754  1.0000
  H   H711      1.0  0.90505  0.27920  0.30745  1.0000
  H   H712      1.0  0.89940  0.24493  0.31085  1.0000
  N   N55       1.0  0.74755  0.10962  0.38622  1.0000
  C   C712      1.0  0.76902  0.10349  0.38384  1.0000
  C   C713      1.0  0.73254  0.11270  0.37517  1.0000
  C   C714      1.0  0.77583  0.10010  0.37009  1.0000
  C   C715      1.0  0.73885  0.10962  0.36128  1.0000
  C   C716      1.0  0.76052  0.10307  0.35875  1.0000
  C   C717      1.0  0.73988  0.11214  0.40064  1.0000
  H   H713      1.0  0.78077  0.10079  0.39256  1.0000
  H   H714      1.0  0.71503  0.11672  0.37706  1.0000
  H   H715      1.0  0.72642  0.11135  0.35253  1.0000
  H   H716      1.0  0.76517  0.09993  0.34802  1.0000
  H   H717      1.0  0.75490  0.11145  0.40864  1.0000
  H   H718      1.0  0.73797  0.13148  0.40239  1.0000
  H   H719      1.0  0.72035  0.09532  0.40242  1.0000
  C   C718      1.0  0.49286  0.48255  0.29868  1.0000
  H   H720      1.0  0.85741  0.07320  0.41545  1.0000
  C   C719      1.0  0.85408  0.42730  0.26980  1.0000
  C   C720      1.0  0.72030  0.25689  0.27677  1.0000
  C   C721      1.0  0.93235  0.30732  0.42539  1.0000
  C   C722      1.0  0.52918  0.46073  0.30626  1.0000
  N   N56       1.0  0.87463  0.10635  0.43040  1.0000
  N   N57       1.0  0.57773  0.05220  0.32208  1.0000
  C   C723      1.0  0.90890  0.15936  0.43762  1.0000
  N   N58       1.0  0.95733  0.32789  0.42650  1.0000
  H   H721      1.0  0.61450  0.05558  0.33225  1.0000
  H   H722      1.0  0.90191  0.27566  0.43610  1.0000
  H   H723      1.0  0.67503  0.18162  0.27031  1.0000
  C   C724      1.0  0.89323  0.48034  0.30760  1.0000
  H   H724      1.0  0.83891  0.45745  0.26597  1.0000
  H   H725      1.0  0.71143  0.18568  0.25076  1.0000
  Fe  Fe121     1.0  0.75207  0.99942  0.40366  1.0000
  C   C725      1.0  0.85698  0.07818  0.42684  1.0000
  H   H726      1.0  0.92338  0.41915  0.27515  1.0000
  C   C726      1.0  0.68773  0.20282  0.27199  1.0000
  H   H727      1.0  0.87952  0.15840  0.45232  1.0000
  H   H728      1.0  0.92194  0.18026  0.44021  1.0000
  H   H729      1.0  0.84920  0.11107  0.44580  1.0000
  H   H730      1.0  0.83465  0.41053  0.26846  1.0000
  H   H731      1.0  0.82647  0.44713  0.33483  1.0000
  H   H732      1.0  0.92797  0.28703  0.45901  1.0000
  C   C727      1.0  0.72332  0.19460  0.26074  1.0000
  C   C728      1.0  0.89812  0.11822  0.42374  1.0000
  C   C729      1.0  0.91553  0.14487  0.42721  1.0000
  C   C730      1.0  0.59977  0.04638  0.32363  1.0000
  C   C731      1.0  0.85651  0.45357  0.26842  1.0000
  H   H733      1.0  0.54846  0.01433  0.29244  1.0000
  C   C732      1.0  0.88504  0.14705  0.44444  1.0000
  H   H734      1.0  0.62180  0.02477  0.31510  1.0000
  H   H735      1.0  0.78484  0.45004  0.32576  1.0000
  H   H736      1.0  0.75004  0.24772  0.26646  1.0000
  H   H737      1.0  0.95290  0.34424  0.40691  1.0000
  C   C733      1.0  0.93615  0.29868  0.44992  1.0000
  N   N59       1.0  0.90137  0.44373  0.27550  1.0000
  N   N60       1.0  0.71332  0.21295  0.26752  1.0000
  H   H738      1.0  0.54313  0.45215  0.30940  1.0000
  C   C734      1.0  0.48295  0.45520  0.30181  1.0000
  C   C735      1.0  0.97384  0.26804  0.46987  1.0000
  C   C736      1.0  0.50139  0.44433  0.30546  1.0000
  H   H739      1.0  0.94361  0.45438  0.27651  1.0000
  C   C737      1.0  0.87684  0.42274  0.27342  1.0000
  S   S243      1.0  0.96357  0.21337  0.41989  1.0000
  C   C738      1.0  0.57337  0.07046  0.33232  1.0000
  H   H740      1.0  0.68744  0.25936  0.28775  1.0000
  C   C739      1.0  0.48739  0.10165  0.29845  1.0000
  C   C740      1.0  0.65183  0.11933  0.24060  1.0000
  H   H741      1.0  0.49422  0.42345  0.30801  1.0000
  S   S244      1.0  0.70859  0.99173  0.44854  1.0000
  C   C741      1.0  0.80267  0.46838  0.32787  1.0000
  C   C742      1.0  0.70924  0.98966  0.47756  1.0000
  H   H742      1.0  0.92581  0.43766  0.29158  1.0000
  C   C743      1.0  0.92472  0.43856  0.27993  1.0000
  S   S245      1.0  0.96684  0.23862  0.38881  1.0000
  C   C744      1.0  0.82611  0.46660  0.33313  1.0000
  C   C745      1.0  0.96880  0.34283  0.41405  1.0000
  C   C746      1.0  0.85115  0.48243  0.30078  1.0000
  C   C747      1.0  0.96185  0.31917  0.45087  1.0000
  H   H743      1.0  0.97373  0.32345  0.46074  1.0000
  C   C748      1.0  0.97229  0.33355  0.43895  1.0000
  H   H744      1.0  0.70178  0.10034  0.23468  1.0000
  Fe  Fe122     1.0  0.76178  0.05520  0.56118  1.0000
  S   S246      1.0  0.72122  0.04930  0.55173  1.0000
  S   S247      1.0  0.79161  0.09578  0.57095  1.0000
  S   S248      1.0  0.71100  0.98731  0.54348  1.0000
  H   H745      1.0  0.81102  0.16614  0.54743  1.0000
  Fe  Fe123     1.0  0.73103  0.02742  0.53366  1.0000
  S   S249      1.0  0.73169  0.04354  0.51160  1.0000
  Fe  Fe124     1.0  0.70442  0.00966  0.56251  1.0000
  H   H746      1.0  0.76815  0.12671  0.54954  1.0000
  S   S250      1.0  0.77205  0.03509  0.54293  1.0000
  S   S251      1.0  0.74432  0.01735  0.57334  1.0000
  Fe  Fe125     1.0  0.93628  0.21791  0.55235  1.0000
  S   S252      1.0  0.93231  0.25583  0.54597  1.0000
  S   S253      1.0  0.90352  0.17515  0.54768  1.0000
  H   H747      1.0  0.81568  0.06016  0.58924  1.0000
  H   H748      1.0  0.82442  0.13185  0.50921  1.0000
  H   H749      1.0  0.79950  0.01851  0.57404  1.0000
  Fe  Fe126     1.0  0.75141  0.99682  0.55403  1.0000
  H   H750      1.0  0.85288  0.18648  0.53709  1.0000
  S   S254      1.0  0.96028  0.23743  0.57250  1.0000
  H   H751      1.0  0.87436  0.12170  0.58210  1.0000
  C   C749      1.0  0.84561  0.17469  0.52691  1.0000
  C   C750      1.0  0.77180  0.10715  0.53023  1.0000
  C   C751      1.0  0.85678  0.05483  0.55803  1.0000
  H   H752      1.0  0.93217  0.23771  0.50229  1.0000
  C   C752      1.0  0.72640  0.02837  0.49424  1.0000
  C   C753      1.0  0.94393  0.24617  0.49334  1.0000
  H   H753      1.0  0.84310  0.18802  0.51891  1.0000
  S   S255      1.0  0.95422  0.30368  0.58297  1.0000
  C   C754      1.0  0.86585  0.07792  0.56700  1.0000
  C   C755      1.0  0.82219  0.11797  0.56403  1.0000
  C   C756      1.0  0.83629  0.14362  0.57061  1.0000
  C   C757      1.0  0.86117  0.16145  0.56581  1.0000
  C   C758      1.0  0.87236  0.15375  0.55439  1.0000
  C   C759      1.0  0.85812  0.12818  0.54774  1.0000
  C   C760      1.0  0.83316  0.11047  0.55245  1.0000
  H   H754      1.0  0.82800  0.14971  0.57956  1.0000
  H   H755      1.0  0.87174  0.18107  0.57101  1.0000
  H   H756      1.0  0.86645  0.12205  0.53883  1.0000
  H   H757      1.0  0.82257  0.09091  0.54721  1.0000
  C   C761      1.0  0.97017  0.34034  0.60583  1.0000
  C   C762      1.0  0.71433  0.00052  0.49157  1.0000
  H   H758      1.0  0.58935  0.00461  0.64638  1.0000
  H   H759      1.0  0.82533  0.01524  0.55373  1.0000
  H   H760      1.0  0.88450  0.09462  0.56493  1.0000
  C   C763      1.0  0.81813  0.03517  0.57198  1.0000
  N   N61       1.0  0.56338  0.00216  0.62886  1.0000
  C   C764      1.0  0.78777  0.10855  0.51890  1.0000
  C   C765      1.0  0.78017  0.12802  0.54051  1.0000
  Fe  Fe127     1.0  0.95939  0.27619  0.56546  1.0000
  H   H761      1.0  0.78125  0.09229  0.51087  1.0000
  H   H762      1.0  0.86825  0.05366  0.54914  1.0000
  H   H763      1.0  0.75298  0.08984  0.53103  1.0000
  C   C766      1.0  0.86119  0.10365  0.58757  1.0000
  H   H764      1.0  0.68251  0.00959  0.60156  1.0000
  C   C767      1.0  0.80451  0.15019  0.53928  1.0000
  C   C768      1.0  0.83276  0.03333  0.56058  1.0000
  H   H765      1.0  0.84433  0.10805  0.59145  1.0000
  H   H766      1.0  0.94922  0.33151  0.60822  1.0000
  H   H767      1.0  0.87267  0.10060  0.59670  1.0000
  H   H768      1.0  0.65975  0.00079  0.62425  1.0000
  H   H769      1.0  0.86167  0.16830  0.52383  1.0000
  H   H770      1.0  0.52758  0.99057  0.64016  1.0000
  C   C769      1.0  0.81208  0.13092  0.51804  1.0000
  C   C770      1.0  0.58092  0.01744  0.64093  1.0000
  N   N62       1.0  0.85110  0.07968  0.57803  1.0000
  C   C771      1.0  0.82755  0.05866  0.58061  1.0000
  N   N63       1.0  0.82025  0.15127  0.52822  1.0000
  H   H771      1.0  0.56990  0.02430  0.64861  1.0000
  C   C772      1.0  0.64887  0.99014  0.61469  1.0000
  C   C773      1.0  0.66191  0.99520  0.60178  1.0000
  H   H772      1.0  0.59785  0.03545  0.63744  1.0000
  C   C774      1.0  0.53633  0.98925  0.63025  1.0000
  S   S256      1.0  0.66315  0.98806  0.57236  1.0000
  H   H773      1.0  0.59597  0.00904  0.61557  1.0000
  C   C775      1.0  0.57441  0.99965  0.61649  1.0000
  H   H774      1.0  0.97132  0.27230  0.60596  1.0000
  H   H775      1.0  0.70829  0.98738  0.50028  1.0000
  Fe  Fe128     1.0  0.97030  0.26429  0.53450  1.0000
  H   H776      1.0  0.74301  0.06662  0.48460  1.0000
  C   C776      1.0  0.96954  0.26679  0.49553  1.0000
  S   S257      1.0  0.97375  0.22619  0.54027  1.0000
  C   C777      1.0  0.97847  0.33073  0.59377  1.0000
  H   H777      1.0  0.64348  0.02578  0.85118  1.0000
  H   H778      1.0  0.74034  0.01403  0.95338  1.0000
  Fe  Fe129     1.0  0.76709  0.04024  0.90148  1.0000
  S   S258      1.0  0.73479  0.05559  0.90279  1.0000
  S   S259      1.0  0.81109  0.06544  0.89696  1.0000
  Fe  Fe130     1.0  0.72324  0.03141  0.92229  1.0000
  S   S260      1.0  0.71272  0.04667  0.94292  1.0000
  Fe  Fe131     1.0  0.70810  0.01752  0.89012  1.0000
  N   N64       1.0  0.88536  0.18818  0.93188  1.0000
  S   S261      1.0  0.75690  0.01815  0.92163  1.0000
  S   S262      1.0  0.74129  0.00337  0.88773  1.0000
  Fe  Fe132     1.0  0.92612  0.21730  0.89614  1.0000
  S   S263      1.0  0.93978  0.25840  0.90726  1.0000
  S   S264      1.0  0.88056  0.19201  0.89465  1.0000
  C   C778      1.0  0.78013  0.06280  0.86381  1.0000
  H   H779      1.0  0.88603  0.22401  0.92335  1.0000
  H   H780      1.0  0.83266  0.07835  0.86828  1.0000
  S   S265      1.0  0.68113  0.02071  0.87157  1.0000
  S   S266      1.0  0.95437  0.23318  0.87844  1.0000
  S   S267      1.0  0.95463  0.20539  0.90876  1.0000
  H   H781      1.0  0.94557  0.18985  0.94287  1.0000
  C   C779      1.0  0.94907  0.26271  0.95981  1.0000
  H   H782      1.0  0.85404  0.19669  0.92207  1.0000
  H   H783      1.0  0.94392  0.27119  0.95061  1.0000
  C   C780      1.0  0.71879  0.03735  0.96005  1.0000
  H   H784      1.0  0.86728  0.21373  0.93909  1.0000
  H   H785      1.0  0.80765  0.13018  0.86731  1.0000
  C   C781      1.0  0.93963  0.26614  0.97304  1.0000
  H   H786      1.0  0.78569  0.04595  0.86240  1.0000
  C   C782      1.0  0.73221  0.02061  0.96221  1.0000
  H   H787      1.0  0.83074  0.09174  0.85125  1.0000
  H   H788      1.0  0.60495  0.99979  0.77142  1.0000
  C   C783      1.0  0.75312  0.05781  0.86513  1.0000
  C   C784      1.0  0.86193  0.15682  0.89601  1.0000
  C   C785      1.0  0.87398  0.13857  0.89576  1.0000
  C   C786      1.0  0.85820  0.11079  0.89652  1.0000
  C   C787      1.0  0.83026  0.10086  0.89777  1.0000
  C   C788      1.0  0.81833  0.11919  0.89848  1.0000
  C   C789      1.0  0.83402  0.14692  0.89742  1.0000
  H   H789      1.0  0.89540  0.14580  0.89471  1.0000
  H   H790      1.0  0.86770  0.09684  0.89592  1.0000
  H   H791      1.0  0.79689  0.11192  0.89945  1.0000
  H   H792      1.0  0.82445  0.16083  0.89769  1.0000
  C   C790      1.0  0.82740  0.09328  0.86262  1.0000
  C   C791      1.0  0.70846  0.04572  0.97172  1.0000
  C   C792      1.0  0.64150  0.00525  0.85011  1.0000
  C   C793      1.0  0.73424  0.01150  0.97576  1.0000
  H   H793      1.0  0.92298  0.21999  0.93795  1.0000
  C   C794      1.0  0.61491  0.99527  0.78043  1.0000
  C   C795      1.0  0.92452  0.18146  0.93939  1.0000
  H   H794      1.0  0.84139  0.11342  0.86704  1.0000
  H   H795      1.0  0.74376  0.99773  0.97716  1.0000
  Fe  Fe133     1.0  0.97021  0.27337  0.89026  1.0000
  H   H796      1.0  0.73784  0.03741  0.86450  1.0000
  C   C796      1.0  0.91166  0.19847  0.93659  1.0000
  H   H797      1.0  0.61804  0.03002  0.79295  1.0000
  H   H798      1.0  0.72501  0.07547  0.86888  1.0000
  C   C797      1.0  0.79239  0.10977  0.86662  1.0000
  H   H799      1.0  0.92027  0.14042  0.93904  1.0000
  C   C798      1.0  0.87245  0.20653  0.92905  1.0000
  H   H800      1.0  0.87209  0.12190  0.93085  1.0000
  C   C799      1.0  0.91032  0.15376  0.93725  1.0000
  Fe  Fe134     1.0  0.96929  0.24666  0.91931  1.0000
  H   H801      1.0  0.85007  0.15276  0.92666  1.0000
  C   C800      1.0  0.87101  0.16099  0.93024  1.0000
  H   H802      1.0  0.97397  0.39720  0.80942  1.0000
  C   C801      1.0  0.74589  0.07926  0.86751  1.0000
  C   C802      1.0  0.76562  0.10545  0.86829  1.0000
  H   H803      1.0  0.69802  0.05865  0.97018  1.0000
  H   H804      1.0  0.92705  0.27711  0.97388  1.0000
  C   C803      1.0  0.88334  0.14339  0.93269  1.0000
  N   N65       1.0  0.79936  0.08853  0.86460  1.0000
  H   H805      1.0  0.76023  0.12227  0.87027  1.0000
  H   H806      1.0  0.61066  0.99423  0.83326  1.0000
  H   H807      1.0  0.97143  0.29053  0.85152  1.0000
  C   C804      1.0  0.65746  0.99684  0.85906  1.0000
  C   C805      1.0  0.62224  0.01221  0.79252  1.0000
  H   H808      1.0  0.66236  0.99844  0.95649  1.0000
  C   C806      1.0  0.96614  0.24944  0.95868  1.0000
  S   S268      1.0  0.69360  0.99528  0.90981  1.0000
  H   H809      1.0  0.64051  0.01894  0.81355  1.0000
  C   C807      1.0  0.63477  0.00598  0.80406  1.0000
  C   C808      1.0  0.97291  0.23893  0.97083  1.0000
  C   C809      1.0  0.62288  0.98738  0.83988  1.0000
  H   H810      1.0  0.97191  0.37530  0.83209  1.0000
  H   H811      1.0  0.67076  0.99177  0.93935  1.0000
  Fe  Fe135     1.0  0.73359  0.76886  0.03180  1.0000
  S   S269      1.0  0.75882  0.81022  0.04097  1.0000
  S   S270      1.0  0.73871  0.75557  0.00935  1.0000
  Fe  Fe136     1.0  0.70942  0.74840  0.06093  1.0000
  S   S271      1.0  0.73255  0.78920  0.07172  1.0000
  S   S272      1.0  0.68247  0.70759  0.07003  1.0000
  Fe  Fe137     1.0  0.72236  0.80698  0.05231  1.0000
  S   S273      1.0  0.70652  0.83985  0.05045  1.0000
  Fe  Fe138     1.0  0.76719  0.78947  0.05936  1.0000
  S   S274      1.0  0.80859  0.80208  0.06967  1.0000
  S   S275      1.0  0.69629  0.76600  0.04224  1.0000
  S   S276      1.0  0.74491  0.74826  0.04954  1.0000
  Fe  Fe139     1.0  0.93632  0.78858  0.04220  1.0000
  S   S277      1.0  0.89859  0.79103  0.03303  1.0000
  S   S278      1.0  0.93710  0.74826  0.03825  1.0000
  Fe  Fe140     1.0  0.85862  0.55793  0.14771  1.0000
  S   S279      1.0  0.90122  0.58524  0.15430  1.0000
  S   S280      1.0  0.84146  0.51281  0.14185  1.0000
  Fe  Fe141     1.0  0.83902  0.60209  0.15379  1.0000
  S   S281      1.0  0.88014  0.63157  0.16145  1.0000
  S   S282      1.0  0.80849  0.62035  0.15419  1.0000
  Fe  Fe142     1.0  0.89425  0.61733  0.14209  1.0000
  S   S283      1.0  0.92559  0.65086  0.12970  1.0000
  Fe  Fe143     1.0  0.88302  0.59726  0.17290  1.0000
  S   S284      1.0  0.90103  0.59739  0.19510  1.0000
  S   S285      1.0  0.85279  0.58891  0.13410  1.0000
  S   S286      1.0  0.84080  0.56893  0.16667  1.0000
  Fe  Fe144     1.0  0.63638  0.61698  0.14238  1.0000
  S   S287      1.0  0.62209  0.57505  0.13247  1.0000
  S   S288      1.0  0.65148  0.65725  0.13101  1.0000
  Fe  Fe145     1.0  0.63903  0.59619  0.17277  1.0000
  S   S289      1.0  0.62643  0.55387  0.16423  1.0000
  S   S290      1.0  0.65456  0.60229  0.19583  1.0000
  Fe  Fe146     1.0  0.65419  0.57170  0.14686  1.0000
  S   S291      1.0  0.68390  0.55494  0.13993  1.0000
  Fe  Fe147     1.0  0.59531  0.56095  0.15098  1.0000
  S   S292      1.0  0.55097  0.53301  0.15348  1.0000
  S   S293      1.0  0.66900  0.61342  0.15620  1.0000
  S   S294      1.0  0.60732  0.60349  0.16006  1.0000
  S   S295      1.0  0.76618  0.96767  0.05927  1.0000
  C   C810      1.0  0.63901  0.60239  0.21197  1.0000
  C   C811      1.0  0.61485  0.60547  0.21262  1.0000
  H   H812      1.0  0.74679  0.72070  0.11059  1.0000
  H   H813      1.0  0.70477  0.64128  0.09203  1.0000
  C   C812      1.0  0.65142  0.59911  0.22457  1.0000
  H   H814      1.0  0.60526  0.60844  0.20308  1.0000
  H   H815      1.0  0.67019  0.59690  0.22424  1.0000
  C   C813      1.0  0.59425  0.53843  0.20873  1.0000
  C   C814      1.0  0.88159  0.49542  0.14895  1.0000
  C   C815      1.0  0.87689  0.53089  0.18194  1.0000
  H   H816      1.0  0.73492  0.70259  0.13433  1.0000
  C   C816      1.0  0.78733  0.85683  0.01593  1.0000
  S   S296      1.0  0.93401  0.71572  0.07305  1.0000
  H   H817      1.0  0.90421  0.68521  0.00920  1.0000
  H   H818      1.0  0.89500  0.51637  0.15060  1.0000
  C   C817      1.0  0.88630  0.59656  0.21164  1.0000
  N   N66       1.0  0.57208  0.54167  0.20365  1.0000
  H   H819      1.0  0.85493  0.84215  0.03799  1.0000
  C   C818      1.0  0.86188  0.59889  0.21281  1.0000
  H   H820      1.0  0.77593  0.86908  0.01508  1.0000
  H   H821      1.0  0.85129  0.60106  0.20344  1.0000
  C   C819      1.0  0.77437  0.60210  0.14914  1.0000
  C   C820      1.0  0.75685  0.61487  0.15058  1.0000
  C   C821      1.0  0.72922  0.60069  0.14767  1.0000
  C   C822      1.0  0.71880  0.57369  0.14303  1.0000
  C   C823      1.0  0.73643  0.56107  0.14119  1.0000
  C   C824      1.0  0.76415  0.57517  0.14435  1.0000
  H   H822      1.0  0.76464  0.63570  0.15430  1.0000
  H   H823      1.0  0.71612  0.61076  0.14912  1.0000
  H   H824      1.0  0.72861  0.54023  0.13750  1.0000
  H   H825      1.0  0.77754  0.56518  0.14313  1.0000
  C   C825      1.0  0.93269  0.69740  0.08862  1.0000
  C   C826      1.0  0.90947  0.67408  0.09075  1.0000
  C   C827      1.0  0.90698  0.65940  0.10307  1.0000
  C   C828      1.0  0.92787  0.66761  0.11347  1.0000
  C   C829      1.0  0.95133  0.69056  0.11118  1.0000
  C   C830      1.0  0.95369  0.70543  0.09894  1.0000
  H   H826      1.0  0.89307  0.66747  0.08288  1.0000
  H   H827      1.0  0.88889  0.64173  0.10451  1.0000
  C   C831      1.0  0.73136  0.97975  0.09274  1.0000
  H   H828      1.0  0.83106  0.84554  0.04960  1.0000
  C   C832      1.0  0.83285  0.79644  0.05992  1.0000
  C   C833      1.0  0.85896  0.80426  0.06584  1.0000
  C   C834      1.0  0.87913  0.80168  0.05790  1.0000
  C   C835      1.0  0.87334  0.79162  0.04392  1.0000
  C   C836      1.0  0.84712  0.78339  0.03810  1.0000
  C   C837      1.0  0.82687  0.78558  0.04610  1.0000
  H   H829      1.0  0.86371  0.81274  0.07652  1.0000
  H   H830      1.0  0.89932  0.80826  0.06244  1.0000
  H   H831      1.0  0.84251  0.77536  0.02734  1.0000
  H   H832      1.0  0.80676  0.77931  0.04150  1.0000
  C   C838      1.0  0.72462  0.87540  0.05197  1.0000
  C   C839      1.0  0.75013  0.88765  0.05871  1.0000
  C   C840      1.0  0.76283  0.91592  0.06056  1.0000
  C   C841      1.0  0.75045  0.93232  0.05552  1.0000
  C   C842      1.0  0.72527  0.92010  0.04844  1.0000
  C   C843      1.0  0.71235  0.89184  0.04682  1.0000
  H   H833      1.0  0.75975  0.87533  0.06283  1.0000
  H   H834      1.0  0.78225  0.92510  0.06611  1.0000
  H   H835      1.0  0.71558  0.93240  0.04439  1.0000
  H   H836      1.0  0.69268  0.88261  0.04154  1.0000
  C   C844      1.0  0.67368  0.69424  0.08713  1.0000
  C   C845      1.0  0.68094  0.71032  0.09962  1.0000
  C   C846      1.0  0.67353  0.69868  0.11281  1.0000
  C   C847      1.0  0.65909  0.67075  0.11385  1.0000
  C   C848      1.0  0.65176  0.65468  0.10134  1.0000
  C   C849      1.0  0.65890  0.66635  0.08814  1.0000
  H   H837      1.0  0.69207  0.73178  0.09915  1.0000
  H   H838      1.0  0.67919  0.71147  0.12232  1.0000
  H   H839      1.0  0.64027  0.63328  0.10180  1.0000
  H   H840      1.0  0.65284  0.65359  0.07862  1.0000
  C   C850      1.0  0.73150  0.76541  0.99252  1.0000
  C   C851      1.0  0.55714  0.54121  0.22716  1.0000
  H   H841      1.0  0.94207  0.73715  0.13229  1.0000
  C   C852      1.0  0.70866  0.98322  0.08787  1.0000
  H   H842      1.0  0.71040  0.78859  0.00006  1.0000
  H   H843      1.0  0.58277  0.56561  0.18581  1.0000
  C   C853      1.0  0.68380  0.67950  0.03722  1.0000
  H   H844      1.0  0.75155  0.95301  0.09290  1.0000
  C   C854      1.0  0.94556  0.69776  0.01619  1.0000
  C   C855      1.0  0.97251  0.69364  0.05235  1.0000
  H   H845      1.0  0.82605  0.81187  0.02024  1.0000
  H   H846      1.0  0.58459  0.60747  0.22610  1.0000
  H   H847      1.0  0.53663  0.54677  0.20869  1.0000
  C   C856      1.0  0.68865  0.61626  0.11590  1.0000
  H   H848      1.0  0.88695  0.72560  0.09690  1.0000
  H   H849      1.0  0.93084  0.75202  0.10937  1.0000
  C   C857      1.0  0.56904  0.54507  0.18855  1.0000
  C   C858      1.0  0.66857  0.71977  0.00979  1.0000
  C   C859      1.0  0.89979  0.59388  0.22402  1.0000
  C   C860      1.0  0.96321  0.69995  0.02765  1.0000
  H   H850      1.0  0.67698  0.53445  0.16872  1.0000
  H   H851      1.0  0.86404  0.53752  0.18850  1.0000
  H   H852      1.0  0.95329  0.70570  0.00616  1.0000
  C   C861      1.0  0.59820  0.53614  0.22317  1.0000
  C   C862      1.0  0.50432  0.48759  0.15602  1.0000
  N   N67       1.0  0.69109  0.93905  0.07662  1.0000
  H   H853      1.0  0.84037  0.65715  0.12704  1.0000
  C   C863      1.0  0.86117  0.66378  0.13159  1.0000
  H   H854      1.0  0.60945  0.53853  0.20166  1.0000
  C   C864      1.0  0.88609  0.49108  0.18618  1.0000
  H   H855      1.0  0.67069  0.66675  0.04521  1.0000
  N   N68       1.0  0.71449  0.56305  0.17767  1.0000
  C   C865      1.0  0.74165  0.57062  0.17834  1.0000
  C   C866      1.0  0.70386  0.58062  0.18201  1.0000
  C   C867      1.0  0.75896  0.59660  0.18314  1.0000
  C   C868      1.0  0.72056  0.60675  0.18688  1.0000
  C   C869      1.0  0.74829  0.61477  0.18739  1.0000
  C   C870      1.0  0.69669  0.53555  0.17288  1.0000
  H   H856      1.0  0.75013  0.55680  0.17478  1.0000
  H   H857      1.0  0.68234  0.57459  0.18163  1.0000
  H   H858      1.0  0.78054  0.60281  0.18317  1.0000
  H   H859      1.0  0.71193  0.62062  0.19020  1.0000
  H   H860      1.0  0.76151  0.63508  0.19096  1.0000
  C   C871      1.0  0.60325  0.60505  0.22571  1.0000
  H   H861      1.0  0.67162  0.92518  0.05654  1.0000
  H   H862      1.0  0.69346  0.52189  0.18170  1.0000
  H   H863      1.0  0.63901  0.73646  0.01026  1.0000
  C   C872      1.0  0.91624  0.73465  0.11416  1.0000
  H   H864      1.0  0.69432  0.60849  0.12558  1.0000
  H   H865      1.0  0.85455  0.68483  0.10742  1.0000
  H   H866      1.0  0.70251  0.69384  0.04285  1.0000
  H   H867      1.0  0.90945  0.69598  0.14231  1.0000
  C   C873      1.0  0.55374  0.54331  0.21265  1.0000
  H   H868      1.0  0.91871  0.59209  0.22326  1.0000
  C   C874      1.0  0.52982  0.49809  0.15029  1.0000
  H   H869      1.0  0.64392  0.69183  0.04590  1.0000
  C   C875      1.0  0.92661  0.67911  0.04217  1.0000
  H   H870      1.0  0.68875  0.66623  0.02984  1.0000
  Fe  Fe148     1.0  0.95617  0.75353  0.06023  1.0000
  C   C876      1.0  0.95509  0.76073  0.99109  1.0000
  H   H871      1.0  0.87539  0.53662  0.17094  1.0000
  H   H872      1.0  0.70806  0.65408  0.13652  1.0000
  C   C877      1.0  0.79541  0.81834  0.00828  1.0000
  S   S297      1.0  0.95350  0.79336  0.06443  1.0000
  C   C878      1.0  0.71421  0.66162  0.12621  1.0000
  C   C879      1.0  0.92251  0.72634  0.12702  1.0000
  N   N69       1.0  0.87962  0.68881  0.12580  1.0000
  H   H873      1.0  0.67636  0.72831  0.99987  1.0000
  C   C880      1.0  0.71718  0.78144  0.99088  1.0000
  C   C881      1.0  0.72733  0.68189  0.09980  1.0000
  N   N70       1.0  0.70608  0.64466  0.11448  1.0000
  C   C882      1.0  0.72930  0.68914  0.12503  1.0000
  H   H874      1.0  0.94379  0.76157  0.00009  1.0000
  C   C883      1.0  0.80749  0.86266  0.02658  1.0000
  H   H875      1.0  0.81146  0.87953  0.03398  1.0000
  C   C884      1.0  0.84135  0.85252  0.03966  1.0000
  N   N71       1.0  0.67081  0.69441  0.02967  1.0000
  C   C885      1.0  0.65055  0.69910  0.03559  1.0000
  H   H876      1.0  0.61623  0.53450  0.22725  1.0000
  C   C886      1.0  0.73359  0.95562  0.08961  1.0000
  H   H877      1.0  0.89795  0.54219  0.18603  1.0000
  C   C887      1.0  0.71227  0.65447  0.10138  1.0000
  C   C888      1.0  0.73589  0.69928  0.11172  1.0000
  H   H878      1.0  0.85409  0.87437  0.04097  1.0000
  C   C889      1.0  0.68005  0.70476  0.01702  1.0000
  C   C890      1.0  0.63855  0.71398  0.02863  1.0000
  C   C891      1.0  0.64768  0.72437  0.01564  1.0000
  H   H879      1.0  0.62280  0.71803  0.03348  1.0000
  H   H880      1.0  0.70532  0.52847  0.16402  1.0000
  C   C892      1.0  0.90392  0.70313  0.13268  1.0000
  H   H881      1.0  0.73135  0.68979  0.08938  1.0000
  C   C893      1.0  0.81550  0.82481  0.01900  1.0000
  H   H882      1.0  0.96773  0.69714  0.11905  1.0000
  C   C894      1.0  0.78127  0.83448  0.00675  1.0000
  H   H883      1.0  0.54821  0.54192  0.18526  1.0000
  H   H884      1.0  0.71538  0.91689  0.07888  1.0000
  N   N72       1.0  0.82137  0.84680  0.02795  1.0000
  H   H885      1.0  0.83258  0.60103  0.22692  1.0000
  C   C895      1.0  0.85132  0.59887  0.22616  1.0000
  C   C896      1.0  0.90841  0.67690  0.03099  1.0000
  H   H886      1.0  0.69681  0.70195  0.01256  1.0000
  H   H887      1.0  0.90671  0.50407  0.18925  1.0000
  H   H888      1.0  0.76528  0.82931  0.99864  1.0000
  H   H889      1.0  0.86022  0.66628  0.14318  1.0000
  C   C897      1.0  0.89152  0.71979  0.10716  1.0000
  C   C898      1.0  0.87335  0.69672  0.11315  1.0000
  H   H890      1.0  0.68998  0.60351  0.10689  1.0000
  H   H891      1.0  0.66756  0.61391  0.11651  1.0000
  C   C899      1.0  0.67041  0.91833  0.06748  1.0000
  H   H892      1.0  0.86823  0.64767  0.12941  1.0000
  H   H893      1.0  0.67292  0.89907  0.06726  1.0000
  H   H894      1.0  0.88707  0.66856  0.03257  1.0000
  H   H895      1.0  0.91899  0.67232  0.05239  1.0000
  H   H896      1.0  0.79031  0.80048  0.00145  1.0000
  H   H897      1.0  0.65017  0.91428  0.07125  1.0000
  C   C900      1.0  0.68870  0.96263  0.07968  1.0000
  C   C901      1.0  0.71309  0.93531  0.08154  1.0000
  H   H898      1.0  0.49821  0.50068  0.16238  1.0000
  N   N73       1.0  0.86829  0.50175  0.18222  1.0000
  Fe  Fe149     1.0  0.97799  0.77085  0.03038  1.0000
  H   H899      1.0  0.57369  0.53021  0.18219  1.0000
  C   C902      1.0  0.91802  0.68628  0.01791  1.0000
  H   H900      1.0  0.69017  0.94685  0.98659  1.0000
  N   N74       1.0  0.95362  0.69036  0.04039  1.0000
  H   H901      1.0  0.96291  0.67954  0.06073  1.0000
  S   S298      1.0  0.97621  0.81101  0.03288  1.0000
  H   H902      1.0  0.97176  0.72315  0.09754  1.0000
  C   C903      1.0  0.85492  0.48840  0.14435  1.0000
  H   H903      1.0  0.67148  0.96583  0.07560  1.0000
  C   C904      1.0  0.57949  0.53754  0.23242  1.0000
  H   H904      1.0  0.82882  0.49390  0.17416  1.0000
  H   H905      1.0  0.55660  0.48849  0.13741  1.0000
  Fe  Fe150     1.0  0.71212  0.76800  0.42586  1.0000
  S   S299      1.0  0.74661  0.80732  0.42315  1.0000
  S   S300      1.0  0.68903  0.76042  0.44611  1.0000
  Fe  Fe151     1.0  0.71369  0.74686  0.39464  1.0000
  S   S301      1.0  0.74859  0.78561  0.39025  1.0000
  S   S302      1.0  0.69970  0.70742  0.38057  1.0000
  Fe  Fe152     1.0  0.76541  0.78280  0.41189  1.0000
  S   S303      1.0  0.80434  0.78104  0.41974  1.0000
  Fe  Fe153     1.0  0.72668  0.80699  0.40200  1.0000
  S   S304      1.0  0.71363  0.84052  0.39594  1.0000
  S   S305      1.0  0.73169  0.74336  0.41585  1.0000
  S   S306      1.0  0.69078  0.76816  0.40514  1.0000
  H   H906      1.0  0.58292  0.53704  0.24371  1.0000
  Fe  Fe154     1.0  0.61478  0.59072  0.27553  1.0000
  S   S307      1.0  0.62225  0.55364  0.27814  1.0000
  S   S308      1.0  0.59893  0.59868  0.25434  1.0000
  Fe  Fe155     1.0  0.63216  0.61041  0.30698  1.0000
  S   S309      1.0  0.64091  0.57430  0.31139  1.0000
  S   S310      1.0  0.63838  0.64670  0.32216  1.0000
  Fe  Fe156     1.0  0.65991  0.58084  0.29039  1.0000
  S   S311      1.0  0.69993  0.58384  0.28304  1.0000
  Fe  Fe157     1.0  0.60198  0.54998  0.29868  1.0000
  S   S312      1.0  0.57423  0.50825  0.30574  1.0000
  S   S313      1.0  0.65343  0.61829  0.28663  1.0000
  S   S314      1.0  0.59207  0.58574  0.29548  1.0000
  Fe  Fe158     1.0  0.86162  0.59278  0.27809  1.0000
  S   S315      1.0  0.83979  0.55312  0.28798  1.0000
  S   S316      1.0  0.85108  0.59801  0.25510  1.0000
  Fe  Fe159     1.0  0.88854  0.62182  0.30699  1.0000
  S   S317      1.0  0.86915  0.58385  0.31852  1.0000
  S   S318      1.0  0.91485  0.66454  0.31632  1.0000
  Fe  Fe160     1.0  0.87856  0.56235  0.30022  1.0000
  S   S319      1.0  0.89610  0.53113  0.30347  1.0000
  Fe  Fe161     1.0  0.83183  0.57735  0.30532  1.0000
  S   S320      1.0  0.79224  0.56292  0.31589  1.0000
  S   S321      1.0  0.90131  0.60108  0.28940  1.0000
  S   S322      1.0  0.85046  0.61635  0.29473  1.0000
  H   H907      1.0  0.90240  0.80952  0.36272  1.0000
  Fe  Fe162     1.0  0.94732  0.80907  0.39993  1.0000
  S   S323      1.0  0.91836  0.82712  0.39310  1.0000
  S   S324      1.0  0.93180  0.76605  0.40549  1.0000
  C   C905      1.0  0.93779  0.70678  0.36110  1.0000
  C   C906      1.0  0.94366  0.72157  0.34892  1.0000
  C   C907      1.0  0.93631  0.70832  0.33541  1.0000
  C   C908      1.0  0.92262  0.68013  0.33377  1.0000
  C   C909      1.0  0.91630  0.66542  0.34595  1.0000
  C   C910      1.0  0.56353  0.50925  0.33987  1.0000
  C   C911      1.0  0.87875  0.49567  0.30393  1.0000
  H   H908      1.0  0.90593  0.64378  0.34499  1.0000
  H   H909      1.0  0.64705  0.70956  0.43915  1.0000
  H   H910      1.0  0.90296  0.78507  0.34955  1.0000
  N   N75       1.0  0.93434  0.67042  0.27576  1.0000
  H   H911      1.0  0.85081  0.71199  0.39329  1.0000
  C   C912      1.0  0.72489  0.57759  0.29257  1.0000
  C   C913      1.0  0.74930  0.58308  0.28629  1.0000
  C   C914      1.0  0.77005  0.57882  0.29343  1.0000
  C   C915      1.0  0.76652  0.56892  0.30693  1.0000
  C   C916      1.0  0.74213  0.56349  0.31330  1.0000
  C   C917      1.0  0.72135  0.56792  0.30616  1.0000
  H   H912      1.0  0.75216  0.59053  0.27578  1.0000
  H   H913      1.0  0.78866  0.58291  0.28838  1.0000
  H   H914      1.0  0.73929  0.55581  0.32375  1.0000
  H   H915      1.0  0.70259  0.56364  0.31108  1.0000
  C   C918      1.0  0.89707  0.65921  0.25324  1.0000
  H   H916      1.0  0.95953  0.66312  0.26104  1.0000
  H   H917      1.0  0.75663  0.76285  0.48268  1.0000
  H   H918      1.0  0.52787  0.51969  0.29665  1.0000
  C   C919      1.0  0.96013  0.76129  0.47323  1.0000
  C   C920      1.0  0.83588  0.79478  0.41222  1.0000
  C   C921      1.0  0.85623  0.78765  0.41758  1.0000
  C   C922      1.0  0.88169  0.79785  0.41195  1.0000
  C   C923      1.0  0.88713  0.81555  0.40100  1.0000
  C   C924      1.0  0.86693  0.82306  0.39577  1.0000
  C   C925      1.0  0.84125  0.81249  0.40126  1.0000
  H   H919      1.0  0.85221  0.77404  0.42610  1.0000
  H   H920      1.0  0.89710  0.79206  0.41613  1.0000
  H   H921      1.0  0.87105  0.83685  0.38733  1.0000
  H   H922      1.0  0.82574  0.81824  0.39714  1.0000
  C   C926      1.0  0.73006  0.87626  0.39670  1.0000
  C   C927      1.0  0.71444  0.89128  0.39520  1.0000
  C   C928      1.0  0.72629  0.91962  0.39615  1.0000
  C   C929      1.0  0.75408  0.93338  0.39825  1.0000
  C   C930      1.0  0.76974  0.91840  0.39965  1.0000
  C   C931      1.0  0.75782  0.89003  0.39905  1.0000
  H   H923      1.0  0.69297  0.88088  0.39333  1.0000
  H   H924      1.0  0.71397  0.93080  0.39492  1.0000
  H   H925      1.0  0.79128  0.92881  0.40117  1.0000
  H   H926      1.0  0.77014  0.87883  0.40017  1.0000
  C   C932      1.0  0.68276  0.69117  0.36416  1.0000
  C   C933      1.0  0.68208  0.66575  0.36018  1.0000
  C   C934      1.0  0.66873  0.65185  0.34745  1.0000
  C   C935      1.0  0.65560  0.66309  0.33848  1.0000
  C   C936      1.0  0.65622  0.68844  0.34247  1.0000
  C   C937      1.0  0.66973  0.70242  0.35515  1.0000
  H   H927      1.0  0.69206  0.65676  0.36699  1.0000
  H   H928      1.0  0.66867  0.63249  0.34461  1.0000
  H   H929      1.0  0.64618  0.69746  0.33570  1.0000
  H   H930      1.0  0.66993  0.72187  0.35797  1.0000
  H   H931      1.0  0.68901  0.69777  0.31404  1.0000
  H   H932      1.0  0.86733  0.53298  0.33400  1.0000
  H   H933      1.0  0.66198  0.87686  0.42680  1.0000
  C   C938      1.0  0.54887  0.54209  0.32938  1.0000
  S   S325      1.0  0.77021  0.96912  0.39895  1.0000
  H   H934      1.0  0.89975  0.59161  0.24676  1.0000
  C   C939      1.0  0.89072  0.66481  0.26669  1.0000
  C   C940      1.0  0.74147  0.95163  0.43362  1.0000
  C   C941      1.0  0.68504  0.75847  0.47490  1.0000
  C   C942      1.0  0.70197  0.76140  0.46367  1.0000
  C   C943      1.0  0.72798  0.76338  0.46661  1.0000
  C   C944      1.0  0.61541  0.60122  0.23827  1.0000
  H   H935      1.0  0.73208  0.96239  0.42713  1.0000
  H   H936      1.0  0.66478  0.75663  0.47274  1.0000
  H   H937      1.0  0.74124  0.76553  0.45810  1.0000
  H   H938      1.0  0.52980  0.52591  0.32613  1.0000
  Fe  Fe163     1.0  0.96250  0.76299  0.39117  1.0000
  H   H939      1.0  0.89695  0.76516  0.46166  1.0000
  H   H940      1.0  0.88347  0.49548  0.27026  1.0000
  N   N76       1.0  0.56849  0.53677  0.33623  1.0000
  H   H941      1.0  0.83977  0.49390  0.29785  1.0000
  H   H942      1.0  0.92866  0.79824  0.36369  1.0000
  H   H943      1.0  0.76071  0.91373  0.43257  1.0000
  C   C945      1.0  0.92196  0.65861  0.25119  1.0000
  H   H944      1.0  0.67371  0.70263  0.45705  1.0000
  C   C946      1.0  0.59780  0.58369  0.33708  1.0000
  H   H945      1.0  0.88224  0.65417  0.24452  1.0000
  C   C947      1.0  0.59272  0.55714  0.34006  1.0000
  H   H946      1.0  0.67229  0.67711  0.29874  1.0000
  N   N77       1.0  0.67503  0.69223  0.43523  1.0000
  H   H947      1.0  0.87090  0.66399  0.26847  1.0000
  H   H948      1.0  0.70214  0.67577  0.42830  1.0000
  C   C948      1.0  0.71627  0.66455  0.29364  1.0000
  Fe  Fe164     1.0  0.96382  0.78040  0.42299  1.0000
  H   H949      1.0  0.95446  0.74315  0.34988  1.0000
  H   H950      1.0  0.73643  0.64064  0.28549  1.0000
  H   H951      1.0  0.69931  0.96814  0.47563  1.0000
  H   H952      1.0  0.54310  0.54337  0.23437  1.0000
  C   C949      1.0  0.68589  0.68147  0.42534  1.0000
  C   C950      1.0  0.65526  0.70043  0.43139  1.0000
  C   C951      1.0  0.67694  0.67862  0.41119  1.0000
  C   C952      1.0  0.64615  0.69828  0.41730  1.0000
  C   C953      1.0  0.65709  0.68728  0.40716  1.0000
  H   H953      1.0  0.56134  0.50706  0.35137  1.0000
  H   H954      1.0  0.77196  0.50729  0.32662  1.0000
  N   N78       1.0  0.80251  0.49282  0.32511  1.0000
  H   H955      1.0  0.63127  0.70580  0.41421  1.0000
  H   H956      1.0  0.76221  0.95781  0.43006  1.0000
  H   H957      1.0  0.92657  0.65324  0.24083  1.0000
  H   H958      1.0  0.74207  0.95826  0.44483  1.0000
  N   N79       1.0  0.72608  0.92256  0.43174  1.0000
  C   C954      1.0  0.69872  0.91245  0.43039  1.0000
  C   C955      1.0  0.73901  0.90569  0.43171  1.0000
  C   C956      1.0  0.68360  0.88476  0.42836  1.0000
  C   C957      1.0  0.72450  0.87790  0.42988  1.0000
  C   C958      1.0  0.69666  0.86745  0.42800  1.0000
  C   C959      1.0  0.92357  0.80676  0.46535  1.0000
  H   H959      1.0  0.90447  0.67445  0.28836  1.0000
  H   H960      1.0  0.82492  0.53512  0.32536  1.0000
  C   C960      1.0  0.92399  0.67863  0.35946  1.0000
  H   H961      1.0  0.73481  0.86461  0.42914  1.0000
  H   H962      1.0  0.68539  0.84602  0.42586  1.0000
  H   H963      1.0  0.95134  0.84664  0.47229  1.0000
  H   H964      1.0  0.64928  0.59539  0.24716  1.0000
  H   H965      1.0  0.94879  0.65732  0.29373  1.0000
  H   H966      1.0  0.58196  0.60979  0.32743  1.0000
  C   C961      1.0  0.90970  0.67041  0.27790  1.0000
  S   S326      1.0  0.97688  0.82393  0.41858  1.0000
  C   C962      1.0  0.63965  0.59834  0.23761  1.0000
  C   C963      1.0  0.55337  0.56839  0.32612  1.0000
  H   H967      1.0  0.70272  0.70703  0.29710  1.0000
  C   C964      1.0  0.94042  0.66411  0.26267  1.0000
  C   C965      1.0  0.93853  0.82676  0.47548  1.0000
  C   C966      1.0  0.69237  0.68975  0.30374  1.0000
  C   C967      1.0  0.73666  0.76188  0.48059  1.0000
  H   H968      1.0  0.94679  0.74025  0.47189  1.0000
  C   C968      1.0  0.84907  0.51477  0.33262  1.0000
  H   H969      1.0  0.68609  0.67721  0.45370  1.0000
  H   H970      1.0  0.70649  0.71207  0.45053  1.0000
  H   H971      1.0  0.60840  0.55287  0.34529  1.0000
  C   C969      1.0  0.52070  0.49877  0.29912  1.0000
  H   H972      1.0  0.61714  0.59982  0.33996  1.0000
  C   C970      1.0  0.88908  0.59357  0.23737  1.0000
  C   C971      1.0  0.73061  0.64845  0.29484  1.0000
  H   H973      1.0  0.91933  0.66685  0.36873  1.0000
  H   H974      1.0  0.68613  0.67084  0.40328  1.0000
  H   H975      1.0  0.71110  0.66914  0.28321  1.0000
  S   S327      1.0  0.95428  0.76164  0.44445  1.0000
  C   C972      1.0  0.57798  0.58930  0.33007  1.0000
  H   H976      1.0  0.53806  0.57246  0.32035  1.0000
  C   C973      1.0  0.53909  0.48804  0.30311  1.0000
  N   N80       1.0  0.70811  0.67363  0.30538  1.0000
  H   H977      1.0  0.78210  0.50461  0.30907  1.0000
  C   C974      1.0  0.71388  0.66703  0.31849  1.0000
  H   H978      1.0  0.92467  0.81095  0.45423  1.0000
  C   C975      1.0  0.72803  0.65080  0.32007  1.0000
  C   C976      1.0  0.73640  0.64145  0.30814  1.0000
  H   H979      1.0  0.70740  0.67417  0.32780  1.0000
  C   C977      1.0  0.96736  0.77694  0.46132  1.0000
  H   H980      1.0  0.73225  0.64531  0.33046  1.0000
  H   H981      1.0  0.74701  0.62847  0.30915  1.0000
  H   H982      1.0  0.94148  0.72004  0.32614  1.0000
  C   C978      1.0  0.68577  0.69609  0.44986  1.0000
  N   N81       1.0  0.89108  0.76951  0.36957  1.0000
  C   C979      1.0  0.86877  0.76954  0.37567  1.0000
  C   C980      1.0  0.89846  0.74861  0.37128  1.0000
  C   C981      1.0  0.85403  0.74897  0.38435  1.0000
  C   C982      1.0  0.88395  0.72746  0.37970  1.0000
  C   C983      1.0  0.86180  0.72787  0.38642  1.0000
  C   C984      1.0  0.90694  0.79160  0.36086  1.0000
  H   H983      1.0  0.86273  0.78596  0.37420  1.0000
  H   H984      1.0  0.91598  0.74846  0.36633  1.0000
  H   H985      1.0  0.83706  0.74977  0.38966  1.0000
  H   H986      1.0  0.89036  0.71127  0.38126  1.0000
  S   S328      1.0  0.94741  0.72211  0.37856  1.0000
  C   C985      1.0  0.82521  0.51583  0.32754  1.0000
  C   C986      1.0  0.77816  0.49476  0.31934  1.0000
  H   H987      1.0  0.65078  0.68616  0.39611  1.0000
  C   C987      1.0  0.90793  0.78101  0.46953  1.0000
  H   H988      1.0  0.86808  0.48880  0.33890  1.0000
  H   H989      1.0  0.68855  0.92593  0.43060  1.0000
  C   C988      1.0  0.86479  0.59621  0.23853  1.0000
  C   C989      1.0  0.95370  0.67578  0.28774  1.0000
  H   H990      1.0  0.95300  0.69176  0.29505  1.0000
  C   C990      1.0  0.84948  0.48997  0.33541  1.0000
  H   H991      1.0  0.91457  0.49037  0.31006  1.0000
  H   H992      1.0  0.97457  0.68264  0.28432  1.0000
  H   H993      1.0  0.58035  0.50422  0.33656  1.0000
  H   H994      1.0  0.54517  0.49427  0.33420  1.0000
  S   S329      1.0  0.97696  0.80602  0.38472  1.0000
  H   H995      1.0  0.92304  0.48634  0.27666  1.0000
  H   H996      1.0  0.52288  0.85455  0.67988  1.0000
  H   H997      1.0  0.96487  0.76012  0.49588  1.0000
  H   H998      1.0  0.73705  0.95492  0.58554  1.0000
  Fe  Fe165     1.0  0.94435  0.79495  0.54806  1.0000
  S   S330      1.0  0.89852  0.77674  0.54469  1.0000
  C   C991      1.0  0.93299  0.71745  0.57014  1.0000
  Fe  Fe166     1.0  0.71787  0.81131  0.54960  1.0000
  S   S331      1.0  0.68831  0.77063  0.54118  1.0000
  S   S332      1.0  0.70260  0.84383  0.54677  1.0000
  Fe  Fe167     1.0  0.76015  0.79017  0.55806  1.0000
  S   S333      1.0  0.73296  0.74816  0.55055  1.0000
  S   S334      1.0  0.80244  0.80277  0.56815  1.0000
  Fe  Fe168     1.0  0.72390  0.76739  0.53140  1.0000
  S   S335      1.0  0.73146  0.75569  0.50911  1.0000
  Fe  Fe169     1.0  0.69970  0.75549  0.56117  1.0000
  S   S336      1.0  0.66956  0.72349  0.57481  1.0000
  S   S337      1.0  0.75262  0.80908  0.53868  1.0000
  S   S338      1.0  0.72771  0.79648  0.56995  1.0000
  Fe  Fe170     1.0  0.50836  0.92875  0.64853  1.0000
  S   S339      1.0  0.54882  0.95366  0.65941  1.0000
  H   H999      1.0  0.49561  0.59602  0.61138  1.0000
  Fe  Fe171     1.0  0.52408  0.88174  0.64311  1.0000
  S   S340      1.0  0.56495  0.90312  0.65367  1.0000
  S   S341      1.0  0.50738  0.83875  0.63418  1.0000
  Fe  Fe172     1.0  0.54392  0.91614  0.67051  1.0000
  S   S342      1.0  0.54805  0.90538  0.69337  1.0000
  Fe  Fe173     1.0  0.56674  0.93877  0.64155  1.0000
  H   H1000     1.0  0.92100  0.80581  0.51545  1.0000
  S   S343      1.0  0.50278  0.89225  0.66051  1.0000
  S   S344      1.0  0.52654  0.91654  0.63003  1.0000
  Fe  Fe174     1.0  0.54332  0.66856  0.67301  1.0000
  S   S345      1.0  0.50942  0.68124  0.67009  1.0000
  S   S346      1.0  0.54763  0.65071  0.69400  1.0000
  Fe  Fe175     1.0  0.55936  0.67958  0.64166  1.0000
  S   S347      1.0  0.52543  0.69217  0.63718  1.0000
  S   S348      1.0  0.58576  0.67603  0.62376  1.0000
  Fe  Fe176     1.0  0.53819  0.71492  0.65810  1.0000
  S   S349      1.0  0.54725  0.75836  0.66388  1.0000
  Fe  Fe177     1.0  0.49985  0.65672  0.64961  1.0000
  C   C992      1.0  0.92830  0.75235  0.59059  1.0000
  S   S350      1.0  0.57317  0.70382  0.66225  1.0000
  S   S351      1.0  0.53267  0.64249  0.65285  1.0000
  S   S352      1.0  0.77211  0.96867  0.55707  1.0000
  C   C993      1.0  0.54418  0.66310  0.71108  1.0000
  C   C994      1.0  0.54507  0.64861  0.72298  1.0000
  C   C995      1.0  0.72635  0.69825  0.58382  1.0000
  C   C996      1.0  0.97019  0.77254  0.48686  1.0000
  C   C997      1.0  0.54067  0.68696  0.71309  1.0000
  H   H1001     1.0  0.54788  0.63019  0.72160  1.0000
  H   H1002     1.0  0.54007  0.69843  0.70409  1.0000
  C   C998      1.0  0.55084  0.92016  0.71066  1.0000
  C   C999      1.0  0.54597  0.90347  0.72219  1.0000
  H   H1003     1.0  0.50847  0.59588  0.69146  1.0000
  C   C1000     1.0  0.55879  0.94777  0.71329  1.0000
  H   H1004     1.0  0.53990  0.88211  0.72032  1.0000
  H   H1005     1.0  0.56281  0.96091  0.70457  1.0000
  H   H1006     1.0  0.92696  0.76625  0.59860  1.0000
  C   C1001     1.0  0.60834  0.95811  0.60282  1.0000
  H   H1007     1.0  0.70571  0.79590  0.51237  1.0000
  H   H1008     1.0  0.58773  0.94374  0.60305  1.0000
  H   H1009     1.0  0.61017  0.95326  0.58027  1.0000
  C   C1002     1.0  0.52073  0.81662  0.64087  1.0000
  C   C1003     1.0  0.54320  0.82601  0.65021  1.0000
  C   C1004     1.0  0.55201  0.80788  0.65649  1.0000
  C   C1005     1.0  0.53839  0.78016  0.65358  1.0000
  C   C1006     1.0  0.51643  0.77067  0.64384  1.0000
  C   C1007     1.0  0.50768  0.78892  0.63747  1.0000
  H   H1010     1.0  0.55355  0.84721  0.65284  1.0000
  H   H1011     1.0  0.56907  0.81536  0.66397  1.0000
  H   H1012     1.0  0.50570  0.74932  0.64160  1.0000
  H   H1013     1.0  0.73768  0.90970  0.58680  1.0000
  H   H1014     1.0  0.71450  0.67704  0.58145  1.0000
  C   C1008     1.0  0.71973  0.75890  0.49183  1.0000
  C   C1009     1.0  0.94101  0.73532  0.59374  1.0000
  C   C1010     1.0  0.72320  0.87836  0.54886  1.0000
  C   C1011     1.0  0.71247  0.89669  0.54493  1.0000
  C   C1012     1.0  0.72756  0.92441  0.54710  1.0000
  C   C1013     1.0  0.75356  0.93405  0.55319  1.0000
  C   C1014     1.0  0.76465  0.91573  0.55672  1.0000
  C   C1015     1.0  0.74949  0.88790  0.55457  1.0000
  H   H1015     1.0  0.69219  0.88942  0.54041  1.0000
  H   H1016     1.0  0.71889  0.93826  0.54422  1.0000
  H   H1017     1.0  0.78481  0.92306  0.56140  1.0000
  H   H1018     1.0  0.75796  0.87387  0.55756  1.0000
  C   C1016     1.0  0.64628  0.71263  0.58867  1.0000
  C   C1017     1.0  0.63913  0.72985  0.59735  1.0000
  C   C1018     1.0  0.62069  0.71940  0.60820  1.0000
  C   C1019     1.0  0.60942  0.69166  0.61055  1.0000
  C   C1020     1.0  0.61684  0.67485  0.60186  1.0000
  C   C1021     1.0  0.63488  0.68512  0.59112  1.0000
  H   H1019     1.0  0.64762  0.75116  0.59568  1.0000
  H   H1020     1.0  0.61529  0.73280  0.61475  1.0000
  H   H1021     1.0  0.60849  0.65350  0.60343  1.0000
  H   H1022     1.0  0.63997  0.67145  0.58460  1.0000
  C   C1022     1.0  0.87255  0.78543  0.55106  1.0000
  C   C1023     1.0  0.87685  0.80403  0.56234  1.0000
  C   C1024     1.0  0.85527  0.80922  0.56736  1.0000
  C   C1025     1.0  0.82921  0.79627  0.56106  1.0000
  C   C1026     1.0  0.82499  0.77789  0.54970  1.0000
  C   C1027     1.0  0.84646  0.77239  0.54483  1.0000
  H   H1023     1.0  0.89672  0.81425  0.56728  1.0000
  H   H1024     1.0  0.85882  0.82346  0.57616  1.0000
  H   H1025     1.0  0.80513  0.76770  0.54474  1.0000
  H   H1026     1.0  0.84279  0.75792  0.53613  1.0000
  C   C1028     1.0  0.48454  0.80809  0.67013  1.0000
  C   C1029     1.0  0.62122  0.96354  0.58987  1.0000
  C   C1030     1.0  0.54941  0.84129  0.69135  1.0000
  C   C1031     1.0  0.71967  0.91172  0.58301  1.0000
  C   C1032     1.0  0.71934  0.93710  0.58228  1.0000
  H   H1027     1.0  0.69616  0.95919  0.57631  1.0000
  H   H1028     1.0  0.68029  0.75430  0.49734  1.0000
  C   C1033     1.0  0.51288  0.79004  0.68290  1.0000
  C   C1034     1.0  0.49080  0.67477  0.60412  1.0000
  C   C1035     1.0  0.48736  0.58971  0.68850  1.0000
  C   C1036     1.0  0.69700  0.88902  0.57840  1.0000
  H   H1029     1.0  0.95013  0.83599  0.49748  1.0000
  H   H1030     1.0  0.69642  0.70310  0.59624  1.0000
  C   C1037     1.0  0.56233  0.95851  0.72730  1.0000
  N   N82       1.0  0.73058  0.74009  0.59486  1.0000
  C   C1038     1.0  0.75502  0.75295  0.58923  1.0000
  C   C1039     1.0  0.71626  0.71311  0.59224  1.0000
  C   C1040     1.0  0.76594  0.73860  0.58097  1.0000
  C   C1041     1.0  0.75140  0.71113  0.57819  1.0000
  C   C1042     1.0  0.71885  0.75556  0.60296  1.0000
  H   H1031     1.0  0.76611  0.77451  0.59089  1.0000
  H   H1032     1.0  0.78524  0.74891  0.57644  1.0000
  H   H1033     1.0  0.75933  0.69999  0.57146  1.0000
  H   H1034     1.0  0.73460  0.77333  0.60865  1.0000
  H   H1035     1.0  0.70676  0.76244  0.59573  1.0000
  H   H1036     1.0  0.70536  0.74310  0.61090  1.0000
  H   H1037     1.0  0.53628  0.71507  0.72816  1.0000
  N   N83       1.0  0.94315  0.71812  0.58357  1.0000
  H   H1038     1.0  0.90766  0.76463  0.57431  1.0000
  C   C1043     1.0  0.73542  0.86149  0.51590  1.0000
  H   H1039     1.0  0.57242  0.82206  0.70140  1.0000
  H   H1040     1.0  0.52474  0.70673  0.59582  1.0000
  C   C1044     1.0  0.53582  0.79335  0.69113  1.0000
  N   N84       1.0  0.49804  0.63598  0.61083  1.0000
  S   S353      1.0  0.97092  0.83108  0.53673  1.0000
  C   C1045     1.0  0.51955  0.97365  0.61900  1.0000
  C   C1046     1.0  0.78323  0.87734  0.51399  1.0000
  H   H1041     1.0  0.90473  0.77073  0.51105  1.0000
  C   C1047     1.0  0.92213  0.78939  0.50864  1.0000
  C   C1048     1.0  0.53856  0.69638  0.72679  1.0000
  C   C1049     1.0  0.75348  0.83215  0.50624  1.0000
  H   H1042     1.0  0.96803  0.70585  0.59699  1.0000
  C   C1050     1.0  0.53376  0.67311  0.60119  1.0000
  N   N85       1.0  0.67432  0.91709  0.57214  1.0000
  H   H1043     1.0  0.65704  0.87433  0.56918  1.0000
  H   H1044     1.0  0.65633  0.93621  0.55867  1.0000
  C   C1051     1.0  0.52629  0.83724  0.68310  1.0000
  H   H1045     1.0  0.56364  0.86151  0.69447  1.0000
  H   H1046     1.0  0.49925  0.76993  0.67925  1.0000
  H   H1047     1.0  0.64069  0.92625  0.57515  1.0000
  C   C1052     1.0  0.52391  0.64768  0.60681  1.0000
  C   C1053     1.0  0.67435  0.89208  0.57297  1.0000
  C   C1054     1.0  0.76109  0.88208  0.51789  1.0000
  H   H1048     1.0  0.53981  0.77601  0.69370  1.0000
  H   H1049     1.0  0.63578  0.90150  0.56107  1.0000
  C   C1055     1.0  0.65054  0.92025  0.56648  1.0000
  H   H1050     1.0  0.69728  0.86923  0.57857  1.0000
  C   C1056     1.0  0.69629  0.93941  0.57687  1.0000
  H   H1051     1.0  0.96782  0.69756  0.57869  1.0000
  C   C1057     1.0  0.95494  0.69914  0.58718  1.0000
  C   C1058     1.0  0.77943  0.85229  0.50801  1.0000
  S   S354      1.0  0.97209  0.80520  0.56761  1.0000
  H   H1052     1.0  0.49815  0.96313  0.62025  1.0000
  H   H1053     1.0  0.91195  0.73355  0.55599  1.0000
  N   N86       1.0  0.73198  0.83672  0.51050  1.0000
  H   H1054     1.0  0.93516  0.70421  0.56201  1.0000
  S   S355      1.0  0.96225  0.76805  0.53829  1.0000
  H   H1055     1.0  0.93888  0.67903  0.58866  1.0000
  C   C1059     1.0  0.48855  0.60973  0.61714  1.0000
  H   H1056     1.0  0.94089  0.78706  0.51159  1.0000
  S   S356      1.0  0.60625  0.96726  0.63199  1.0000
  H   H1057     1.0  0.69087  0.81895  0.51586  1.0000
  C   C1060     1.0  0.55423  0.81917  0.69531  1.0000
  C   C1061     1.0  0.70511  0.81500  0.50902  1.0000
  H   H1058     1.0  0.56897  0.97993  0.72921  1.0000
  C   C1062     1.0  0.91749  0.75146  0.57697  1.0000
  C   C1063     1.0  0.90734  0.77564  0.48386  1.0000
  H   H1059     1.0  0.76372  0.90140  0.52263  1.0000
  H   H1060     1.0  0.71831  0.86526  0.51903  1.0000
  C   C1064     1.0  0.91993  0.73401  0.56666  1.0000
  H   H1061     1.0  0.89556  0.75542  0.48698  1.0000
  H   H1062     1.0  0.80328  0.89301  0.51565  1.0000
  H   H1063     1.0  0.94937  0.73611  0.60435  1.0000
  H   H1064     1.0  0.49614  0.61229  0.62830  1.0000
  N   N87       1.0  0.50860  0.81188  0.67881  1.0000
  C   C1065     1.0  0.62201  0.97152  0.61537  1.0000
  H   H1065     1.0  0.69740  0.81234  0.49787  1.0000
  H   H1066     1.0  0.48822  0.82553  0.66343  1.0000
  H   H1067     1.0  0.49028  0.78152  0.63022  1.0000
  H   H1068     1.0  0.55452  0.68251  0.59833  1.0000
  H   H1069     1.0  0.53735  0.63767  0.60824  1.0000
  H   H1070     1.0  0.49052  0.63014  0.68769  1.0000
  H   H1071     1.0  0.56729  0.98155  0.59543  1.0000
  H   H1072     1.0  0.51792  0.95830  0.59769  1.0000
  H   H1073     1.0  0.79646  0.84827  0.50497  1.0000
  H   H1074     1.0  0.75071  0.81258  0.50181  1.0000
  C   C1066     1.0  0.93765  0.82065  0.48970  1.0000
  C   C1067     1.0  0.53065  0.97092  0.60636  1.0000
  C   C1068     1.0  0.51708  0.68671  0.59984  1.0000
  N   N88       1.0  0.92190  0.79544  0.49373  1.0000
  C   C1069     1.0  0.48160  0.64930  0.60970  1.0000
  C   C1070     1.0  0.64814  0.98207  0.58919  1.0000
  C   C1071     1.0  0.69386  0.75734  0.48890  1.0000
  C   C1072     1.0  0.55827  0.98399  0.60508  1.0000
  H   H1075     1.0  0.82131  0.79970  0.89330  1.0000
  H   H1076     1.0  0.88269  0.68578  0.88520  1.0000
  H   H1077     1.0  0.88022  0.75333  0.90597  1.0000
  Fe  Fe178     1.0  0.94628  0.79217  0.90152  1.0000
  S   S357      1.0  0.91296  0.80377  0.89311  1.0000
  S   S358      1.0  0.93989  0.75031  0.90674  1.0000
  Fe  Fe179     1.0  0.75705  0.76686  0.90518  1.0000
  S   S359      1.0  0.71590  0.74280  0.91333  1.0000
  S   S360      1.0  0.78855  0.74897  0.90598  1.0000
  Fe  Fe180     1.0  0.74360  0.81473  0.90004  1.0000
  S   S361      1.0  0.70256  0.79463  0.90808  1.0000
  S   S362      1.0  0.75846  0.85567  0.89069  1.0000
  Fe  Fe181     1.0  0.72220  0.78098  0.92570  1.0000
  S   S363      1.0  0.71076  0.78702  0.94823  1.0000
  Fe  Fe182     1.0  0.69929  0.75819  0.89497  1.0000
  S   S364      1.0  0.65789  0.73667  0.88287  1.0000
  S   S365      1.0  0.76378  0.80412  0.91843  1.0000
  S   S366      1.0  0.73995  0.77921  0.88604  1.0000
  Fe  Fe183     1.0  0.52757  0.87873  0.78937  1.0000
  S   S367      1.0  0.56905  0.91002  0.78702  1.0000
  S   S368      1.0  0.52404  0.83732  0.78239  1.0000
  Fe  Fe184     1.0  0.50628  0.92043  0.79815  1.0000
  S   S369      1.0  0.54708  0.95452  0.79652  1.0000
  H   H1078     1.0  0.62911  0.92919  0.78130  1.0000
  Fe  Fe185     1.0  0.54858  0.93296  0.77608  1.0000
  S   S370      1.0  0.56361  0.95636  0.75632  1.0000
  Fe  Fe186     1.0  0.56419  0.92862  0.80764  1.0000
  C   C1073     1.0  0.56927  0.64402  0.85049  1.0000
  S   S371      1.0  0.50720  0.90069  0.77716  1.0000
  S   S372      1.0  0.52337  0.89562  0.81055  1.0000
  Fe  Fe187     1.0  0.50508  0.64155  0.80069  1.0000
  S   S373      1.0  0.54565  0.65345  0.79123  1.0000
  H   H1079     1.0  0.97602  0.82072  0.95846  1.0000
  Fe  Fe188     1.0  0.51379  0.70045  0.80466  1.0000
  S   S374      1.0  0.55403  0.71565  0.79538  1.0000
  C   C1074     1.0  0.49363  0.92060  0.83796  1.0000
  Fe  Fe189     1.0  0.53468  0.68236  0.77864  1.0000
  S   S375      1.0  0.53760  0.69564  0.75575  1.0000
  Fe  Fe190     1.0  0.56167  0.68591  0.80885  1.0000
  S   S376      1.0  0.60325  0.69757  0.82032  1.0000
  C   C1075     1.0  0.68973  0.94904  0.97527  1.0000
  S   S377      1.0  0.52192  0.67202  0.81901  1.0000
  S   S378      1.0  0.71673  0.94051  0.91497  1.0000
  H   H1080     1.0  0.64889  0.97765  0.81244  1.0000
  H   H1081     1.0  0.69253  0.78474  0.86966  1.0000
  H   H1082     1.0  0.86035  0.71725  0.88230  1.0000
  H   H1083     1.0  0.92832  0.69780  0.87629  1.0000
  H   H1084     1.0  0.92450  0.75979  0.97585  1.0000
  H   H1085     1.0  0.49627  0.95973  0.83274  1.0000
  C   C1076     1.0  0.52019  0.81145  0.79397  1.0000
  C   C1077     1.0  0.94420  0.75974  0.97732  1.0000
  H   H1086     1.0  0.51540  0.79443  0.75778  1.0000
  C   C1078     1.0  0.50630  0.76132  0.80627  1.0000
  C   C1079     1.0  0.52915  0.77196  0.79843  1.0000
  C   C1080     1.0  0.53598  0.79683  0.79227  1.0000
  C   C1081     1.0  0.49787  0.60482  0.83762  1.0000
  H   H1087     1.0  0.81557  0.79903  0.92591  1.0000
  H   H1088     1.0  0.54103  0.76063  0.79664  1.0000
  H   H1089     1.0  0.55285  0.80414  0.78558  1.0000
  C   C1082     1.0  0.71963  0.77873  0.96513  1.0000
  H   H1090     1.0  0.75100  0.74376  0.98151  1.0000
  H   H1091     1.0  0.69126  0.80353  0.85460  1.0000
  H   H1092     1.0  0.53825  0.88623  0.85698  1.0000
  C   C1083     1.0  0.73425  0.76297  0.96680  1.0000
  C   C1084     1.0  0.84943  0.76823  0.94195  1.0000
  C   C1085     1.0  0.54975  0.90234  0.84992  1.0000
  H   H1093     1.0  0.74072  0.75558  0.95760  1.0000
  C   C1086     1.0  0.74879  0.88010  0.89828  1.0000
  C   C1087     1.0  0.75687  0.90535  0.89238  1.0000
  C   C1088     1.0  0.74774  0.92444  0.89757  1.0000
  C   C1089     1.0  0.73036  0.91824  0.90865  1.0000
  C   C1090     1.0  0.72259  0.89314  0.91465  1.0000
  C   C1091     1.0  0.73183  0.87417  0.90953  1.0000
  H   H1094     1.0  0.77002  0.91005  0.88368  1.0000
  H   H1095     1.0  0.75386  0.94374  0.89290  1.0000
  H   H1096     1.0  0.70919  0.88821  0.92324  1.0000
  H   H1097     1.0  0.72555  0.85485  0.91418  1.0000
  C   C1092     1.0  0.64358  0.72753  0.86517  1.0000
  C   C1093     1.0  0.65869  0.72690  0.85367  1.0000
  C   C1094     1.0  0.64609  0.71819  0.84007  1.0000
  C   C1095     1.0  0.61828  0.71044  0.83760  1.0000
  C   C1096     1.0  0.60328  0.71171  0.84905  1.0000
  C   C1097     1.0  0.61579  0.71991  0.86270  1.0000
  H   H1098     1.0  0.67999  0.73244  0.85529  1.0000
  H   H1099     1.0  0.65800  0.71724  0.83138  1.0000
  H   H1100     1.0  0.58194  0.70592  0.84743  1.0000
  H   H1101     1.0  0.60378  0.72029  0.87144  1.0000
  C   C1098     1.0  0.49136  0.77666  0.80868  1.0000
  H   H1102     1.0  0.65929  0.94718  0.79207  1.0000
  H   H1103     1.0  0.72084  0.81491  0.86652  1.0000
  H   H1104     1.0  0.83159  0.73231  0.91038  1.0000
  C   C1099     1.0  0.66681  0.85111  0.89005  1.0000
  H   H1105     1.0  0.54525  0.90098  0.74488  1.0000
  C   C1100     1.0  0.53438  0.96092  0.84039  1.0000
  C   C1101     1.0  0.68893  0.86387  0.88200  1.0000
  N   N89       1.0  0.53479  0.91844  0.84612  1.0000
  C   C1102     1.0  0.87845  0.78824  0.89683  1.0000
  C   C1103     1.0  0.86153  0.80110  0.89328  1.0000
  C   C1104     1.0  0.83404  0.78949  0.89605  1.0000
  C   C1105     1.0  0.82300  0.76455  0.90216  1.0000
  C   C1106     1.0  0.83990  0.75157  0.90560  1.0000
  C   C1107     1.0  0.86748  0.76342  0.90308  1.0000
  H   H1106     1.0  0.86974  0.82027  0.88840  1.0000
  N   N90       1.0  0.84563  0.78879  0.93569  1.0000
  H   H1107     1.0  0.49005  0.60069  0.84832  1.0000
  H   H1108     1.0  0.71473  0.93471  0.94536  1.0000
  H   H1109     1.0  0.64049  0.96806  0.94654  1.0000
  C   C1108     1.0  0.95854  0.75872  0.96546  1.0000
  C   C1109     1.0  0.65448  0.97014  0.85753  1.0000
  C   C1110     1.0  0.81923  0.78982  0.93560  1.0000
  C   C1111     1.0  0.50790  0.90589  0.84268  1.0000
  H   H1110     1.0  0.87772  0.75079  0.94711  1.0000
  C   C1112     1.0  0.68985  0.95688  0.94660  1.0000
  C   C1113     1.0  0.89203  0.80857  0.93015  1.0000
  C   C1114     1.0  0.86657  0.80895  0.92996  1.0000
  C   C1115     1.0  0.67597  0.96326  0.96931  1.0000
  H   H1111     1.0  0.90835  0.82399  0.92508  1.0000
  C   C1116     1.0  0.63738  0.94172  0.79118  1.0000
  H   H1112     1.0  0.61378  0.95890  0.77065  1.0000
  H   H1113     1.0  0.86349  0.82505  0.92483  1.0000
  H   H1114     1.0  0.88381  0.76009  0.87083  1.0000
  Fe  Fe191     1.0  0.72815  0.98309  0.90813  1.0000
  H   H1115     1.0  0.92589  0.77547  0.84894  1.0000
  S   S379      1.0  0.59735  0.93726  0.82531  1.0000
  H   H1116     1.0  0.60455  0.65301  0.83862  1.0000
  C   C1117     1.0  0.54276  0.65794  0.73671  1.0000
  H   H1117     1.0  0.63750  0.81288  0.89602  1.0000
  C   C1118     1.0  0.53969  0.68205  0.73872  1.0000
  C   C1119     1.0  0.65466  0.82311  0.88978  1.0000
  C   C1120     1.0  0.66510  0.80828  0.88157  1.0000
  Fe  Fe192     1.0  0.96290  0.76917  0.92726  1.0000
  C   C1121     1.0  0.70379  0.93871  0.96665  1.0000
  C   C1122     1.0  0.62001  0.97212  0.78007  1.0000
  H   H1118     1.0  0.81774  0.80163  0.94498  1.0000
  C   C1123     1.0  0.49938  0.73300  0.77012  1.0000
  H   H1119     1.0  0.69875  0.88562  0.88229  1.0000
  H   H1120     1.0  0.48957  0.61803  0.83247  1.0000
  S   S380      1.0  0.47975  0.59614  0.80219  1.0000
  C   C1124     1.0  0.71123  0.78795  0.97728  1.0000
  H   H1121     1.0  0.95073  0.74049  0.86474  1.0000
  N   N91       1.0  0.68748  0.82100  0.87417  1.0000
  C   C1125     1.0  0.89599  0.78753  0.93635  1.0000
  C   C1126     1.0  0.89264  0.70447  0.88001  1.0000
  H   H1122     1.0  0.66653  0.96323  0.86425  1.0000
  C   C1127     1.0  0.63607  0.95234  0.84719  1.0000
  S   S381      1.0  0.49452  0.72810  0.81205  1.0000
  N   N92       1.0  0.67646  0.96730  0.95516  1.0000
  S   S382      1.0  0.49364  0.66889  0.78733  1.0000
  H   H1123     1.0  0.57885  0.62910  0.81678  1.0000
  H   H1124     1.0  0.55134  0.75344  0.76581  1.0000
  H   H1125     1.0  0.53688  0.74889  0.74814  1.0000
  C   C1128     1.0  0.54125  0.63147  0.85002  1.0000
  C   C1129     1.0  0.69853  0.80529  0.86578  1.0000
  C   C1130     1.0  0.55748  0.94178  0.73882  1.0000
  C   C1131     1.0  0.93225  0.77823  0.86030  1.0000
  H   H1126     1.0  0.63423  0.93185  0.84611  1.0000
  H   H1127     1.0  0.55387  0.89311  0.84019  1.0000
  H   H1128     1.0  0.71711  0.85852  0.86841  1.0000
  H   H1129     1.0  0.54381  0.64672  0.74573  1.0000
  C   C1132     1.0  0.49825  0.80166  0.80254  1.0000
  H   H1130     1.0  0.65937  0.86296  0.89659  1.0000
  C   C1133     1.0  0.53981  0.76053  0.75830  1.0000
  C   C1134     1.0  0.87466  0.76725  0.94234  1.0000
  C   C1135     1.0  0.69916  0.84842  0.87414  1.0000
  H   H1131     1.0  0.50729  0.71783  0.77114  1.0000
  H   H1132     1.0  0.65552  0.78655  0.88142  1.0000
  N   N93       1.0  0.52725  0.61753  0.83806  1.0000
  S   S383      1.0  0.96743  0.81065  0.92225  1.0000
  C   C1136     1.0  0.54045  0.61655  0.82623  1.0000
  H   H1133     1.0  0.69987  0.80011  0.97612  1.0000
  C   C1137     1.0  0.56842  0.62911  0.82629  1.0000
  H   H1134     1.0  0.92736  0.79441  0.86514  1.0000
  H   H1135     1.0  0.53081  0.63314  0.85925  1.0000
  C   C1138     1.0  0.62015  0.96077  0.83826  1.0000
  H   H1136     1.0  0.52937  0.60634  0.81658  1.0000
  C   C1139     1.0  0.58287  0.64264  0.83856  1.0000
  H   H1137     1.0  0.58042  0.65537  0.85990  1.0000
  S   S384      1.0  0.94350  0.75717  0.94838  1.0000
  C   C1140     1.0  0.54804  0.94560  0.84504  1.0000
  H   H1138     1.0  0.95441  0.78530  0.86138  1.0000
  H   H1139     1.0  0.55224  0.78209  0.75679  1.0000
  N   N94       1.0  0.91877  0.75295  0.86730  1.0000
  C   C1141     1.0  0.89354  0.74635  0.87192  1.0000
  C   C1142     1.0  0.93090  0.73552  0.86855  1.0000
  C   C1143     1.0  0.88015  0.72210  0.87840  1.0000
  C   C1144     1.0  0.91815  0.71114  0.87500  1.0000
  H   H1140     1.0  0.62777  0.92917  0.80013  1.0000
  C   C1145     1.0  0.50383  0.77560  0.76251  1.0000
  H   H1141     1.0  0.80285  0.76931  0.93546  1.0000
  C   C1146     1.0  0.50701  0.94827  0.83681  1.0000
  H   H1142     1.0  0.56938  0.91484  0.85542  1.0000
  C   C1147     1.0  0.70381  0.94256  0.95221  1.0000
  H   H1143     1.0  0.83283  0.75228  0.94650  1.0000
  N   N95       1.0  0.63210  0.96603  0.79148  1.0000
  H   H1144     1.0  0.56940  0.95549  0.84754  1.0000
  H   H1145     1.0  0.71485  0.92797  0.97116  1.0000
  H   H1146     1.0  0.91547  0.78669  0.93636  1.0000
  N   N96       1.0  0.51375  0.75636  0.76378  1.0000
  H   H1147     1.0  0.54505  0.98234  0.83926  1.0000
  C   C1148     1.0  0.66164  0.98196  0.94909  1.0000
  C   C1149     1.0  0.74002  0.75628  0.98040  1.0000
  H   H1148     1.0  0.48559  0.81246  0.80367  1.0000
  C   C1150     1.0  0.63957  0.98267  0.80334  1.0000
  C   C1151     1.0  0.54900  0.91412  0.73616  1.0000
  H   H1149     1.0  0.69010  0.95987  0.93537  1.0000
  H   H1150     1.0  0.49755  0.88425  0.84304  1.0000
  H   H1151     1.0  0.66573  0.97184  0.97616  1.0000
  H   H1152     1.0  0.49021  0.58530  0.83145  1.0000
  C   C1152     1.0  0.47946  0.77215  0.76822  1.0000
