data_image0
_chemical_formula_structural       HFeS2HFeSHSFeSHFeS2FeSFeS2FeS2FeS2FeSFeS3C6H5C3HC3H2C3H2C6H4NCHCH4C2H2SC2HCHCNH5C2HNC2H2CHCNC6H3CSH3NC3H3C2H3CHCH2C2HFeS2H2FeS3FeS2FeSFeSFeNS2FeS2FeS2FeSFeS3C3H3C2H3C6H4CHCH2C4HC6H4CHC2H2CNC2NH2NC6H9SCH2CHC2HCHCH2CH2FeHC2HFeS2FeS2FeSFeS4CSC6H4C6H4C2H2C7H3NC3HCH6CH4C3HNH2CHCSCH2C2HNCH2CHC2H3CH4FeS2FeS2FeSFeS3C9H4C6H4CHCH2C6NH3CHCHCHCH2CH5CNC5H4SH2CH2CHCHNH3C2HCH2NCSHNFeS2FeS2FeSFeS3FeS2FeSFeSFeS3FeCSFeHFeS2HC4SC6H4CH2C6H6C3H2C3H2C2H2CH5CSCHFeH2CNH2CHCH2C3HNH2C3HNH3C2SH3C5H3C2HFeS2FeS2FeSFeS3FeS2FeSFeSFeS3FeS2FeSFeS2HC2H2NC6H4C4H2NC6H4CH4C3H4CHNC6HCH2CH2CHCSHCHCH3CHCFeH2CH3CH2CHC2HNH6C5HC3HCHCSH6CHFeS2FeSHFeSFeS3C2FeS2FeS2FeSFeS3C5NH4C2H3C6H4C6H4C3H3NC6H9CH6CHCH6CSNHCHC3H2N2HC3HC2HCHC2HSCSHC2FeHCH2C3SCHC2FeHFeS2FeS2FeSFeS3CSFeS2FeS2FeSFeS3CHC2HC3H2CH4C2H2C7H4C6H6C2H2CH3C3SC3H3C3NHCNH3NCH3SHC2H4C2NC3HC4H7CH3C3HCHCH3FeCFeS2FeS2FeSFeS3C2SC5H2C2HCH2CHC4SH3C6H4C2H2C2NCHCH3CH4CH4C2NH3CHCH5CHCH2FeS2FeS2FeSFeS3H2SH3C2HC3H4C6H2CHC3H2C6H4C6NHNH3NFeCH2C4H2NH2CHC4HCH2CH2CH2C2SHSHFeSFeSFe2S2FeS2FeSFeS3NC6H3C7HCH2C6H4C5H4C2H2FeH6C2SC2H4C3HC2H2NC6H8C2HC2HNCNCSC2H3CH2NHC2H2NCHC2H3C2HCSFeSHSFeSFeSCFeS2FeS2FeSFeS3HC6H3C3H4SC5H2C6H4C2H7C3SCN2H2C4HCNC6H8C2HCH4CH2SCHC4H2C5H2CH4S
_chemical_formula_sum              "H576 Fe96 S192 C576 N48"
_cell_length_a       51.9157
_cell_length_b       54.2422
_cell_length_c       43.4868
_cell_angle_alpha    90.6407
_cell_angle_beta     89.7208
_cell_angle_gamma    119.01

_space_group_name_H-M_alt    "P 1"
_space_group_IT_number       1

loop_
  _space_group_symop_operation_xyz
  'x, y, z'

loop_
  _atom_site_type_symbol
  _atom_site_label
  _atom_site_symmetry_multiplicity
  _atom_site_fract_x
  _atom_site_fract_y
  _atom_site_fract_z
  _atom_site_occupancy
  H   H1        1.0  0.34042  0.13042  0.15666  1.0000
  Fe  Fe1       1.0  0.43580  0.21027  0.16206  1.0000
  S   S1        1.0  0.44309  0.19908  0.11368  1.0000
  S   S2        1.0  0.39743  0.17524  0.18875  1.0000
  H   H2        1.0  0.14043  0.14979  0.41874  1.0000
  Fe  Fe2       1.0  0.45278  0.24267  0.10114  1.0000
  S   S3        1.0  0.43784  0.25274  0.05630  1.0000
  H   H3        1.0  0.34574  0.18331  0.34255  1.0000
  S   S4        1.0  0.44197  0.25281  0.14848  1.0000
  Fe  Fe3       1.0  0.04928  0.25051  0.34357  1.0000
  S   S5        1.0  0.07961  0.28767  0.37348  1.0000
  H   H4        1.0  0.31435  0.22430  0.40426  1.0000
  Fe  Fe4       1.0  0.09828  0.23638  0.32823  1.0000
  S   S6        1.0  0.13142  0.27243  0.35640  1.0000
  S   S7        1.0  0.11058  0.20666  0.30282  1.0000
  Fe  Fe5       1.0  0.09561  0.25888  0.39203  1.0000
  S   S8        1.0  0.10449  0.24761  0.43981  1.0000
  Fe  Fe6       1.0  0.11256  0.29799  0.33487  1.0000
  S   S9        1.0  0.06317  0.22120  0.36460  1.0000
  S   S10       1.0  0.08147  0.26250  0.30408  1.0000
  Fe  Fe7       1.0  0.26798  0.14249  0.31592  1.0000
  S   S11       1.0  0.22083  0.12649  0.30114  1.0000
  S   S12       1.0  0.30844  0.17654  0.29076  1.0000
  Fe  Fe8       1.0  0.24836  0.11403  0.37958  1.0000
  S   S13       1.0  0.20032  0.09628  0.36935  1.0000
  S   S14       1.0  0.26455  0.10354  0.42329  1.0000
  Fe  Fe9       1.0  0.21199  0.08536  0.32324  1.0000
  S   S15       1.0  0.18679  0.04219  0.30013  1.0000
  Fe  Fe10      1.0  0.21310  0.13872  0.34860  1.0000
  S   S16       1.0  0.19369  0.16619  0.36575  1.0000
  S   S17       1.0  0.25971  0.10079  0.33458  1.0000
  S   S18       1.0  0.26057  0.15697  0.36231  1.0000
  C   C1        1.0  0.17443  0.18013  0.34500  1.0000
  C   C2        1.0  0.16075  0.16877  0.31677  1.0000
  C   C3        1.0  0.14193  0.17771  0.30353  1.0000
  C   C4        1.0  0.13684  0.19817  0.31825  1.0000
  C   C5        1.0  0.15162  0.21042  0.34572  1.0000
  C   C6        1.0  0.17023  0.20138  0.35901  1.0000
  H   H5        1.0  0.16386  0.15245  0.30568  1.0000
  H   H6        1.0  0.13075  0.16824  0.28214  1.0000
  H   H7        1.0  0.14796  0.22617  0.35734  1.0000
  H   H8        1.0  0.18075  0.21033  0.38082  1.0000
  H   H9        1.0  0.26044  0.02253  0.33183  1.0000
  C   C7        1.0  0.16919  0.00999  0.32058  1.0000
  C   C8        1.0  0.16450  0.00944  0.35231  1.0000
  C   C9        1.0  0.14306  0.26874  0.25500  1.0000
  H   H10       1.0  0.17066  0.02890  0.36473  1.0000
  C   C10       1.0  0.09870  0.17969  0.39908  1.0000
  C   C11       1.0  0.25548  0.11270  0.45938  1.0000
  C   C12       1.0  0.24165  0.12926  0.46147  1.0000
  H   H11       1.0  0.22743  0.04297  0.43354  1.0000
  H   H12       1.0  0.23596  0.13640  0.44075  1.0000
  C   C13       1.0  0.31681  0.18897  0.42278  1.0000
  C   C14       1.0  0.09963  0.26054  0.47583  1.0000
  C   C15       1.0  0.08958  0.28021  0.47822  1.0000
  H   H13       1.0  0.32064  0.15236  0.43431  1.0000
  H   H14       1.0  0.08459  0.28806  0.45759  1.0000
  C   C16       1.0  0.37316  0.17623  0.21732  1.0000
  C   C17       1.0  0.35076  0.15063  0.22908  1.0000
  C   C18       1.0  0.33063  0.15021  0.25133  1.0000
  C   C19       1.0  0.33266  0.17548  0.26216  1.0000
  C   C20       1.0  0.35500  0.20108  0.25031  1.0000
  C   C21       1.0  0.37506  0.20149  0.22797  1.0000
  H   H15       1.0  0.34905  0.13094  0.22105  1.0000
  H   H16       1.0  0.31364  0.13036  0.26017  1.0000
  H   H17       1.0  0.35681  0.22078  0.25843  1.0000
  H   H18       1.0  0.39207  0.22134  0.21916  1.0000
  N   N1        1.0  0.18043  0.30614  0.28541  1.0000
  C   C22       1.0  0.44190  0.23654  0.02249  1.0000
  H   H19       1.0  0.37230  0.13263  0.13815  1.0000
  C   C23       1.0  0.20835  0.99803  0.42641  1.0000
  H   H20       1.0  0.18878  0.32431  0.33004  1.0000
  H   H21       1.0  0.12793  0.24641  0.25163  1.0000
  H   H22       1.0  0.09432  0.19659  0.40608  1.0000
  H   H23       1.0  0.33920  0.14869  0.38261  1.0000
  C   C24       1.0  0.16168  0.27801  0.28064  1.0000
  C   C25       1.0  0.45274  0.21747  0.02371  1.0000
  H   H24       1.0  0.45826  0.21200  0.04562  1.0000
  H   H25       1.0  0.27355  0.09085  0.48509  1.0000
  S   S19       1.0  0.00192  0.24243  0.34100  1.0000
  C   C26       1.0  0.33412  0.22618  0.34733  1.0000
  C   C27       1.0  0.14365  0.28844  0.23425  1.0000
  H   H26       1.0  0.30754  0.18992  0.44491  1.0000
  C   C28       1.0  0.32403  0.16775  0.41678  1.0000
  H   H27       1.0  0.13791  0.11714  0.38121  1.0000
  C   C29       1.0  0.32074  0.20830  0.39973  1.0000
  N   N2        1.0  0.33163  0.20654  0.37154  1.0000
  H   H28       1.0  0.31214  0.21899  0.33667  1.0000
  H   H29       1.0  0.33678  0.11505  0.11892  1.0000
  H   H30       1.0  0.12917  0.18731  0.43601  1.0000
  H   H31       1.0  0.09883  0.09421  0.37603  1.0000
  H   H32       1.0  0.16073  0.26254  0.29686  1.0000
  C   C30       1.0  0.22344  0.02613  0.41728  1.0000
  C   C31       1.0  0.19876  0.31582  0.31317  1.0000
  H   H33       1.0  0.35950  0.22174  0.13592  1.0000
  N   N3        1.0  0.22737  0.01137  0.36595  1.0000
  C   C32       1.0  0.11764  0.11507  0.37019  1.0000
  C   C33       1.0  0.08553  0.16371  0.37268  1.0000
  H   H34       1.0  0.08248  0.13084  0.34248  1.0000
  H   H35       1.0  0.46556  0.19114  0.99756  1.0000
  C   C34       1.0  0.33456  0.16576  0.38780  1.0000
  H   H36       1.0  0.07112  0.16829  0.35874  1.0000
  C   C35       1.0  0.33821  0.18542  0.36527  1.0000
  N   N4        1.0  0.35802  0.15989  0.11969  1.0000
  C   C36       1.0  0.36904  0.16525  0.09043  1.0000
  C   C37       1.0  0.35425  0.17973  0.13583  1.0000
  C   C38       1.0  0.37640  0.19094  0.07649  1.0000
  C   C39       1.0  0.36173  0.20578  0.12273  1.0000
  C   C40       1.0  0.37280  0.21133  0.09283  1.0000
  C   C41       1.0  0.35141  0.13309  0.13396  1.0000
  H   H37       1.0  0.37280  0.14986  0.07792  1.0000
  H   H38       1.0  0.34618  0.17582  0.15931  1.0000
  H   H39       1.0  0.38568  0.19539  0.05347  1.0000
  C   C42       1.0  0.23298  0.03246  0.38682  1.0000
  S   S20       1.0  0.48343  0.22665  0.17511  1.0000
  H   H40       1.0  0.34936  0.22708  0.32874  1.0000
  H   H41       1.0  0.24444  0.05435  0.37992  1.0000
  H   H42       1.0  0.34259  0.24787  0.35670  1.0000
  N   N5        1.0  0.11153  0.13768  0.38007  1.0000
  C   C43       1.0  0.12448  0.15318  0.40607  1.0000
  C   C44       1.0  0.09220  0.14263  0.36349  1.0000
  C   C45       1.0  0.11830  0.17444  0.41593  1.0000
  H   H43       1.0  0.12159  0.11602  0.34497  1.0000
  H   H44       1.0  0.37923  0.23165  0.08253  1.0000
  H   H45       1.0  0.22460  0.14959  0.49189  1.0000
  C   C46       1.0  0.23741  0.01844  0.33409  1.0000
  C   C47       1.0  0.26276  0.10360  0.48651  1.0000
  H   H46       1.0  0.20074  0.29844  0.32424  1.0000
  H   H47       1.0  0.23616  0.03737  0.32661  1.0000
  H   H48       1.0  0.99274  0.18724  0.31981  1.0000
  C   C48       1.0  0.23522  0.13670  0.49050  1.0000
  H   H49       1.0  0.22301  0.00117  0.31799  1.0000
  C   C49       1.0  0.45695  0.20571  0.99642  1.0000
  H   H50       1.0  0.20020  0.99278  0.44975  1.0000
  H   H51       1.0  0.12894  0.28157  0.21459  1.0000
  C   C50       1.0  0.16293  0.31706  0.23922  1.0000
  C   C51       1.0  0.18118  0.32559  0.26515  1.0000
  H   H52       1.0  0.26478  0.06555  0.76189  1.0000
  Fe  Fe11      1.0  0.42864  0.21883  0.82748  1.0000
  S   S21       1.0  0.44801  0.19164  0.84283  1.0000
  S   S22       1.0  0.38107  0.19898  0.80955  1.0000
  H   H53       1.0  0.40771  0.20449  0.74852  1.0000
  H   H54       1.0  0.11962  0.18086  0.59708  1.0000
  Fe  Fe12      1.0  0.45992  0.21739  0.88672  1.0000
  S   S23       1.0  0.45873  0.19957  0.93398  1.0000
  S   S24       1.0  0.47085  0.25202  0.80596  1.0000
  S   S25       1.0  0.43796  0.24233  0.87306  1.0000
  Fe  Fe13      1.0  0.12734  0.24822  0.64857  1.0000
  S   S26       1.0  0.14156  0.29345  0.63760  1.0000
  S   S27       1.0  0.16203  0.23549  0.63609  1.0000
  Fe  Fe14      1.0  0.06610  0.23785  0.66787  1.0000
  S   S28       1.0  0.07652  0.28258  0.65901  1.0000
  Fe  Fe15      1.0  0.09733  0.27725  0.61553  1.0000
  S   S29       1.0  0.08860  0.29308  0.57066  1.0000
  Fe  Fe16      1.0  0.12014  0.29525  0.68220  1.0000
  N   N6        1.0  0.31428  0.21770  0.72697  1.0000
  S   S30       1.0  0.08444  0.23198  0.62307  1.0000
  S   S31       1.0  0.10828  0.25054  0.69435  1.0000
  Fe  Fe17      1.0  0.27727  0.13583  0.65982  1.0000
  S   S32       1.0  0.23862  0.10534  0.68783  1.0000
  S   S33       1.0  0.32515  0.16197  0.67553  1.0000
  Fe  Fe18      1.0  0.23961  0.12283  0.60047  1.0000
  S   S34       1.0  0.19874  0.09082  0.62451  1.0000
  S   S35       1.0  0.23391  0.13774  0.55351  1.0000
  Fe  Fe19      1.0  0.21329  0.12320  0.66266  1.0000
  S   S36       1.0  0.18024  0.13435  0.68421  1.0000
  Fe  Fe20      1.0  0.22751  0.07585  0.64693  1.0000
  S   S37       1.0  0.22154  0.03123  0.64820  1.0000
  S   S38       1.0  0.25279  0.15574  0.63788  1.0000
  S   S39       1.0  0.26777  0.10576  0.61990  1.0000
  C   C52       1.0  0.24232  0.12749  0.51766  1.0000
  C   C53       1.0  0.25608  0.11084  0.51557  1.0000
  C   C54       1.0  0.33830  0.10648  0.66679  1.0000
  H   H55       1.0  0.26171  0.10368  0.53632  1.0000
  H   H56       1.0  0.38868  0.25440  0.73191  1.0000
  H   H57       1.0  0.03195  0.24215  0.59642  1.0000
  C   C55       1.0  0.09298  0.28020  0.53441  1.0000
  C   C56       1.0  0.10280  0.26037  0.53204  1.0000
  H   H58       1.0  0.35063  0.12140  0.72604  1.0000
  H   H59       1.0  0.10817  0.25277  0.55261  1.0000
  H   H60       1.0  0.43476  0.23791  0.94443  1.0000
  C   C57       1.0  0.16772  0.20862  0.65222  1.0000
  C   C58       1.0  0.14728  0.18822  0.67192  1.0000
  C   C59       1.0  0.15162  0.16583  0.68193  1.0000
  C   C60       1.0  0.17627  0.16353  0.67223  1.0000
  C   C61       1.0  0.19687  0.18418  0.65289  1.0000
  C   C62       1.0  0.19261  0.20656  0.64299  1.0000
  H   H61       1.0  0.12800  0.18951  0.67919  1.0000
  H   H62       1.0  0.13564  0.15007  0.69706  1.0000
  H   H63       1.0  0.21605  0.18292  0.64542  1.0000
  H   H64       1.0  0.20849  0.22221  0.62771  1.0000
  C   C63       1.0  0.08629  0.28998  0.50740  1.0000
  H   H65       1.0  0.35710  0.12773  0.67202  1.0000
  C   C64       1.0  0.27989  0.07374  0.74263  1.0000
  H   H66       1.0  0.27505  0.18173  0.71166  1.0000
  H   H67       1.0  0.34866  0.23162  0.69354  1.0000
  C   C65       1.0  0.45087  0.21326  0.96766  1.0000
  C   C66       1.0  0.43971  0.23211  0.96644  1.0000
  C   C67       1.0  0.35899  0.24331  0.77039  1.0000
  C   C68       1.0  0.32808  0.10502  0.72217  1.0000
  H   H68       1.0  0.27816  0.21544  0.70186  1.0000
  C   C69       1.0  0.36625  0.18606  0.77238  1.0000
  C   C70       1.0  0.33543  0.17059  0.76885  1.0000
  C   C71       1.0  0.32244  0.16239  0.73947  1.0000
  C   C72       1.0  0.34019  0.16976  0.71322  1.0000
  C   C73       1.0  0.37100  0.18451  0.71677  1.0000
  C   C74       1.0  0.38399  0.19254  0.74618  1.0000
  H   H69       1.0  0.32152  0.16549  0.78900  1.0000
  H   H70       1.0  0.29872  0.15088  0.73715  1.0000
  H   H71       1.0  0.38496  0.19028  0.69662  1.0000
  H   H72       1.0  0.15543  0.21757  0.56245  1.0000
  C   C75       1.0  0.30904  0.09457  0.74736  1.0000
  H   H73       1.0  0.24760  0.04723  0.70893  1.0000
  C   C76       1.0  0.29052  0.20363  0.70436  1.0000
  C   C77       1.0  0.28980  0.07459  0.68827  1.0000
  H   H74       1.0  0.28452  0.20597  0.76484  1.0000
  H   H75       1.0  0.02188  0.24036  0.55661  1.0000
  C   C78       1.0  0.02515  0.22850  0.57549  1.0000
  N   N7        1.0  0.31818  0.09539  0.69303  1.0000
  C   C79       1.0  0.36584  0.24445  0.73920  1.0000
  C   C80       1.0  0.30734  0.21696  0.75747  1.0000
  N   N8        1.0  0.99853  0.20178  0.58185  1.0000
  H   H76       1.0  0.16292  0.01594  0.67335  1.0000
  H   H77       1.0  0.37647  0.25217  0.78746  1.0000
  N   N9        1.0  0.16663  0.15499  0.58616  1.0000
  C   C81       1.0  0.14250  0.15654  0.59646  1.0000
  C   C82       1.0  0.18621  0.17480  0.56650  1.0000
  C   C83       1.0  0.13782  0.17875  0.58753  1.0000
  C   C84       1.0  0.18234  0.19745  0.55735  1.0000
  C   C85       1.0  0.15808  0.19949  0.56816  1.0000
  C   C86       1.0  0.17196  0.13220  0.59622  1.0000
  H   H78       1.0  0.12744  0.14130  0.61275  1.0000
  H   H79       1.0  0.20533  0.17344  0.55841  1.0000
  H   H80       1.0  0.34683  0.09190  0.66048  1.0000
  H   H81       1.0  0.19840  0.21364  0.54259  1.0000
  H   H82       1.0  0.19500  0.14113  0.60446  1.0000
  H   H83       1.0  0.15749  0.12024  0.61573  1.0000
  H   H84       1.0  0.16865  0.11748  0.57678  1.0000
  H   H85       1.0  0.31683  0.10288  0.77031  1.0000
  H   H86       1.0  0.29913  0.20193  0.68141  1.0000
  S   S40       1.0  0.02170  0.20211  0.68315  1.0000
  C   C87       1.0  0.00049  0.18236  0.60009  1.0000
  H   H87       1.0  0.28205  0.06659  0.66523  1.0000
  H   H88       1.0  0.32678  0.10922  0.64668  1.0000
  C   C88       1.0  0.32958  0.22960  0.77964  1.0000
  H   H89       1.0  0.42649  0.25815  0.99269  1.0000
  C   C89       1.0  0.34307  0.23149  0.71764  1.0000
  C   C90       1.0  0.27022  0.06349  0.71295  1.0000
  H   H90       1.0  0.32417  0.22810  0.80393  1.0000
  C   C91       1.0  0.16448  0.99692  0.66999  1.0000
  H   H91       1.0  0.00473  0.23740  0.64780  1.0000
  C   C92       1.0  0.19033  0.99861  0.65795  1.0000
  H   H92       1.0  0.07871  0.30534  0.50899  1.0000
  H   H93       1.0  0.04357  0.22477  0.56836  1.0000
  C   C93       1.0  0.10610  0.25063  0.50289  1.0000
  H   H94       1.0  0.02145  0.18676  0.61004  1.0000
  H   H95       1.0  0.11395  0.23548  0.50127  1.0000
  Fe  Fe21      1.0  0.48182  0.27272  0.85270  1.0000
  H   H96       1.0  0.47080  0.30679  0.92734  1.0000
  C   C94       1.0  0.43500  0.24351  0.99381  1.0000
  C   C95       1.0  0.48745  0.31982  0.94502  1.0000
  H   H97       1.0  0.14726  0.51877  0.24097  1.0000
  Fe  Fe22      1.0  0.18768  0.45469  0.17849  1.0000
  S   S41       1.0  0.21819  0.46229  0.13805  1.0000
  S   S42       1.0  0.15502  0.41014  0.19538  1.0000
  Fe  Fe23      1.0  0.20603  0.51771  0.18357  1.0000
  S   S43       1.0  0.23786  0.52991  0.14448  1.0000
  S   S44       1.0  0.20112  0.55097  0.21075  1.0000
  Fe  Fe24      1.0  0.20268  0.49161  0.12021  1.0000
  S   S45       1.0  0.19334  0.50066  0.07179  1.0000
  Fe  Fe25      1.0  0.25080  0.50014  0.16535  1.0000
  S   S46       1.0  0.29796  0.50973  0.16915  1.0000
  S   S47       1.0  0.16953  0.48145  0.15826  1.0000
  S   S48       1.0  0.22164  0.49050  0.20690  1.0000
  S   S49       1.0  0.17515  0.63419  0.13198  1.0000
  C   C96       1.0  0.15839  0.65557  0.05867  1.0000
  S   S50       1.0  0.40894  0.62422  0.12968  1.0000
  C   C97       1.0  0.37769  0.59436  0.14414  1.0000
  C   C98       1.0  0.34998  0.59285  0.14701  1.0000
  C   C99       1.0  0.32505  0.56714  0.15527  1.0000
  C   C100      1.0  0.32808  0.54325  0.16123  1.0000
  C   C101      1.0  0.35594  0.54531  0.15922  1.0000
  C   C102      1.0  0.38042  0.57049  0.15028  1.0000
  H   H98       1.0  0.34769  0.61115  0.14197  1.0000
  H   H99       1.0  0.30361  0.56573  0.15681  1.0000
  H   H100      1.0  0.35851  0.52705  0.16383  1.0000
  H   H101      1.0  0.40166  0.57144  0.14800  1.0000
  C   C103      1.0  0.19339  0.57381  0.18898  1.0000
  C   C104      1.0  0.19020  0.57067  0.15707  1.0000
  C   C105      1.0  0.18443  0.58928  0.13999  1.0000
  C   C106      1.0  0.18227  0.61140  0.15459  1.0000
  C   C107      1.0  0.18542  0.61457  0.18655  1.0000
  C   C108      1.0  0.19069  0.59561  0.20374  1.0000
  H   H102      1.0  0.19202  0.55382  0.14549  1.0000
  H   H103      1.0  0.18178  0.58656  0.11531  1.0000
  H   H104      1.0  0.18346  0.63140  0.19801  1.0000
  H   H105      1.0  0.19298  0.59804  0.22847  1.0000
  C   C109      1.0  0.20405  0.46455  0.03452  1.0000
  C   C110      1.0  0.19757  0.48673  0.03625  1.0000
  H   H106      1.0  0.21223  0.43714  0.00440  1.0000
  H   H107      1.0  0.20608  0.45494  0.05538  1.0000
  C   C111      1.0  0.32100  0.51828  0.09168  1.0000
  C   C112      1.0  0.14700  0.36149  0.28505  1.0000
  C   C113      1.0  0.17110  0.38863  0.28063  1.0000
  C   C114      1.0  0.17398  0.40382  0.25344  1.0000
  C   C115      1.0  0.15275  0.39202  0.23019  1.0000
  C   C116      1.0  0.12859  0.36494  0.23467  1.0000
  C   C117      1.0  0.12568  0.34977  0.26187  1.0000
  H   H108      1.0  0.18779  0.39794  0.29832  1.0000
  H   H109      1.0  0.19276  0.42455  0.25041  1.0000
  H   H110      1.0  0.11195  0.35558  0.21693  1.0000
  N   N10       1.0  0.28663  0.54035  0.06880  1.0000
  C   C118      1.0  0.27351  0.51306  0.07859  1.0000
  C   C119      1.0  0.31658  0.55698  0.07052  1.0000
  C   C120      1.0  0.29046  0.50162  0.09020  1.0000
  H   H111      1.0  0.15524  0.65732  0.08313  1.0000
  C   C121      1.0  0.33421  0.54616  0.08186  1.0000
  H   H112      1.0  0.30469  0.63842  0.21200  1.0000
  H   H113      1.0  0.24976  0.50012  0.07786  1.0000
  H   H114      1.0  0.19523  0.34795  0.26954  1.0000
  H   H115      1.0  0.27994  0.48027  0.09893  1.0000
  H   H116      1.0  0.25284  0.55124  0.07508  1.0000
  H   H117      1.0  0.33427  0.50993  0.10164  1.0000
  C   C122      1.0  0.26811  0.55160  0.05684  1.0000
  H   H118      1.0  0.18953  0.51582  0.01001  1.0000
  H   H119      1.0  0.18822  0.62790  0.00882  1.0000
  H   H120      1.0  0.18431  0.47994  0.26907  1.0000
  H   H121      1.0  0.18796  0.51402  0.26364  1.0000
  C   C123      1.0  0.13576  0.45230  0.23755  1.0000
  C   C124      1.0  0.17178  0.49174  0.26895  1.0000
  C   C125      1.0  0.13785  0.49685  0.23388  1.0000
  H   H122      1.0  0.16317  0.33268  0.22363  1.0000
  N   N11       1.0  0.14815  0.48010  0.24595  1.0000
  H   H123      1.0  0.14356  0.43884  0.24741  1.0000
  H   H124      1.0  0.10849  0.50000  0.20113  1.0000
  C   C126      1.0  0.11569  0.48626  0.21151  1.0000
  H   H125      1.0  0.16238  0.49080  0.29216  1.0000
  C   C127      1.0  0.11335  0.44091  0.21548  1.0000
  S   S51       1.0  0.14555  0.34280  0.31916  1.0000
  C   C128      1.0  0.10348  0.45811  0.20218  1.0000
  H   H126      1.0  0.10435  0.41906  0.20818  1.0000
  H   H127      1.0  0.08670  0.44972  0.18442  1.0000
  C   C129      1.0  0.17704  0.63928  0.01672  1.0000
  C   C130      1.0  0.29112  0.62537  0.19234  1.0000
  H   H128      1.0  0.35789  0.55958  0.08399  1.0000
  N   N12       1.0  0.28629  0.64333  0.17078  1.0000
  C   C131      1.0  0.17278  0.64102  0.04831  1.0000
  H   H129      1.0  0.25463  0.53835  0.03723  1.0000
  H   H130      1.0  0.32708  0.57882  0.06349  1.0000
  C   C132      1.0  0.26214  0.64699  0.17399  1.0000
  H   H131      1.0  0.28128  0.57357  0.04863  1.0000
  C   C133      1.0  0.30706  0.65792  0.14895  1.0000
  C   C134      1.0  0.19464  0.49872  0.00891  1.0000
  H   H132      1.0  0.18059  0.63123  0.06479  1.0000
  H   H133      1.0  0.22131  0.33276  0.30754  1.0000
  H   H134      1.0  0.30285  0.61518  0.18102  1.0000
  C   C135      1.0  0.20741  0.45442  0.00560  1.0000
  H   H135      1.0  0.10703  0.32895  0.26483  1.0000
  H   H136      1.0  0.26986  0.60815  0.20114  1.0000
  H   H137      1.0  0.24642  0.63640  0.19215  1.0000
  H   H138      1.0  0.32686  0.65604  0.14750  1.0000
  Fe  Fe26      1.0  0.24769  0.51150  0.84658  1.0000
  S   S52       1.0  0.21040  0.51148  0.82031  1.0000
  S   S53       1.0  0.29634  0.53544  0.83586  1.0000
  Fe  Fe27      1.0  0.20819  0.47478  0.89805  1.0000
  S   S54       1.0  0.16775  0.47166  0.87599  1.0000
  S   S55       1.0  0.20828  0.45288  0.94233  1.0000
  Fe  Fe28      1.0  0.18559  0.46474  0.83101  1.0000
  S   S56       1.0  0.15158  0.43056  0.79873  1.0000
  Fe  Fe29      1.0  0.19552  0.51802  0.86691  1.0000
  S   S57       1.0  0.18164  0.54967  0.88321  1.0000
  S   S58       1.0  0.22422  0.46453  0.85398  1.0000
  S   S59       1.0  0.23465  0.52138  0.89225  1.0000
  C   C136      1.0  0.37844  0.63049  0.76150  1.0000
  C   C137      1.0  0.19575  0.39652  0.67607  1.0000
  C   C138      1.0  0.37238  0.64863  0.74412  1.0000
  C   C139      1.0  0.31142  0.57185  0.82998  1.0000
  C   C140      1.0  0.29577  0.58247  0.81384  1.0000
  C   C141      1.0  0.30881  0.61143  0.80784  1.0000
  C   C142      1.0  0.33715  0.63001  0.81878  1.0000
  C   C143      1.0  0.35269  0.61952  0.83534  1.0000
  C   C144      1.0  0.33999  0.59040  0.84050  1.0000
  H   H139      1.0  0.27385  0.56824  0.80540  1.0000
  H   H140      1.0  0.29677  0.61945  0.79486  1.0000
  H   H141      1.0  0.37453  0.63375  0.84394  1.0000
  H   H142      1.0  0.35215  0.58220  0.85298  1.0000
  C   C145      1.0  0.18676  0.57837  0.86040  1.0000
  C   C146      1.0  0.18903  0.57772  0.82837  1.0000
  C   C147      1.0  0.19331  0.60115  0.81098  1.0000
  C   C148      1.0  0.19588  0.62550  0.82555  1.0000
  C   C149      1.0  0.19374  0.62617  0.85758  1.0000
  C   C150      1.0  0.18889  0.60256  0.87489  1.0000
  H   H143      1.0  0.18724  0.55910  0.81699  1.0000
  H   H144      1.0  0.19494  0.60053  0.78619  1.0000
  H   H145      1.0  0.14320  0.34215  0.59302  1.0000
  H   H146      1.0  0.18708  0.60311  0.89965  1.0000
  C   C151      1.0  0.20453  0.46650  0.97826  1.0000
  H   H147      1.0  0.18137  0.38697  0.92132  1.0000
  C   C152      1.0  0.19820  0.48875  0.98005  1.0000
  H   H148      1.0  0.14854  0.38980  0.84662  1.0000
  H   H149      1.0  0.19579  0.49815  0.95919  1.0000
  C   C153      1.0  0.14941  0.35842  0.73870  1.0000
  C   C154      1.0  0.12431  0.36148  0.74234  1.0000
  C   C155      1.0  0.12542  0.38357  0.76087  1.0000
  C   C156      1.0  0.15146  0.40273  0.77628  1.0000
  C   C157      1.0  0.17639  0.39933  0.77312  1.0000
  C   C158      1.0  0.17535  0.37740  0.75440  1.0000
  N   N13       1.0  0.15201  0.39593  0.89535  1.0000
  H   H150      1.0  0.10595  0.38591  0.76318  1.0000
  H   H151      1.0  0.19659  0.41380  0.78477  1.0000
  H   H152      1.0  0.17600  0.37486  0.88199  1.0000
  C   C159      1.0  0.17805  0.39213  0.89750  1.0000
  H   H153      1.0  0.14335  0.39304  0.68808  1.0000
  C   C160      1.0  0.26436  0.62264  0.85468  1.0000
  H   H154      1.0  0.10968  0.41398  0.93935  1.0000
  C   C161      1.0  0.26404  0.60057  0.87127  1.0000
  H   H155      1.0  0.20142  0.38076  0.68551  1.0000
  C   C162      1.0  0.28831  0.60570  0.88927  1.0000
  H   H156      1.0  0.09744  0.36727  0.65795  1.0000
  H   H157      1.0  0.24611  0.61825  0.83966  1.0000
  C   C163      1.0  0.10428  0.40566  0.89050  1.0000
  H   H158      1.0  0.10573  0.39767  0.84198  1.0000
  H   H159      1.0  0.36059  0.60958  0.76659  1.0000
  H   H160      1.0  0.28875  0.58844  0.90123  1.0000
  H   H161      1.0  0.19566  0.64482  0.86898  1.0000
  H   H162      1.0  0.18845  0.36712  0.62459  1.0000
  C   C164      1.0  0.11744  0.40780  0.91902  1.0000
  N   N14       1.0  0.16870  0.38203  0.65775  1.0000
  C   C165      1.0  0.14355  0.38218  0.66706  1.0000
  C   C166      1.0  0.16874  0.36786  0.63154  1.0000
  C   C167      1.0  0.11749  0.36769  0.65007  1.0000
  C   C168      1.0  0.14323  0.35362  0.61368  1.0000
  C   C169      1.0  0.11742  0.35339  0.62316  1.0000
  H   H163      1.0  0.19317  0.40819  0.69598  1.0000
  H   H164      1.0  0.10417  0.34710  0.73054  1.0000
  H   H165      1.0  0.19501  0.65427  0.95859  1.0000
  H   H166      1.0  0.39168  0.60109  0.79814  1.0000
  S   S60       1.0  0.20293  0.65510  0.80333  1.0000
  H   H167      1.0  0.33185  0.63688  0.90378  1.0000
  H   H168      1.0  0.19800  0.41201  0.89108  1.0000
  C   C170      1.0  0.14136  0.40275  0.92105  1.0000
  H   H169      1.0  0.08612  0.41009  0.88842  1.0000
  H   H170      1.0  0.19492  0.37524  0.75188  1.0000
  C   C171      1.0  0.11523  0.39865  0.86445  1.0000
  H   H171      1.0  0.15180  0.40500  0.94324  1.0000
  C   C172      1.0  0.13948  0.39415  0.86724  1.0000
  H   H172      1.0  0.09734  0.34178  0.60985  1.0000
  N   N15       1.0  0.28783  0.64925  0.85650  1.0000
  H   H173      1.0  0.24543  0.57945  0.86936  1.0000
  H   H174      1.0  0.42275  0.63150  0.81403  1.0000
  H   H175      1.0  0.21424  0.41178  0.66172  1.0000
  C   C173      1.0  0.31238  0.63287  0.89080  1.0000
  C   C174      1.0  0.17194  0.64947  0.96308  1.0000
  H   H176      1.0  0.42712  0.61476  0.77963  1.0000
  C   C175      1.0  0.41217  0.62070  0.79207  1.0000
  H   H177      1.0  0.15659  0.62785  0.95459  1.0000
  H   H178      1.0  0.35012  0.64192  0.73630  1.0000
  N   N16       1.0  0.40609  0.63945  0.77306  1.0000
  C   C176      1.0  0.31175  0.65454  0.87416  1.0000
  S   S61       1.0  0.15052  0.33283  0.71331  1.0000
  H   H179      1.0  0.47699  0.32856  0.96087  1.0000
  N   N17       1.0  0.16741  0.65188  0.99607  1.0000
  Fe  Fe30      1.0  0.11188  0.88110  0.35859  1.0000
  S   S62       1.0  0.13350  0.85541  0.37203  1.0000
  S   S63       1.0  0.13361  0.92726  0.37452  1.0000
  Fe  Fe31      1.0  0.05689  0.82842  0.33476  1.0000
  S   S64       1.0  0.07483  0.79927  0.34605  1.0000
  S   S65       1.0  0.01182  0.81358  0.31315  1.0000
  Fe  Fe32      1.0  0.08930  0.82412  0.39049  1.0000
  S   S66       1.0  0.08015  0.79983  0.43504  1.0000
  Fe  Fe33      1.0  0.11755  0.83283  0.32635  1.0000
  S   S67       1.0  0.15187  0.82718  0.29803  1.0000
  S   S68       1.0  0.06850  0.85092  0.38040  1.0000
  S   S69       1.0  0.09880  0.86077  0.31168  1.0000
  Fe  Fe34      1.0  0.17737  0.72388  0.17966  1.0000
  S   S70       1.0  0.21132  0.75871  0.15067  1.0000
  S   S71       1.0  0.14408  0.72719  0.21206  1.0000
  Fe  Fe35      1.0  0.18749  0.67870  0.14665  1.0000
  S   S72       1.0  0.22218  0.71028  0.11583  1.0000
  Fe  Fe36      1.0  0.23852  0.73711  0.15825  1.0000
  S   S73       1.0  0.28794  0.76235  0.16178  1.0000
  Fe  Fe37      1.0  0.19249  0.72892  0.11034  1.0000
  S   S74       1.0  0.18076  0.74094  0.06462  1.0000
  S   S75       1.0  0.20607  0.70404  0.19014  1.0000
  S   S76       1.0  0.15632  0.69556  0.13838  1.0000
  Fe  Fe38      1.0  0.39701  0.70584  0.16910  1.0000
  C   C177      1.0  0.12032  0.74764  0.14859  1.0000
  S   S77       1.0  0.36093  0.70213  0.20095  1.0000
  Fe  Fe39      1.0  0.46315  0.72668  0.16419  1.0000
  H   H180      1.0  0.42884  0.73051  0.23375  1.0000
  Fe  Fe40      1.0  0.42645  0.72113  0.10620  1.0000
  S   S78       1.0  0.42761  0.74303  0.06153  1.0000
  S   S79       1.0  0.43460  0.74553  0.15071  1.0000
  H   H181      1.0  0.41184  0.74625  0.25723  1.0000
  C   C178      1.0  0.13986  0.75390  0.12409  1.0000
  C   C179      1.0  0.42910  0.72875  0.02520  1.0000
  C   C180      1.0  0.43235  0.70469  0.02255  1.0000
  C   C181      1.0  0.14827  0.66800  0.03745  1.0000
  S   S80       1.0  0.42594  0.68856  0.18599  1.0000
  C   C182      1.0  0.30743  0.74467  0.17206  1.0000
  C   C183      1.0  0.29700  0.72429  0.19508  1.0000
  C   C184      1.0  0.31383  0.71167  0.20413  1.0000
  C   C185      1.0  0.34071  0.71879  0.18963  1.0000
  C   C186      1.0  0.35086  0.73876  0.16621  1.0000
  C   C187      1.0  0.33446  0.75198  0.15780  1.0000
  H   H182      1.0  0.27635  0.71884  0.20644  1.0000
  H   H183      1.0  0.30593  0.69629  0.22233  1.0000
  H   H184      1.0  0.37156  0.74437  0.15490  1.0000
  H   H185      1.0  0.34269  0.76789  0.14014  1.0000
  C   C188      1.0  0.19559  0.73573  0.02994  1.0000
  H   H186      1.0  0.48792  0.73117  0.24170  1.0000
  H   H187      1.0  0.22287  0.72120  0.05157  1.0000
  C   C189      1.0  0.14917  0.79887  0.27465  1.0000
  C   C190      1.0  0.17477  0.80149  0.26036  1.0000
  C   C191      1.0  0.17375  0.77980  0.24126  1.0000
  C   C192      1.0  0.14712  0.75497  0.23661  1.0000
  C   C193      1.0  0.12159  0.75224  0.25121  1.0000
  C   C194      1.0  0.12251  0.77410  0.26990  1.0000
  H   H188      1.0  0.19554  0.82053  0.26388  1.0000
  H   H189      1.0  0.19359  0.78223  0.23026  1.0000
  H   H190      1.0  0.10085  0.73313  0.24779  1.0000
  H   H191      1.0  0.10258  0.77177  0.28055  1.0000
  H   H192      1.0  0.42119  0.75705  0.21836  1.0000
  H   H193      1.0  0.13766  0.67992  0.04538  1.0000
  C   C195      1.0  0.14449  0.95817  0.35252  1.0000
  C   C196      1.0  0.14858  0.95861  0.32067  1.0000
  C   C197      1.0  0.17725  0.83261  0.41893  1.0000
  H   H194      1.0  0.14291  0.93919  0.30837  1.0000
  H   H195      1.0  0.42645  0.76161  0.00029  1.0000
  C   C198      1.0  0.11720  0.84517  0.47180  1.0000
  C   C199      1.0  0.09393  0.81749  0.47057  1.0000
  C   C200      1.0  0.18628  0.74094  0.00161  1.0000
  H   H196      1.0  0.12611  0.85663  0.45072  1.0000
  H   H197      1.0  0.11585  0.77623  0.33843  1.0000
  C   C201      1.0  0.21544  0.72523  0.03005  1.0000
  C   C202      1.0  0.16805  0.80138  0.14387  1.0000
  H   H198      1.0  0.17629  0.82658  0.19996  1.0000
  H   H199      1.0  0.20815  0.96696  0.35828  1.0000
  C   C203      1.0  0.17345  0.81362  0.36766  1.0000
  H   H200      1.0  0.27636  0.69483  0.11767  1.0000
  H   H201      1.0  0.43255  0.69360  0.04300  1.0000
  H   H202      1.0  0.14507  0.76761  0.33433  1.0000
  H   H203      1.0  0.10986  0.76340  0.18944  1.0000
  H   H204      1.0  0.15012  0.83373  0.17990  1.0000
  C   C204      1.0  0.20330  0.97669  0.40516  1.0000
  S   S81       1.0  0.45738  0.70489  0.11817  1.0000
  C   C205      1.0  0.13473  0.78916  0.40333  1.0000
  H   H205      1.0  0.13671  0.73770  0.10733  1.0000
  Fe  Fe41      1.0  0.41746  0.66846  0.13902  1.0000
  H   H206      1.0  0.11296  0.77201  0.40868  1.0000
  H   H207      1.0  0.45052  0.75978  0.29606  1.0000
  C   C206      1.0  0.21321  0.98378  0.37489  1.0000
  N   N18       1.0  0.14874  0.79507  0.16783  1.0000
  H   H208      1.0  0.13828  0.80850  0.21050  1.0000
  H   H209      1.0  0.18257  0.81564  0.34473  1.0000
  C   C207      1.0  0.14999  0.80963  0.42593  1.0000
  H   H210      1.0  0.19066  0.95469  0.41162  1.0000
  C   C208      1.0  0.16383  0.78095  0.12157  1.0000
  H   H211      1.0  0.20999  0.85277  0.38359  1.0000
  H   H212      1.0  0.10221  0.72641  0.15140  1.0000
  C   C209      1.0  0.42863  0.75047  0.23914  1.0000
  C   C210      1.0  0.22554  0.71964  0.00220  1.0000
  C   C211      1.0  0.13010  0.76983  0.35116  1.0000
  H   H213      1.0  0.14027  0.80799  0.44849  1.0000
  N   N19       1.0  0.45804  0.77214  0.24903  1.0000
  H   H214      1.0  0.18703  0.82222  0.14205  1.0000
  H   H215      1.0  0.16404  0.98458  0.28019  1.0000
  C   C212      1.0  0.46596  0.77401  0.27931  1.0000
  C   C213      1.0  0.12495  0.76867  0.17022  1.0000
  C   C214      1.0  0.18910  0.83471  0.38958  1.0000
  H   H216      1.0  0.18884  0.84896  0.43609  1.0000
  N   N20       1.0  0.14674  0.79110  0.37479  1.0000
  H   H217      1.0  0.00172  0.77388  0.36237  1.0000
  H   H218      1.0  0.47240  0.78661  0.20342  1.0000
  H   H219      1.0  0.11606  0.74881  0.36147  1.0000
  C   C215      1.0  0.15292  0.66589  0.00603  1.0000
  C   C216      1.0  0.15354  0.81705  0.19059  1.0000
  S   S82       1.0  0.38614  0.68313  0.12359  1.0000
  H   H220      1.0  0.17937  0.78579  0.10277  1.0000
  H   H221      1.0  0.14870  0.98353  0.39268  1.0000
  H   H222      1.0  0.32074  0.68867  0.11271  1.0000
  C   C217      1.0  0.16069  0.98440  0.30478  1.0000
  C   C218      1.0  0.27885  0.67989  0.13206  1.0000
  C   C219      1.0  0.15196  0.98365  0.36809  1.0000
  C   C220      1.0  0.47807  0.78909  0.22765  1.0000
  C   C221      1.0  0.30367  0.67638  0.12923  1.0000
  H   H223      1.0  0.23874  0.66798  0.15727  1.0000
  H   H224      1.0  0.24067  0.71127  0.00263  1.0000
  H   H225      1.0  0.17092  0.74907  0.00129  1.0000
  C   C222      1.0  0.42887  0.74293  0.99839  1.0000
  C   C223      1.0  0.25783  0.66498  0.15446  1.0000
  H   H226      1.0  0.48305  0.76881  0.09627  1.0000
  Fe  Fe42      1.0  0.05775  0.81043  0.64883  1.0000
  S   S83       1.0  0.09198  0.80006  0.62988  1.0000
  S   S84       1.0  0.01035  0.77624  0.63892  1.0000
  Fe  Fe43      1.0  0.10541  0.86990  0.66784  1.0000
  S   S85       1.0  0.14233  0.86297  0.65112  1.0000
  S   S86       1.0  0.11143  0.91261  0.68380  1.0000
  Fe  Fe44      1.0  0.11369  0.84325  0.60958  1.0000
  S   S87       1.0  0.13509  0.85945  0.56311  1.0000
  Fe  Fe45      1.0  0.11772  0.82020  0.67326  1.0000
  S   S88       1.0  0.14160  0.79746  0.69286  1.0000
  S   S89       1.0  0.07796  0.85229  0.62521  1.0000
  S   S90       1.0  0.08222  0.82828  0.69343  1.0000
  Fe  Fe46      1.0  0.19330  0.74075  0.83656  1.0000
  S   S91       1.0  0.23073  0.76510  0.86981  1.0000
  S   S92       1.0  0.16398  0.76023  0.82496  1.0000
  Fe  Fe47      1.0  0.21068  0.69484  0.82830  1.0000
  S   S93       1.0  0.24966  0.71605  0.85955  1.0000
  Fe  Fe48      1.0  0.21940  0.72347  0.89082  1.0000
  S   S94       1.0  0.22830  0.71555  0.93983  1.0000
  Fe  Fe49      1.0  0.25795  0.75569  0.83652  1.0000
  S   S95       1.0  0.30199  0.79231  0.82472  1.0000
  S   S96       1.0  0.17932  0.69928  0.86085  1.0000
  S   S97       1.0  0.22167  0.73432  0.80191  1.0000
  Fe  Fe50      1.0  0.46335  0.73230  0.81872  1.0000
  S   S98       1.0  0.47066  0.75721  0.86291  1.0000
  S   S99       1.0  0.39853  0.71862  0.87585  1.0000
  Fe  Fe51      1.0  0.42874  0.75776  0.85042  1.0000
  S   S100      1.0  0.42298  0.79603  0.85584  1.0000
  Fe  Fe52      1.0  0.43952  0.71594  0.88519  1.0000
  S   S101      1.0  0.44573  0.69981  0.93109  1.0000
  S   S102      1.0  0.42384  0.73635  0.80486  1.0000
  H   H227      1.0  0.28157  0.76176  0.90854  1.0000
  C   C224      1.0  0.43701  0.71012  0.96668  1.0000
  C   C225      1.0  0.43275  0.73363  0.96921  1.0000
  H   H228      1.0  0.19715  0.82637  0.82273  1.0000
  H   H229      1.0  0.43348  0.74519  0.94881  1.0000
  N   N21       1.0  0.22929  0.82256  0.79536  1.0000
  C   C226      1.0  0.38891  0.79326  0.84539  1.0000
  C   C227      1.0  0.36299  0.76720  0.84265  1.0000
  C   C228      1.0  0.33584  0.76636  0.83660  1.0000
  C   C229      1.0  0.33488  0.79154  0.83252  1.0000
  C   C230      1.0  0.36086  0.81732  0.83487  1.0000
  C   C231      1.0  0.38760  0.81818  0.84163  1.0000
  H   H230      1.0  0.36385  0.74784  0.84554  1.0000
  H   H231      1.0  0.31587  0.74636  0.83451  1.0000
  H   H232      1.0  0.36033  0.83683  0.83169  1.0000
  H   H233      1.0  0.40747  0.83833  0.84377  1.0000
  C   C232      1.0  0.21607  0.72462  0.97392  1.0000
  C   C233      1.0  0.19649  0.73543  0.97364  1.0000
  C   C234      1.0  0.28828  0.67159  0.83742  1.0000
  C   C235      1.0  0.21973  0.82906  0.82467  1.0000
  H   H234      1.0  0.22115  0.82635  0.71866  1.0000
  H   H235      1.0  0.18901  0.73931  0.95196  1.0000
  N   N22       1.0  0.11394  0.91551  0.58054  1.0000
  C   C236      1.0  0.14727  0.78739  0.72999  1.0000
  C   C237      1.0  0.16138  0.77090  0.73215  1.0000
  C   C238      1.0  0.16649  0.76227  0.76092  1.0000
  C   C239      1.0  0.15728  0.76980  0.78800  1.0000
  C   C240      1.0  0.14277  0.78595  0.78584  1.0000
  C   C241      1.0  0.13790  0.79482  0.75705  1.0000
  H   H236      1.0  0.16860  0.76487  0.71139  1.0000
  H   H237      1.0  0.17757  0.74979  0.76213  1.0000
  H   H238      1.0  0.13546  0.79184  0.80663  1.0000
  H   H239      1.0  0.12693  0.80740  0.75581  1.0000
  C   C242      1.0  0.11826  0.84302  0.52790  1.0000
  H   H240      1.0  0.05333  0.91009  0.61606  1.0000
  H   H241      1.0  0.21845  0.81423  0.84286  1.0000
  H   H242      1.0  0.06043  0.87181  0.53144  1.0000
  H   H243      1.0  0.08564  0.80411  0.54779  1.0000
  C   C243      1.0  0.14226  0.94550  0.67398  1.0000
  C   C244      1.0  0.14065  0.97050  0.67810  1.0000
  C   C245      1.0  0.16802  0.94721  0.66171  1.0000
  H   H244      1.0  0.12085  0.96944  0.68761  1.0000
  H   H245      1.0  0.16973  0.92825  0.65864  1.0000
  H   H246      1.0  0.31168  0.79280  0.89319  1.0000
  H   H247      1.0  0.23529  0.85099  0.83200  1.0000
  C   C246      1.0  0.24831  0.81184  0.79526  1.0000
  H   H248      1.0  0.20504  0.83689  0.76827  1.0000
  N   N23       1.0  0.32409  0.76766  0.92035  1.0000
  C   C247      1.0  0.35359  0.78362  0.91460  1.0000
  C   C248      1.0  0.31331  0.74185  0.93386  1.0000
  C   C249      1.0  0.37304  0.77349  0.92161  1.0000
  C   C250      1.0  0.33217  0.73109  0.94122  1.0000
  C   C251      1.0  0.36222  0.74702  0.93490  1.0000
  C   C252      1.0  0.30419  0.77897  0.91369  1.0000
  H   H249      1.0  0.36224  0.80416  0.90404  1.0000
  C   C253      1.0  0.04468  0.75252  0.73316  1.0000
  H   H250      1.0  0.39635  0.78601  0.91637  1.0000
  H   H251      1.0  0.16846  0.66484  0.94942  1.0000
  C   C254      1.0  0.09712  0.91983  0.60197  1.0000
  H   H252      1.0  0.15757  0.92805  0.56442  1.0000
  H   H253      1.0  0.25607  0.80774  0.81670  1.0000
  C   C255      1.0  0.09446  0.81564  0.52673  1.0000
  H   H254      1.0  0.25503  0.80591  0.71813  1.0000
  C   C256      1.0  0.24810  0.81094  0.73979  1.0000
  S   S103      1.0  0.43522  0.69055  0.84217  1.0000
  H   H255      1.0  0.03581  0.75864  0.75263  1.0000
  C   C257      1.0  0.25787  0.80571  0.76753  1.0000
  H   H256      1.0  0.27266  0.79681  0.76772  1.0000
  C   C258      1.0  0.06710  0.74571  0.73744  1.0000
  H   H257      1.0  0.09673  0.73404  0.71530  1.0000
  H   H258      1.0  0.30307  0.79119  0.93381  1.0000
  H   H259      1.0  0.10724  0.93264  0.62228  1.0000
  C   C259      1.0  0.22928  0.82255  0.74007  1.0000
  H   H260      1.0  0.14917  0.91363  0.60241  1.0000
  C   C260      1.0  0.22016  0.82841  0.76825  1.0000
  Fe  Fe53      1.0  0.39667  0.69675  0.83125  1.0000
  H   H261      1.0  0.07597  0.74659  0.76023  1.0000
  H   H262      1.0  0.08559  0.71390  0.66126  1.0000
  C   C261      1.0  0.03400  0.75182  0.70361  1.0000
  H   H263      1.0  0.21183  0.97465  0.64473  1.0000
  H   H264      1.0  0.99199  0.79573  0.69424  1.0000
  H   H265      1.0  0.39025  0.69055  0.72584  1.0000
  C   C262      1.0  0.06654  0.90712  0.59852  1.0000
  H   H266      1.0  0.33105  0.67526  0.87422  1.0000
  H   H267      1.0  0.03809  0.74462  0.65568  1.0000
  C   C263      1.0  0.19192  0.97361  0.65389  1.0000
  H   H268      1.0  0.29826  0.67167  0.81471  1.0000
  C   C264      1.0  0.14559  0.92723  0.58596  1.0000
  C   C265      1.0  0.07052  0.88562  0.55115  1.0000
  H   H269      1.0  0.32356  0.71063  0.95192  1.0000
  N   N24       1.0  0.06828  0.73810  0.68300  1.0000
  H   H270      1.0  0.45041  0.67306  0.77586  1.0000
  H   H271      1.0  0.15535  0.94898  0.59563  1.0000
  H   H272      1.0  0.28999  0.72948  0.93906  1.0000
  H   H273      1.0  0.11425  0.89499  0.53849  1.0000
  H   H274      1.0  0.37716  0.73898  0.94036  1.0000
  H   H275      1.0  0.06838  0.72719  0.63547  1.0000
  C   C266      1.0  0.04618  0.74459  0.67863  1.0000
  C   C267      1.0  0.07871  0.73850  0.71194  1.0000
  C   C268      1.0  0.10104  0.89878  0.55529  1.0000
  C   C269      1.0  0.08210  0.73215  0.65655  1.0000
  C   C270      1.0  0.05318  0.88979  0.57299  1.0000
  H   H276      1.0  0.10382  0.75091  0.65184  1.0000
  C   C271      1.0  0.08262  0.80281  0.49811  1.0000
  C   C272      1.0  0.39484  0.67595  0.73841  1.0000
  C   C273      1.0  0.42842  0.66594  0.76685  1.0000
  H   H277      1.0  0.44077  0.70587  0.74539  1.0000
  C   C274      1.0  0.42312  0.68461  0.74954  1.0000
  H   H278      1.0  0.01676  0.75735  0.69988  1.0000
  C   C275      1.0  0.43632  0.69546  0.99340  1.0000
  S   S104      1.0  0.35256  0.66613  0.81090  1.0000
  H   H279      1.0  0.43955  0.67723  0.99161  1.0000
  H   H280      1.0  0.26561  0.66826  0.83351  1.0000
  H   H281      1.0  0.30135  0.69264  0.84841  1.0000
  H   H282      1.0  0.06469  0.78135  0.49731  1.0000
  H   H283      1.0  0.02942  0.87926  0.57038  1.0000
  H   H284      1.0  0.14798  0.87891  0.50107  1.0000
  C   C276      1.0  0.12953  0.85774  0.50035  1.0000
  H   H285      1.0  0.14555  0.67618  0.98977  1.0000
  Fe  Fe54      1.0  0.73343  0.23557  0.16300  1.0000
  S   S105      1.0  0.69063  0.20033  0.14510  1.0000
  S   S106      1.0  0.76292  0.23260  0.20034  1.0000
  Fe  Fe55      1.0  0.72493  0.28048  0.12807  1.0000
  S   S107      1.0  0.68160  0.24856  0.10820  1.0000
  H   H286      1.0  0.73513  0.10674  0.41505  1.0000
  Fe  Fe56      1.0  0.67221  0.22946  0.15494  1.0000
  S   S108      1.0  0.63104  0.21833  0.18213  1.0000
  Fe  Fe57      1.0  0.70407  0.22281  0.09945  1.0000
  S   S109      1.0  0.69449  0.19921  0.05390  1.0000
  S   S110      1.0  0.71389  0.26348  0.17580  1.0000
  S   S111      1.0  0.74848  0.25596  0.11639  1.0000
  C   C277      1.0  0.65763  0.31245  0.17296  1.0000
  C   C278      1.0  0.73165  0.09867  0.46373  1.0000
  Fe  Fe58      1.0  0.83937  0.11847  0.32573  1.0000
  S   S112      1.0  0.82550  0.15174  0.32806  1.0000
  S   S113      1.0  0.88547  0.12662  0.31356  1.0000
  Fe  Fe59      1.0  0.77840  0.07060  0.34568  1.0000
  S   S114      1.0  0.76038  0.10093  0.34928  1.0000
  S   S115      1.0  0.74992  0.02647  0.36548  1.0000
  Fe  Fe60      1.0  0.78385  0.11947  0.30472  1.0000
  S   S116      1.0  0.76014  0.12529  0.26329  1.0000
  Fe  Fe61      1.0  0.80327  0.13030  0.37229  1.0000
  S   S117      1.0  0.80632  0.15511  0.41578  1.0000
  S   S118      1.0  0.79911  0.08697  0.29952  1.0000
  S   S119      1.0  0.82010  0.09938  0.37135  1.0000
  C   C279      1.0  0.97011  0.21055  0.33078  1.0000
  C   C280      1.0  0.94239  0.20913  0.33326  1.0000
  C   C281      1.0  0.91630  0.18364  0.32785  1.0000
  C   C282      1.0  0.91771  0.15936  0.31950  1.0000
  C   C283      1.0  0.94542  0.16094  0.31611  1.0000
  N   N25       1.0  0.73053  0.05564  0.47880  1.0000
  H   H287      1.0  0.94114  0.22778  0.34000  1.0000
  H   H288      1.0  0.89515  0.18278  0.33027  1.0000
  H   H289      1.0  0.94670  0.14229  0.30940  1.0000
  H   H290      1.0  0.92476  0.21815  0.41732  1.0000
  C   C284      1.0  0.80416  0.11401  0.45441  1.0000
  C   C285      1.0  0.80540  0.14024  0.45208  1.0000
  H   H291      1.0  0.73438  0.06170  0.40138  1.0000
  H   H292      1.0  0.80470  0.10286  0.43395  1.0000
  H   H293      1.0  0.79872  0.08066  0.48461  1.0000
  C   C286      1.0  0.60015  0.21352  0.16087  1.0000
  C   C287      1.0  0.59812  0.20766  0.12930  1.0000
  C   C288      1.0  0.57347  0.20434  0.11269  1.0000
  C   C289      1.0  0.55107  0.20744  0.12740  1.0000
  C   C290      1.0  0.55326  0.21358  0.15890  1.0000
  C   C291      1.0  0.57760  0.21628  0.17566  1.0000
  H   H294      1.0  0.61531  0.20529  0.11778  1.0000
  H   H295      1.0  0.57180  0.19954  0.08833  1.0000
  H   H296      1.0  0.53602  0.21586  0.17044  1.0000
  H   H297      1.0  0.57907  0.22081  0.20009  1.0000
  C   C292      1.0  0.76111  0.15550  0.24657  1.0000
  C   C293      1.0  0.74465  0.15202  0.21967  1.0000
  C   C294      1.0  0.74495  0.17531  0.20516  1.0000
  C   C295      1.0  0.76189  0.20247  0.21734  1.0000
  C   C296      1.0  0.77847  0.20598  0.24418  1.0000
  C   C297      1.0  0.77803  0.18266  0.25880  1.0000
  H   H298      1.0  0.73154  0.13112  0.20992  1.0000
  H   H299      1.0  0.73213  0.17224  0.18452  1.0000
  H   H300      1.0  0.79171  0.22692  0.25378  1.0000
  H   H301      1.0  0.79085  0.18571  0.27944  1.0000
  C   C298      1.0  0.73305  0.09205  0.43290  1.0000
  C   C299      1.0  0.70954  0.21790  0.01950  1.0000
  C   C300      1.0  0.72914  0.24691  0.01977  1.0000
  H   H302      1.0  0.81175  0.18735  0.19977  1.0000
  H   H303      1.0  0.73607  0.25821  0.04146  1.0000
  H   H304      1.0  0.86244  0.14655  0.41704  1.0000
  N   N26       1.0  0.69772  0.20168  0.24821  1.0000
  C   C301      1.0  0.70000  0.17859  0.25673  1.0000
  C   C302      1.0  0.67549  0.19869  0.22916  1.0000
  C   C303      1.0  0.68045  0.15181  0.24500  1.0000
  C   C304      1.0  0.65543  0.17222  0.21716  1.0000
  C   C305      1.0  0.65813  0.14870  0.22495  1.0000
  C   C306      1.0  0.71838  0.22965  0.26054  1.0000
  H   H305      1.0  0.71751  0.18086  0.27198  1.0000
  H   H306      1.0  0.67329  0.21689  0.22292  1.0000
  H   H307      1.0  0.68299  0.13374  0.25106  1.0000
  H   H308      1.0  0.63809  0.17012  0.20168  1.0000
  H   H309      1.0  0.64299  0.12813  0.21539  1.0000
  H   H310      1.0  0.73963  0.23088  0.26719  1.0000
  H   H311      1.0  0.72392  0.24602  0.24270  1.0000
  H   H312      1.0  0.70861  0.23466  0.28081  1.0000
  H   H313      1.0  0.55778  0.28355  0.15665  1.0000
  C   C307      1.0  0.91380  0.15380  0.39712  1.0000
  H   H314      1.0  0.67850  0.31711  0.18319  1.0000
  H   H315      1.0  0.80548  0.17464  0.47751  1.0000
  H   H316      1.0  0.65100  0.27383  0.15149  1.0000
  H   H317      1.0  0.73300  0.03010  0.44230  1.0000
  H   H318      1.0  0.73285  0.11862  0.47000  1.0000
  H   H319      1.0  0.89616  0.13286  0.39126  1.0000
  C   C308      1.0  0.80448  0.15430  0.47908  1.0000
  H   H320      1.0  0.86865  0.17009  0.38542  1.0000
  C   C309      1.0  0.57358  0.29160  0.13714  1.0000
  H   H321      1.0  0.50882  0.28607  0.03294  1.0000
  H   H322      1.0  0.75887  0.00880  0.30392  1.0000
  H   H323      1.0  0.97685  0.22952  0.41123  1.0000
  H   H324      1.0  0.52352  0.25576  0.00261  1.0000
  H   H325      1.0  0.83728  0.21182  0.22703  1.0000
  H   H326      1.0  0.87401  0.18278  0.42464  1.0000
  C   C310      1.0  0.92974  0.20143  0.41145  1.0000
  S   S120      1.0  0.52106  0.20407  0.10557  1.0000
  N   N27       1.0  0.90752  0.17452  0.40627  1.0000
  H   H327      1.0  0.57292  0.31007  0.12719  1.0000
  C   C311      1.0  0.82452  0.12506  0.22994  1.0000
  H   H328      1.0  0.85493  0.11641  0.25506  1.0000
  C   C312      1.0  0.96585  0.18684  0.39971  1.0000
  C   C313      1.0  0.81941  0.14615  0.21804  1.0000
  C   C314      1.0  0.83451  0.19604  0.20898  1.0000
  H   H329      1.0  0.56590  0.27475  0.11916  1.0000
  H   H330      1.0  0.85017  0.20677  0.18991  1.0000
  N   N28       1.0  0.60326  0.29947  0.14809  1.0000
  N   N29       1.0  0.83973  0.17399  0.22194  1.0000
  H   H331      1.0  0.59547  0.17786  0.03826  1.0000
  C   C315      1.0  0.86546  0.18156  0.23738  1.0000
  C   C316      1.0  0.80067  0.10139  0.48327  1.0000
  C   C317      1.0  0.87135  0.16098  0.24941  1.0000
  H   H332      1.0  0.79874  0.14002  0.20631  1.0000
  C   C318      1.0  0.97154  0.18638  0.32192  1.0000
  C   C319      1.0  0.61485  0.28191  0.14283  1.0000
  H   H333      1.0  0.88158  0.20361  0.24053  1.0000
  C   C320      1.0  0.73298  0.06698  0.42524  1.0000
  H   H334      1.0  0.89166  0.16693  0.26184  1.0000
  C   C321      1.0  0.85073  0.13257  0.24557  1.0000
  C   C322      1.0  0.64214  0.28808  0.15523  1.0000
  H   H335      1.0  0.80794  0.10304  0.22754  1.0000
  S   S121      1.0  0.50113  0.26221  0.11017  1.0000
  C   C323      1.0  0.73201  0.04905  0.44859  1.0000
  S   S122      1.0  0.52185  0.30667  0.18613  1.0000
  H   H336      1.0  0.67485  0.24319  0.99898  1.0000
  C   C324      1.0  0.87676  0.16823  0.40840  1.0000
  C   C325      1.0  0.73804  0.99294  0.34757  1.0000
  Fe  Fe62      1.0  0.49111  0.21933  0.12588  1.0000
  H   H337      1.0  0.94790  0.14332  0.38577  1.0000
  C   C326      1.0  0.61859  0.32370  0.16500  1.0000
  H   H338      1.0  0.60283  0.26282  0.12930  1.0000
  H   H339      1.0  0.64708  0.21643  0.04436  1.0000
  C   C327      1.0  0.95922  0.20797  0.40836  1.0000
  C   C328      1.0  0.94303  0.15957  0.39397  1.0000
  C   C329      1.0  0.50899  0.28664  0.00798  1.0000
  S   S123      1.0  0.74029  0.32521  0.11287  1.0000
  C   C330      1.0  0.63665  0.21148  0.02185  1.0000
  H   H340      1.0  0.49209  0.31563  0.00611  1.0000
  C   C331      1.0  0.73033  0.08010  0.48654  1.0000
  C   C332      1.0  0.60781  0.18967  0.01835  1.0000
  Fe  Fe63      1.0  0.49013  0.26848  0.15839  1.0000
  H   H341      1.0  0.98861  0.19201  0.39594  1.0000
  Fe  Fe64      1.0  0.71142  0.21195  0.82435  1.0000
  S   S124      1.0  0.69101  0.20235  0.87188  1.0000
  S   S125      1.0  0.72118  0.17833  0.80325  1.0000
  Fe  Fe65      1.0  0.71083  0.26792  0.82258  1.0000
  S   S126      1.0  0.69091  0.26295  0.86918  1.0000
  S   S127      1.0  0.72259  0.30595  0.79303  1.0000
  Fe  Fe66      1.0  0.72191  0.24754  0.88355  1.0000
  S   S128      1.0  0.74451  0.26608  0.92902  1.0000
  Fe  Fe67      1.0  0.66129  0.21836  0.85460  1.0000
  S   S129      1.0  0.61490  0.19877  0.87278  1.0000
  S   S130      1.0  0.74502  0.25636  0.83768  1.0000
  S   S131      1.0  0.67850  0.22407  0.80616  1.0000
  C   C333      1.0  0.65691  0.23435  0.94020  1.0000
  S   S132      1.0  0.52565  0.22262  0.79679  1.0000
  Fe  Fe68      1.0  0.85145  0.14470  0.63651  1.0000
  S   S133      1.0  0.81955  0.15515  0.61288  1.0000
  S   S134      1.0  0.89825  0.18138  0.63159  1.0000
  Fe  Fe69      1.0  0.80131  0.08602  0.65381  1.0000
  S   S135      1.0  0.76644  0.09337  0.63209  1.0000
  S   S136      1.0  0.79148  0.04431  0.67581  1.0000
  Fe  Fe70      1.0  0.79888  0.11147  0.59299  1.0000
  S   S137      1.0  0.78579  0.09466  0.54408  1.0000
  Fe  Fe71      1.0  0.79034  0.13664  0.65438  1.0000
  S   S138      1.0  0.77186  0.16474  0.67310  1.0000
  S   S139      1.0  0.83262  0.10206  0.61379  1.0000
  S   S140      1.0  0.82335  0.12828  0.67898  1.0000
  C   C334      1.0  0.79821  0.11471  0.51012  1.0000
  H   H342      1.0  0.71590  0.01475  0.49725  1.0000
  C   C335      1.0  0.57950  0.29484  0.82386  1.0000
  C   C336      1.0  0.87680  0.19580  0.70583  1.0000
  H   H343      1.0  0.79860  0.15189  0.52852  1.0000
  C   C337      1.0  0.93172  0.18763  0.64891  1.0000
  C   C338      1.0  0.93363  0.16781  0.66767  1.0000
  C   C339      1.0  0.96127  0.17296  0.67885  1.0000
  H   H344      1.0  0.89151  0.17515  0.73793  1.0000
  H   H345      1.0  0.83460  0.20913  0.66007  1.0000
  C   C340      1.0  0.95745  0.21294  0.64233  1.0000
  H   H346      1.0  0.91399  0.14826  0.67294  1.0000
  H   H347      1.0  0.96273  0.15730  0.69283  1.0000
  H   H348      1.0  0.66222  0.22000  0.92647  1.0000
  H   H349      1.0  0.95612  0.22848  0.62803  1.0000
  C   C341      1.0  0.73097  0.24701  0.96355  1.0000
  C   C342      1.0  0.71124  0.21804  0.96328  1.0000
  H   H350      1.0  0.74595  0.02780  0.62869  1.0000
  H   H351      1.0  0.70441  0.20668  0.94165  1.0000
  C   C343      1.0  0.97174  0.19699  0.57106  1.0000
  C   C344      1.0  0.73641  0.17564  0.76730  1.0000
  C   C345      1.0  0.74150  0.15268  0.76201  1.0000
  C   C346      1.0  0.75236  0.14895  0.73347  1.0000
  C   C347      1.0  0.75788  0.16797  0.70962  1.0000
  C   C348      1.0  0.75289  0.19098  0.71494  1.0000
  C   C349      1.0  0.74243  0.19493  0.74361  1.0000
  H   H352      1.0  0.73686  0.13755  0.78010  1.0000
  H   H353      1.0  0.75610  0.13117  0.72982  1.0000
  H   H354      1.0  0.75721  0.20593  0.69673  1.0000
  H   H355      1.0  0.73878  0.21277  0.74723  1.0000
  C   C350      1.0  0.59094  0.20692  0.85217  1.0000
  C   C351      1.0  0.59801  0.21784  0.82246  1.0000
  C   C352      1.0  0.57771  0.22232  0.80550  1.0000
  C   C353      1.0  0.55067  0.21679  0.81853  1.0000
  C   C354      1.0  0.54392  0.20651  0.84851  1.0000
  C   C355      1.0  0.56386  0.20123  0.86513  1.0000
  H   H356      1.0  0.61884  0.22230  0.81230  1.0000
  H   H357      1.0  0.58299  0.23016  0.78228  1.0000
  H   H358      1.0  0.52301  0.20198  0.85863  1.0000
  H   H359      1.0  0.55817  0.19264  0.88804  1.0000
  H   H360      1.0  0.73058  0.08603  0.51051  1.0000
  H   H361      1.0  0.84988  0.16346  0.77418  1.0000
  C   C356      1.0  0.87507  0.18145  0.73296  1.0000
  C   C357      1.0  0.83343  0.19771  0.71921  1.0000
  H   H362      1.0  0.65455  0.15519  0.72778  1.0000
  H   H363      1.0  0.62060  0.14090  0.84817  1.0000
  C   C358      1.0  0.74545  0.00892  0.63725  1.0000
  H   H364      1.0  0.52136  0.25567  0.94545  1.0000
  H   H365      1.0  0.62952  0.31547  0.76608  1.0000
  H   H366      1.0  0.57957  0.16538  0.77829  1.0000
  C   C359      1.0  0.80084  0.14156  0.50804  1.0000
  C   C360      1.0  0.61162  0.19811  0.96366  1.0000
  C   C361      1.0  0.94608  0.17198  0.57805  1.0000
  S   S141      1.0  0.50428  0.24924  0.86944  1.0000
  C   C362      1.0  0.98715  0.19785  0.67132  1.0000
  C   C363      1.0  0.97530  0.15712  0.60747  1.0000
  C   C364      1.0  0.61942  0.14636  0.82448  1.0000
  H   H367      1.0  0.81726  0.20427  0.71411  1.0000
  H   H368      1.0  0.70502  0.32004  0.85211  1.0000
  H   H369      1.0  0.58044  0.15026  0.83172  1.0000
  C   C365      1.0  0.76571  0.01115  0.65968  1.0000
  C   C366      1.0  0.94794  0.15194  0.59634  1.0000
  C   C367      1.0  0.61990  0.31614  0.78805  1.0000
  N   N30       1.0  0.85561  0.20294  0.69884  1.0000
  H   H370      1.0  0.89498  0.20082  0.69025  1.0000
  C   C368      1.0  0.70074  0.20354  0.99115  1.0000
  N   N31       1.0  0.63976  0.15650  0.77349  1.0000
  H   H371      1.0  0.96994  0.21282  0.55767  1.0000
  H   H372      1.0  0.68562  0.18110  0.99076  1.0000
  H   H373      1.0  0.67801  0.25336  0.94637  1.0000
  N   N32       1.0  0.63984  0.21958  0.96738  1.0000
  C   C369      1.0  0.64082  0.14887  0.80317  1.0000
  H   H374      1.0  0.57271  0.16596  0.98608  1.0000
  H   H375      1.0  0.81272  0.17853  0.76212  1.0000
  H   H376      1.0  0.55781  0.27797  0.82983  1.0000
  S   S142      1.0  0.50550  0.31871  0.86672  1.0000
  H   H377      1.0  0.75530  0.28372  0.99236  1.0000
  C   C370      1.0  0.73995  0.26134  0.99190  1.0000
  C   C371      1.0  0.66297  0.16008  0.75175  1.0000
  H   H378      1.0  0.50515  0.28615  0.91944  1.0000
  H   H379      1.0  0.92804  0.13302  0.60297  1.0000
  H   H380      1.0  0.64403  0.24111  0.92550  1.0000
  H   H381      1.0  0.67208  0.14582  0.75725  1.0000
  C   C372      1.0  0.61828  0.16265  0.76453  1.0000
  C   C373      1.0  0.85706  0.21722  0.66994  1.0000
  N   N33       1.0  0.49786  0.30272  0.96116  1.0000
  C   C374      1.0  0.83093  0.18335  0.74653  1.0000
  C   C375      1.0  0.59645  0.16019  0.78522  1.0000
  C   C376      1.0  0.59216  0.29398  0.79582  1.0000
  H   H382      1.0  0.68127  0.18215  0.75301  1.0000
  C   C377      1.0  0.50645  0.28653  0.94432  1.0000
  C   C378      1.0  0.85177  0.17496  0.75327  1.0000
  C   C379      1.0  0.59510  0.18296  0.98909  1.0000
  C   C380      1.0  0.59694  0.15175  0.81527  1.0000
  H   H383      1.0  0.86709  0.24028  0.67398  1.0000
  H   H384      1.0  0.87019  0.21318  0.65230  1.0000
  H   H385      1.0  0.60187  0.19253  0.94085  1.0000
  H   H386      1.0  0.65852  0.14508  0.81063  1.0000
  H   H387      1.0  0.61810  0.16977  0.74137  1.0000
  H   H388      1.0  0.92469  0.16867  0.57057  1.0000
  H   H389      1.0  0.58027  0.27635  0.78013  1.0000
  C   C381      1.0  0.51608  0.26961  0.95891  1.0000
  H   H390      1.0  0.72448  0.04202  0.52564  1.0000
  H   H391      1.0  0.77006  0.30974  0.87886  1.0000
  H   H392      1.0  0.52692  0.31574  0.80563  1.0000
  C   C382      1.0  0.51726  0.26965  0.99096  1.0000
  C   C383      1.0  0.73108  0.03723  0.50292  1.0000
  C   C384      1.0  0.98505  0.21803  0.65340  1.0000
  H   H393      1.0  0.77835  0.31831  0.82407  1.0000
  C   C385      1.0  0.49928  0.30316  0.99261  1.0000
  H   H394      1.0  0.97685  0.14232  0.62293  1.0000
  C   C386      1.0  0.59451  0.31783  0.84369  1.0000
  H   H395      1.0  0.58430  0.31919  0.86500  1.0000
  H   H396      1.0  0.75651  0.32383  0.92781  1.0000
  H   H397      1.0  0.75385  0.04056  0.50554  1.0000
  Fe  Fe72      1.0  0.49071  0.22631  0.82446  1.0000
  C   C387      1.0  0.65236  0.22645  0.99600  1.0000
  Fe  Fe73      1.0  0.71323  0.47966  0.10407  1.0000
  S   S143      1.0  0.73609  0.48893  0.15039  1.0000
  S   S144      1.0  0.73825  0.49152  0.05874  1.0000
  Fe  Fe74      1.0  0.65271  0.44544  0.13212  1.0000
  S   S145      1.0  0.67017  0.45142  0.18011  1.0000
  S   S146      1.0  0.60495  0.42084  0.11820  1.0000
  Fe  Fe75      1.0  0.69971  0.49697  0.16762  1.0000
  S   S147      1.0  0.69806  0.52834  0.20259  1.0000
  Fe  Fe76      1.0  0.70496  0.44304  0.15951  1.0000
  S   S148      1.0  0.71905  0.41515  0.18459  1.0000
  S   S149      1.0  0.67937  0.49132  0.12034  1.0000
  S   S150      1.0  0.68502  0.43344  0.11244  1.0000
  C   C388      1.0  0.73545  0.35087  0.16568  1.0000
  C   C389      1.0  0.76296  0.44829  0.09920  1.0000
  S   S151      1.0  0.79451  0.63856  0.27485  1.0000
  C   C390      1.0  0.77614  0.44033  0.12216  1.0000
  C   C391      1.0  0.61975  0.46868  0.21353  1.0000
  C   C392      1.0  0.60793  0.44674  0.23479  1.0000
  C   C393      1.0  0.58327  0.38812  0.13600  1.0000
  C   C394      1.0  0.55685  0.36825  0.12212  1.0000
  H   H398      1.0  0.69228  0.53522  0.99977  1.0000
  H   H399      1.0  0.74433  0.54568  0.00289  1.0000
  C   C395      1.0  0.57171  0.35753  0.18013  1.0000
  C   C396      1.0  0.59101  0.38240  0.16475  1.0000
  H   H400      1.0  0.55071  0.37263  0.09992  1.0000
  C   C397      1.0  0.76846  0.65145  0.49406  1.0000
  H   H401      1.0  0.57727  0.35362  0.20285  1.0000
  H   H402      1.0  0.61125  0.39766  0.17570  1.0000
  C   C398      1.0  0.72833  0.34533  0.13449  1.0000
  H   H403      1.0  0.60677  0.50114  0.16448  1.0000
  C   C399      1.0  0.73126  0.37153  0.18117  1.0000
  C   C400      1.0  0.72009  0.38682  0.16554  1.0000
  C   C401      1.0  0.71150  0.38017  0.13481  1.0000
  C   C402      1.0  0.71569  0.35953  0.11932  1.0000
  S   S152      1.0  0.76545  0.65258  0.43080  1.0000
  H   H404      1.0  0.73781  0.37648  0.20502  1.0000
  H   H405      1.0  0.70262  0.39159  0.12262  1.0000
  H   H406      1.0  0.71021  0.35537  0.09516  1.0000
  C   C403      1.0  0.72546  0.55841  0.22307  1.0000
  C   C404      1.0  0.71646  0.57110  0.24613  1.0000
  C   C405      1.0  0.73714  0.59525  0.26256  1.0000
  C   C406      1.0  0.76723  0.60733  0.25592  1.0000
  C   C407      1.0  0.77623  0.59463  0.23288  1.0000
  C   C408      1.0  0.75558  0.57029  0.21669  1.0000
  H   H407      1.0  0.69327  0.56224  0.25129  1.0000
  H   H408      1.0  0.72975  0.60472  0.28006  1.0000
  H   H409      1.0  0.79938  0.60373  0.22741  1.0000
  H   H410      1.0  0.76295  0.56094  0.19903  1.0000
  C   C409      1.0  0.68806  0.47446  0.02360  1.0000
  C   C410      1.0  0.71784  0.48174  0.02401  1.0000
  H   H411      1.0  0.75601  0.40025  0.04456  1.0000
  H   H412      1.0  0.67684  0.47363  0.04492  1.0000
  C   C411      1.0  0.79692  0.41131  0.14112  1.0000
  C   C412      1.0  0.77559  0.40471  0.08944  1.0000
  N   N34       1.0  0.78215  0.41868  0.11714  1.0000
  C   C413      1.0  0.76195  0.41188  0.06615  1.0000
  H   H413      1.0  0.61741  0.48039  0.13986  1.0000
  C   C414      1.0  0.58038  0.44215  0.17895  1.0000
  H   H414      1.0  0.57264  0.40476  0.24375  1.0000
  H   H415      1.0  0.77992  0.38722  0.08564  1.0000
  H   H416      1.0  0.64010  0.48767  0.21915  1.0000
  C   C415      1.0  0.75564  0.43386  0.07112  1.0000
  H   H417      1.0  0.75822  0.46543  0.10316  1.0000
  H   H418      1.0  0.78096  0.45122  0.14423  1.0000
  H   H419      1.0  0.56984  0.43986  0.15680  1.0000
  H   H420      1.0  0.74496  0.43971  0.05341  1.0000
  C   C416      1.0  0.58183  0.42217  0.22776  1.0000
  H   H421      1.0  0.54780  0.40069  0.19375  1.0000
  H   H422      1.0  0.78933  0.41379  0.16435  1.0000
  H   H423      1.0  0.64251  0.50361  0.16830  1.0000
  H   H424      1.0  0.82111  0.42507  0.13952  1.0000
  C   C417      1.0  0.61881  0.48895  0.16355  1.0000
  C   C418      1.0  0.56778  0.41993  0.19979  1.0000
  N   N35       1.0  0.60624  0.46595  0.18578  1.0000
  H   H425      1.0  0.79172  0.38890  0.13890  1.0000
  H   H426      1.0  0.65830  0.35002  0.19083  1.0000
  H   H427      1.0  0.61918  0.44876  0.25640  1.0000
  C   C419      1.0  0.53820  0.34276  0.13689  1.0000
  H   H428      1.0  0.82513  0.65242  0.43717  1.0000
  C   C420      1.0  0.87172  0.65809  0.31074  1.0000
  H   H429      1.0  0.74993  0.63038  0.49208  1.0000
  H   H430      1.0  0.74555  0.34023  0.17745  1.0000
  H   H431      1.0  0.84803  0.64911  0.30479  1.0000
  H   H432      1.0  0.87847  0.64210  0.30474  1.0000
  H   H433      1.0  0.51781  0.32755  0.12607  1.0000
  C   C421      1.0  0.64609  0.33068  0.17754  1.0000
  H   H434      1.0  0.83334  0.65012  0.49002  1.0000
  C   C422      1.0  0.54540  0.33756  0.16616  1.0000
  H   H435      1.0  0.60950  0.33767  0.16901  1.0000
  H   H436      1.0  0.75508  0.48820  0.99623  1.0000
  Fe  Fe77      1.0  0.71380  0.49416  0.82557  1.0000
  S   S153      1.0  0.66715  0.47390  0.84355  1.0000
  S   S154      1.0  0.73751  0.54080  0.81093  1.0000
  Fe  Fe78      1.0  0.72078  0.44365  0.84691  1.0000
  S   S155      1.0  0.67542  0.42060  0.86664  1.0000
  S   S156      1.0  0.74927  0.42298  0.85148  1.0000
  Fe  Fe79      1.0  0.66206  0.43343  0.82346  1.0000
  S   S157      1.0  0.62398  0.39961  0.79645  1.0000
  Fe  Fe80      1.0  0.68464  0.46273  0.88546  1.0000
  S   S158      1.0  0.66810  0.46685  0.93263  1.0000
  S   S159      1.0  0.70735  0.45419  0.80204  1.0000
  S   S160      1.0  0.73142  0.48524  0.86918  1.0000
  H   H437      1.0  0.86010  0.65632  0.73045  1.0000
  H   H438      1.0  0.78450  0.40635  0.89110  1.0000
  S   S161      1.0  0.77025  0.60464  0.68157  1.0000
  H   H439      1.0  0.72760  0.52011  0.74664  1.0000
  H   H440      1.0  0.80238  0.54428  0.70344  1.0000
  H   H441      1.0  0.76352  0.37242  0.93416  1.0000
  C   C423      1.0  0.73587  0.38968  0.83358  1.0000
  C   C424      1.0  0.72086  0.36493  0.85078  1.0000
  H   H442      1.0  0.67440  0.37684  0.81766  1.0000
  C   C425      1.0  0.71579  0.33883  0.83839  1.0000
  C   C426      1.0  0.73920  0.36193  0.79104  1.0000
  C   C427      1.0  0.74462  0.38798  0.80353  1.0000
  H   H443      1.0  0.71440  0.36614  0.87420  1.0000
  H   H444      1.0  0.55637  0.37052  0.88486  1.0000
  H   H445      1.0  0.81204  0.57675  0.79561  1.0000
  H   H446      1.0  0.75657  0.40700  0.79025  1.0000
  C   C428      1.0  0.59110  0.37750  0.81624  1.0000
  C   C429      1.0  0.56948  0.35301  0.80160  1.0000
  C   C430      1.0  0.69283  0.53396  0.89384  1.0000
  C   C431      1.0  0.72548  0.33738  0.80864  1.0000
  C   C432      1.0  0.56006  0.36542  0.86171  1.0000
  C   C433      1.0  0.58646  0.38351  0.84648  1.0000
  H   H447      1.0  0.57297  0.34821  0.77825  1.0000
  H   H448      1.0  0.74666  0.36099  0.76799  1.0000
  C   C434      1.0  0.70499  0.53834  0.97890  1.0000
  H   H449      1.0  0.60297  0.40236  0.85794  1.0000
  C   C435      1.0  0.68719  0.47044  0.96748  1.0000
  C   C436      1.0  0.77327  0.33098  0.88136  1.0000
  C   C437      1.0  0.71672  0.47673  0.96793  1.0000
  H   H450      1.0  0.77244  0.55061  0.95474  1.0000
  H   H451      1.0  0.72796  0.47789  0.94654  1.0000
  C   C438      1.0  0.74272  0.55761  0.77449  1.0000
  C   C439      1.0  0.75497  0.58718  0.77366  1.0000
  C   C440      1.0  0.76219  0.60182  0.74548  1.0000
  C   C441      1.0  0.75755  0.58710  0.71759  1.0000
  C   C442      1.0  0.74455  0.55748  0.71838  1.0000
  C   C443      1.0  0.73707  0.54281  0.74655  1.0000
  H   H452      1.0  0.75930  0.59891  0.79504  1.0000
  H   H453      1.0  0.77191  0.62453  0.74540  1.0000
  H   H454      1.0  0.74068  0.54578  0.69702  1.0000
  H   H455      1.0  0.83345  0.62511  0.77494  1.0000
  C   C444      1.0  0.79265  0.34119  0.82873  1.0000
  C   C445      1.0  0.73423  0.54417  0.98062  1.0000
  C   C446      1.0  0.82221  0.58952  0.70826  1.0000
  C   C447      1.0  0.82782  0.60757  0.75923  1.0000
  C   C448      1.0  0.53851  0.34086  0.84712  1.0000
  C   C449      1.0  0.81035  0.56201  0.71934  1.0000
  N   N36       1.0  0.70727  0.53741  0.92368  1.0000
  H   H456      1.0  0.66871  0.52941  0.94889  1.0000
  N   N37       1.0  0.83100  0.61188  0.72818  1.0000
  H   H457      1.0  0.82336  0.64551  0.71634  1.0000
  H   H458      1.0  0.77185  0.64945  0.54355  1.0000
  H   H459      1.0  0.67797  0.35364  0.79039  1.0000
  N   N38       1.0  0.63456  0.33855  0.80768  1.0000
  Fe  Fe81      1.0  0.78843  0.65087  0.66714  1.0000
  C   C450      1.0  0.76977  0.36614  0.91286  1.0000
  H   H460      1.0  0.82302  0.59272  0.68360  1.0000
  H   H461      1.0  0.68946  0.55230  0.88930  1.0000
  C   C451      1.0  0.74993  0.54675  0.95359  1.0000
  C   C452      1.0  0.78902  0.37661  0.86122  1.0000
  C   C453      1.0  0.81588  0.58032  0.77109  1.0000
  C   C454      1.0  0.78174  0.38524  0.88882  1.0000
  H   H462      1.0  0.79754  0.39140  0.84238  1.0000
  H   H463      1.0  0.50618  0.33751  0.93307  1.0000
  N   N39       1.0  0.78436  0.34965  0.85764  1.0000
  H   H464      1.0  0.79660  0.53613  0.75985  1.0000
  H   H465      1.0  0.84977  0.64224  0.69225  1.0000
  C   C455      1.0  0.84166  0.64040  0.71627  1.0000
  H   H466      1.0  0.70599  0.53207  0.87458  1.0000
  C   C456      1.0  0.80711  0.55744  0.75097  1.0000
  C   C457      1.0  0.76564  0.33887  0.90923  1.0000
  C   C458      1.0  0.73604  0.54334  0.92512  1.0000
  C   C459      1.0  0.69178  0.53503  0.95006  1.0000
  H   H467      1.0  0.74822  0.54493  0.90421  1.0000
  C   C460      1.0  0.62214  0.33972  0.83511  1.0000
  H   H468      1.0  0.63311  0.35804  0.85008  1.0000
  H   H469      1.0  0.67111  0.51437  0.89366  1.0000
  C   C461      1.0  0.66317  0.36182  0.79839  1.0000
  H   H470      1.0  0.81595  0.34592  0.82976  1.0000
  H   H471      1.0  0.78956  0.35223  0.80885  1.0000
  C   C462      1.0  0.54343  0.33454  0.81712  1.0000
  H   H472      1.0  0.66003  0.37381  0.77956  1.0000
  H   H473      1.0  0.65006  0.46412  0.99532  1.0000
  C   C463      1.0  0.73204  0.48260  0.99610  1.0000
  C   C464      1.0  0.67291  0.46905  0.99544  1.0000
  S   S162      1.0  0.83064  0.71180  0.31247  1.0000
  H   H474      1.0  0.76226  0.73827  0.39760  1.0000
  S   S163      1.0  0.82121  0.71911  0.38581  1.0000
  H   H475      1.0  0.72690  0.80027  0.42678  1.0000
  Fe  Fe82      1.0  0.80004  0.72095  0.34156  1.0000
  S   S164      1.0  0.79604  0.76087  0.33967  1.0000
  Fe  Fe83      1.0  0.84845  0.70601  0.35707  1.0000
  S   S165      1.0  0.89454  0.71610  0.37156  1.0000
  Fe  Fe84      1.0  0.78732  0.67364  0.38585  1.0000
  Fe  Fe85      1.0  0.61664  0.80940  0.32883  1.0000
  S   S166      1.0  0.65253  0.82372  0.29361  1.0000
  S   S167      1.0  0.56765  0.78709  0.31536  1.0000
  Fe  Fe86      1.0  0.66097  0.82597  0.38274  1.0000
  S   S168      1.0  0.69941  0.84092  0.35014  1.0000
  S   S169      1.0  0.67982  0.83232  0.43126  1.0000
  Fe  Fe87      1.0  0.67774  0.86171  0.32465  1.0000
  S   S170      1.0  0.70609  0.90495  0.30315  1.0000
  Fe  Fe88      1.0  0.67105  0.80202  0.32276  1.0000
  S   S171      1.0  0.68355  0.77077  0.30199  1.0000
  S   S172      1.0  0.64060  0.84903  0.35848  1.0000
  S   S173      1.0  0.63389  0.78546  0.35663  1.0000
  N   N40       1.0  0.72223  0.74045  0.39615  1.0000
  C   C465      1.0  0.52644  0.76218  0.21818  1.0000
  C   C466      1.0  0.55601  0.78319  0.22197  1.0000
  C   C467      1.0  0.56938  0.79002  0.25131  1.0000
  C   C468      1.0  0.55329  0.77604  0.27743  1.0000
  C   C469      1.0  0.52394  0.75447  0.27356  1.0000
  C   C470      1.0  0.51060  0.74749  0.24415  1.0000
  H   H476      1.0  0.56855  0.79468  0.20212  1.0000
  H   H477      1.0  0.59189  0.80673  0.25381  1.0000
  H   H478      1.0  0.51128  0.74344  0.29354  1.0000
  C   C471      1.0  0.50165  0.77336  0.03477  1.0000
  C   C472      1.0  0.71797  0.93852  0.32094  1.0000
  C   C473      1.0  0.73549  0.96310  0.30406  1.0000
  C   C474      1.0  0.51001  0.72683  0.02831  1.0000
  C   C475      1.0  0.51009  0.73825  0.05737  1.0000
  C   C476      1.0  0.72053  0.96834  0.36447  1.0000
  C   C477      1.0  0.71056  0.94130  0.35129  1.0000
  H   H479      1.0  0.74133  0.96124  0.28057  1.0000
  C   C478      1.0  0.73324  0.76509  0.41273  1.0000
  H   H480      1.0  0.65727  0.87237  0.44443  1.0000
  H   H481      1.0  0.69709  0.92263  0.36454  1.0000
  C   C479      1.0  0.76391  0.76249  0.33018  1.0000
  C   C480      1.0  0.76179  0.78642  0.33910  1.0000
  C   C481      1.0  0.73675  0.78877  0.33164  1.0000
  C   C482      1.0  0.71401  0.76750  0.31443  1.0000
  C   C483      1.0  0.71613  0.74357  0.30551  1.0000
  C   C484      1.0  0.74084  0.74089  0.31366  1.0000
  H   H482      1.0  0.77961  0.80319  0.35193  1.0000
  H   H483      1.0  0.73531  0.80727  0.33862  1.0000
  H   H484      1.0  0.69864  0.72709  0.29206  1.0000
  H   H485      1.0  0.74236  0.72245  0.30653  1.0000
  C   C485      1.0  0.69152  0.77061  0.39816  1.0000
  C   C486      1.0  0.95438  0.74947  0.36729  1.0000
  C   C487      1.0  0.92682  0.74526  0.35733  1.0000
  C   C488      1.0  0.92566  0.76319  0.33518  1.0000
  C   C489      1.0  0.95193  0.78461  0.32242  1.0000
  H   H486      1.0  0.95551  0.73575  0.38447  1.0000
  H   H487      1.0  0.90457  0.76019  0.32736  1.0000
  H   H488      1.0  0.95091  0.79808  0.30485  1.0000
  H   H489      1.0  0.73438  0.71228  0.37379  1.0000
  C   C490      1.0  0.66321  0.82168  0.46784  1.0000
  C   C491      1.0  0.63293  0.80405  0.47168  1.0000
  H   H490      1.0  0.50104  0.79453  0.31274  1.0000
  H   H491      1.0  0.61877  0.79594  0.45172  1.0000
  Fe  Fe89      1.0  0.79582  0.66587  0.31640  1.0000
  H   H492      1.0  0.67616  0.91021  0.44927  1.0000
  H   H493      1.0  0.93974  0.75436  0.25273  1.0000
  H   H494      1.0  0.88632  0.72634  0.23971  1.0000
  H   H495      1.0  0.81343  0.70749  0.45018  1.0000
  H   H496      1.0  0.68729  0.71096  0.36758  1.0000
  H   H497      1.0  0.53727  0.82578  0.27437  1.0000
  C   C492      1.0  0.67488  0.89036  0.45752  1.0000
  C   C493      1.0  0.51477  0.81136  0.26738  1.0000
  S   S174      1.0  0.50993  0.75694  0.18102  1.0000
  C   C494      1.0  0.88596  0.71107  0.46083  1.0000
  C   C495      1.0  0.87838  0.69354  0.27214  1.0000
  H   H498      1.0  0.69580  0.89032  0.45193  1.0000
  H   H499      1.0  0.73064  0.70907  0.41514  1.0000
  H   H500      1.0  0.52074  0.79617  0.09131  1.0000
  H   H501      1.0  0.66005  0.73786  0.36848  1.0000
  C   C496      1.0  0.68130  0.83195  0.49399  1.0000
  C   C497      1.0  0.97951  0.78849  0.33198  1.0000
  C   C498      1.0  0.68033  0.74537  0.38151  1.0000
  H   H502      1.0  0.70475  0.84562  0.49123  1.0000
  C   C499      1.0  0.84725  0.67085  0.43305  1.0000
  C   C500      1.0  0.90025  0.72496  0.48798  1.0000
  H   H503      1.0  0.71460  0.97022  0.38789  1.0000
  H   H504      1.0  0.96093  0.73697  0.29246  1.0000
  N   N41       1.0  0.74378  0.82194  0.26107  1.0000
  C   C501      1.0  0.72350  0.83063  0.25561  1.0000
  C   C502      1.0  0.76781  0.83784  0.27924  1.0000
  C   C503      1.0  0.72701  0.85583  0.26849  1.0000
  C   C504      1.0  0.77171  0.86291  0.29291  1.0000
  C   C505      1.0  0.75119  0.87196  0.28736  1.0000
  C   C506      1.0  0.74056  0.79629  0.24595  1.0000
  H   H505      1.0  0.70425  0.81787  0.24154  1.0000
  H   H506      1.0  0.78385  0.83091  0.28366  1.0000
  H   H507      1.0  0.71096  0.86277  0.26414  1.0000
  H   H508      1.0  0.79047  0.87524  0.30774  1.0000
  H   H509      1.0  0.75380  0.89135  0.29782  1.0000
  H   H510      1.0  0.71696  0.77983  0.24483  1.0000
  H   H511      1.0  0.74965  0.80112  0.22229  1.0000
  H   H512      1.0  0.75208  0.78697  0.25901  1.0000
  C   C507      1.0  0.80419  0.69473  0.47030  1.0000
  C   C508      1.0  0.93785  0.72456  0.28613  1.0000
  H   H513      1.0  0.67977  0.78259  0.39868  1.0000
  C   C509      1.0  0.71810  0.78057  0.41392  1.0000
  C   C510      1.0  0.50575  0.77304  0.09076  1.0000
  H   H514      1.0  0.84367  0.68587  0.41904  1.0000
  N   N42       1.0  0.89021  0.68438  0.29441  1.0000
  C   C511      1.0  0.69596  0.73036  0.38093  1.0000
  N   N43       1.0  0.86218  0.68456  0.46177  1.0000
  C   C512      1.0  0.91953  0.69950  0.30146  1.0000
  S   S175      1.0  0.76393  0.67566  0.34289  1.0000
  C   C513      1.0  0.73804  0.72418  0.39579  1.0000
  C   C514      1.0  0.78033  0.66749  0.46736  1.0000
  H   H515      1.0  0.89366  0.72177  0.43900  1.0000
  H   H516      1.0  0.75403  0.77305  0.42485  1.0000
  H   H517      1.0  0.91872  0.74621  0.48720  1.0000
  C   C515      1.0  0.92589  0.73438  0.26388  1.0000
  H   H518      1.0  0.62447  0.85560  0.48624  1.0000
  H   H519      1.0  0.92872  0.69267  0.31971  1.0000
  N   N44       1.0  0.50614  0.76136  0.06026  1.0000
  H   H520      1.0  0.51292  0.72826  0.07759  1.0000
  C   C516      1.0  0.89597  0.71879  0.25675  1.0000
  C   C517      1.0  0.98062  0.77107  0.35481  1.0000
  H   H521      1.0  0.51246  0.70813  0.02610  1.0000
  H   H522      1.0  0.86094  0.66399  0.41960  1.0000
  N   N45       1.0  0.66943  0.88754  0.49076  1.0000
  C   C518      1.0  0.85258  0.67088  0.48916  1.0000
  H   H523      1.0  0.52274  0.82169  0.21933  1.0000
  C   C519      1.0  0.74548  0.99015  0.31724  1.0000
  C   C520      1.0  0.50661  0.80909  0.23652  1.0000
  H   H524      1.0  0.87380  0.66204  0.33599  1.0000
  H   H525      1.0  0.51299  0.76368  0.10922  1.0000
  H   H526      1.0  0.49705  0.79078  0.03718  1.0000
  C   C521      1.0  0.50598  0.73926  0.00216  1.0000
  C   C522      1.0  0.50182  0.76269  0.00535  1.0000
  H   H527      1.0  0.85511  0.68156  0.26646  1.0000
  C   C523      1.0  0.49436  0.79374  0.28896  1.0000
  S   S176      1.0  0.81565  0.65995  0.35967  1.0000
  Fe  Fe90      1.0  0.80933  0.69022  0.61065  1.0000
  S   S177      1.0  0.81999  0.72859  0.63988  1.0000
  H   H528      1.0  0.95187  0.73752  0.61914  1.0000
  S   S178      1.0  0.79825  0.68691  0.69947  1.0000
  Fe  Fe91      1.0  0.77723  0.70127  0.66361  1.0000
  S   S179      1.0  0.74194  0.71288  0.67715  1.0000
  Fe  Fe92      1.0  0.84036  0.71107  0.67240  1.0000
  S   S180      1.0  0.88356  0.74013  0.69690  1.0000
  C   C524      1.0  0.78075  0.66225  0.52329  1.0000
  Fe  Fe93      1.0  0.68369  0.87993  0.63758  1.0000
  S   S181      1.0  0.63531  0.84857  0.63593  1.0000
  S   S182      1.0  0.69388  0.92438  0.62441  1.0000
  Fe  Fe94      1.0  0.69928  0.83289  0.65002  1.0000
  S   S183      1.0  0.65189  0.79857  0.64993  1.0000
  S   S184      1.0  0.73985  0.82694  0.64993  1.0000
  Fe  Fe95      1.0  0.64817  0.82110  0.60819  1.0000
  S   S185      1.0  0.62313  0.79849  0.56484  1.0000
  Fe  Fe96      1.0  0.64293  0.82911  0.67788  1.0000
  S   S186      1.0  0.61585  0.82531  0.72133  1.0000
  S   S187      1.0  0.69569  0.85357  0.60681  1.0000
  S   S188      1.0  0.69115  0.86222  0.68098  1.0000
  H   H529      1.0  0.70471  0.91531  0.55820  1.0000
  C   C525      1.0  0.58141  0.79918  0.73665  1.0000
  C   C526      1.0  0.56977  0.80603  0.76270  1.0000
  C   C527      1.0  0.54298  0.78599  0.77620  1.0000
  C   C528      1.0  0.52754  0.75862  0.76403  1.0000
  C   C529      1.0  0.53913  0.75181  0.73790  1.0000
  C   C530      1.0  0.56575  0.77195  0.72418  1.0000
  H   H530      1.0  0.58164  0.82694  0.77271  1.0000
  H   H531      1.0  0.60496  0.89819  0.69707  1.0000
  H   H532      1.0  0.57434  0.76624  0.70426  1.0000
  C   C531      1.0  0.63909  0.80730  0.52769  1.0000
  C   C532      1.0  0.66933  0.82498  0.52372  1.0000
  C   C533      1.0  0.63663  0.86671  0.53350  1.0000
  H   H533      1.0  0.68357  0.83335  0.54349  1.0000
  H   H534      1.0  0.71226  0.70987  0.61251  1.0000
  H   H535      1.0  0.65541  0.88177  0.57840  1.0000
  H   H536      1.0  0.64941  0.93927  0.68075  1.0000
  S   S189      1.0  0.76490  0.66377  0.63240  1.0000
  C   C534      1.0  0.91871  0.75077  0.68010  1.0000
  C   C535      1.0  0.94429  0.77134  0.69502  1.0000
  C   C536      1.0  0.97255  0.77990  0.68254  1.0000
  C   C537      1.0  0.94988  0.74713  0.64031  1.0000
  C   C538      1.0  0.92168  0.73885  0.65255  1.0000
  H   H537      1.0  0.94228  0.78069  0.71636  1.0000
  H   H538      1.0  0.90227  0.72304  0.64077  1.0000
  C   C539      1.0  0.74145  0.74440  0.66825  1.0000
  C   C540      1.0  0.76468  0.76651  0.65275  1.0000
  C   C541      1.0  0.76391  0.79173  0.64745  1.0000
  C   C542      1.0  0.73960  0.79475  0.65680  1.0000
  C   C543      1.0  0.71606  0.77236  0.67159  1.0000
  C   C544      1.0  0.71718  0.74745  0.67760  1.0000
  H   H539      1.0  0.78347  0.76440  0.64542  1.0000
  H   H540      1.0  0.78219  0.80897  0.63591  1.0000
  H   H541      1.0  0.69728  0.77447  0.67900  1.0000
  H   H542      1.0  0.69915  0.73047  0.68973  1.0000
  C   C545      1.0  0.72283  0.95739  0.63737  1.0000
  C   C546      1.0  0.74356  0.95957  0.65922  1.0000
  H   H543      1.0  0.68060  0.69909  0.63637  1.0000
  H   H544      1.0  0.67637  0.68698  0.59674  1.0000
  H   H545      1.0  0.63920  0.70792  0.60959  1.0000
  H   H546      1.0  0.60651  0.87499  0.72513  1.0000
  H   H547      1.0  0.74296  0.94068  0.66786  1.0000
  H   H548      1.0  0.83533  0.72637  0.50124  1.0000
  H   H549      1.0  0.52751  0.73074  0.72827  1.0000
  C   C547      1.0  0.69361  0.92090  0.73836  1.0000
  C   C548      1.0  0.81648  0.70549  0.49940  1.0000
  C   C549      1.0  0.70996  0.75406  0.59451  1.0000
  S   S190      1.0  0.82420  0.70270  0.56117  1.0000
  C   C550      1.0  0.65837  0.72733  0.60272  1.0000
  N   N46       1.0  0.64842  0.90854  0.71172  1.0000
  N   N47       1.0  0.68576  0.72948  0.60299  1.0000
  H   H550      1.0  0.72651  0.79727  0.58047  1.0000
  H   H551      1.0  0.61722  0.87330  0.68617  1.0000
  C   C551      1.0  0.67931  0.77535  0.58543  1.0000
  C   C552      1.0  0.70715  0.77744  0.58594  1.0000
  C   C553      1.0  0.65471  0.75016  0.59375  1.0000
  C   C554      1.0  0.66140  0.93421  0.69762  1.0000
  H   H552      1.0  0.73174  0.75597  0.59501  1.0000
  C   C555      1.0  0.66426  0.90156  0.73147  1.0000
  N   N48       1.0  0.84306  0.79015  0.70237  1.0000
  C   C556      1.0  0.83142  0.80800  0.70089  1.0000
  C   C557      1.0  0.82731  0.76413  0.71530  1.0000
  C   C558      1.0  0.80343  0.80003  0.71293  1.0000
  C   C559      1.0  0.79912  0.75534  0.72716  1.0000
  C   C560      1.0  0.78720  0.77347  0.72604  1.0000
  C   C561      1.0  0.87220  0.79832  0.68937  1.0000
  H   H553      1.0  0.84354  0.82841  0.69008  1.0000
  H   H554      1.0  0.83640  0.74987  0.71612  1.0000
  H   H555      1.0  0.79389  0.81390  0.71110  1.0000
  H   H556      1.0  0.78619  0.73427  0.73633  1.0000
  H   H557      1.0  0.76497  0.76652  0.73429  1.0000
  H   H558      1.0  0.88380  0.82061  0.68183  1.0000
  H   H559      1.0  0.88631  0.79564  0.70673  1.0000
  H   H560      1.0  0.87001  0.78462  0.66921  1.0000
  C   C562      1.0  0.68887  0.70518  0.61250  1.0000
  C   C563      1.0  0.64207  0.86912  0.50182  1.0000
  H   H561      1.0  0.61524  0.85134  0.54231  1.0000
  C   C564      1.0  0.65927  0.88348  0.55380  1.0000
  H   H562      1.0  0.53451  0.79160  0.79631  1.0000
  H   H563      1.0  0.65428  0.88086  0.74186  1.0000
  H   H564      1.0  0.70616  0.91516  0.75377  1.0000
  H   H565      1.0  0.72953  0.96266  0.72973  1.0000
  C   C565      1.0  0.76471  0.98633  0.67051  1.0000
  H   H566      1.0  0.67679  0.79331  0.57892  1.0000
  H   H567      1.0  0.63302  0.74858  0.59354  1.0000
  S   S191      1.0  0.83216  0.67417  0.64230  1.0000
  C   C566      1.0  0.80507  0.68926  0.52600  1.0000
  H   H568      1.0  0.59755  0.78299  0.50435  1.0000
  C   C567      1.0  0.69050  0.95424  0.70446  1.0000
  C   C568      1.0  0.97548  0.76770  0.65513  1.0000
  C   C569      1.0  0.70668  0.94749  0.72493  1.0000
  C   C570      1.0  0.68702  0.90230  0.54237  1.0000
  H   H569      1.0  0.90042  0.72220  0.53747  1.0000
  H   H570      1.0  0.85794  0.67377  0.53854  1.0000
  C   C571      1.0  0.89022  0.71143  0.51610  1.0000
  C   C572      1.0  0.72407  0.98221  0.62632  1.0000
  C   C573      1.0  0.61779  0.88786  0.70460  1.0000
  C   C574      1.0  0.69175  0.90409  0.51056  1.0000
  C   C575      1.0  0.86646  0.68411  0.51671  1.0000
  H   H571      1.0  0.50492  0.73012  0.97950  1.0000
  H   H572      1.0  0.70082  0.97457  0.69317  1.0000
  C   C576      1.0  0.62098  0.79673  0.50153  1.0000
  H   H573      1.0  0.70819  0.98081  0.60941  1.0000
  H   H574      1.0  0.49750  0.77177  0.98522  1.0000
  H   H575      1.0  0.71344  0.91865  0.50182  1.0000
  H   H576      1.0  0.78038  0.98784  0.68774  1.0000
  S   S192      1.0  0.49426  0.73189  0.78081  1.0000
