data_image0
_chemical_formula_structural       SFeSHSCSFeSH2FeCNH2SHSH2CHC6H3C2H3NH3S2HC3H2NC3HC4HCHC2H2CH3CHCH2CH3FeC3H2FeHSCH2FeSH4CHFeS2FeSFeH3C2SH2C3HC2HC2H2CHNSC8H4FeSC4HCSHFeH2C5SH4CHCNHCFeH6CSH3S2NH2SFeS2C3HCSCHFeHCFeH4C3H4C6S2HC7SH2C4FeH2NHFe2HSHCSH2SC3SHCSNC7H2CHCSHFeHCHCH2C2HCHFeNH2CH2SHC4H3SCFeSHSCSHCSCFeSHSNHCHC2HCH2C6H5FeHSNC2H2CH2CFeHCFeHCH3CHSH2CHCHS2FeSCHCHCSCHSHCH2NSHC2HS2CHC2HNH5C6SC4H3C4FeHS3FeHC2HCFeHC3H2CFeHC2H2CH2CHCNH3CSH2CSCSCFeSFeSCH2SCHCSHSCHCSHCHCFeCSHFeNFeHSHSHCSCHCH2C4FeSHCHCHNC6SC9H2C6H4SH2CH2NC2HCH3C2SHFeCHCFeHCHCSH4CNHC2FeSHCSHNCH3FeSH3CHSNFeCFeSHFeS2H3FeCS2CNH2C2SHC6H4FeC3H2C2H2SH5C3H2SHCH3CSHFeHCHSCHCHSCSHCHSHC2H2CH2NC3H2CHSCHNH2C3SCHCSC4H3C2HC2HS2CHC4HCHC3FeHCHCFeHSFeHCFeCH2SC3HSHNC3HNCH3CHCSHCHCSH2NH3FeSC3H3CSCSC2H2CSHSCSH2CSH3CSH2NCFe2C6H4CS3H2C2HC2H2FeCHC2HFeHCSCHCH2FeHSCH2CH3NCH5CHC2H2NHCFeSCHFeSHCFeS2CSC4SFeC2FeH3CNC2H3SCSC6H2SC2H2C2HCH3SCFeCNHSHCSH3CH2CHC3H3NHC4HCHFeCHSC2HCFeH3C3HC
_chemical_formula_sum              "S128 Fe64 H384 C384 N32"
_cell_length_a       41.0976
_cell_length_b       39.4637
_cell_length_c       45.2523
_cell_angle_alpha    89.5538
_cell_angle_beta     90.7182
_cell_angle_gamma    114.903

_space_group_name_H-M_alt    "P 1"
_space_group_IT_number       1

loop_
  _space_group_symop_operation_xyz
  'x, y, z'

loop_
  _atom_site_type_symbol
  _atom_site_label
  _atom_site_symmetry_multiplicity
  _atom_site_fract_x
  _atom_site_fract_y
  _atom_site_fract_z
  _atom_site_occupancy
  S   S1        1.0  0.46257  0.46013  0.24196  1.0000
  Fe  Fe1       1.0  0.46634  0.46820  0.19249  1.0000
  S   S2        1.0  0.45170  0.42547  0.15581  1.0000
  H   H1        1.0  0.38328  0.42689  0.17070  1.0000
  S   S3        1.0  0.30259  0.09410  0.04916  1.0000
  C   C1        1.0  0.12965  0.51446  0.27523  1.0000
  S   S4        1.0  0.02199  0.37909  0.03316  1.0000
  Fe  Fe2       1.0  0.29486  0.33510  0.04581  1.0000
  S   S5        1.0  0.29834  0.35323  0.09350  1.0000
  H   H2        1.0  0.45120  0.49259  0.12850  1.0000
  H   H3        1.0  0.08170  0.49552  0.24792  1.0000
  Fe  Fe3       1.0  0.29041  0.03876  0.02700  1.0000
  C   C2        1.0  0.16718  0.35787  0.07672  1.0000
  N   N1        1.0  0.20011  0.35697  0.07815  1.0000
  H   H4        1.0  0.45151  0.08269  0.15920  1.0000
  H   H5        1.0  0.35883  0.04004  0.06787  1.0000
  S   S6        1.0  0.24245  0.29217  0.02761  1.0000
  H   H6        1.0  0.35421  0.06677  0.09773  1.0000
  S   S7        1.0  0.04134  0.47170  0.18989  1.0000
  H   H7        1.0  0.39274  0.51528  0.34334  1.0000
  H   H8        1.0  0.22105  0.10612  0.04729  1.0000
  C   C3        1.0  0.41454  0.07615  0.12308  1.0000
  H   H9        1.0  0.25309  0.37833  0.06102  1.0000
  C   C4        1.0  0.40911  0.40703  0.13840  1.0000
  C   C5        1.0  0.40442  0.38692  0.11203  1.0000
  C   C6        1.0  0.37082  0.37124  0.09769  1.0000
  C   C7        1.0  0.34140  0.37482  0.11000  1.0000
  C   C8        1.0  0.34608  0.39508  0.13633  1.0000
  C   C9        1.0  0.37995  0.41154  0.15033  1.0000
  H   H10       1.0  0.42680  0.38313  0.10277  1.0000
  H   H11       1.0  0.36749  0.35556  0.07753  1.0000
  H   H12       1.0  0.32343  0.39791  0.14601  1.0000
  C   C10       1.0  0.30033  0.16239  0.04408  1.0000
  C   C11       1.0  0.02979  0.43372  0.13742  1.0000
  H   H13       1.0  0.29614  0.21519  0.04113  1.0000
  H   H14       1.0  0.49198  0.06474  0.12905  1.0000
  H   H15       1.0  0.42059  0.04694  0.05469  1.0000
  N   N2        1.0  0.40595  0.06594  0.09419  1.0000
  H   H16       1.0  0.47617  0.04672  0.07644  1.0000
  H   H17       1.0  0.37998  0.09044  0.06589  1.0000
  H   H18       1.0  0.13404  0.38087  0.05462  1.0000
  S   S8        1.0  0.49910  0.06953  0.20546  1.0000
  S   S9        1.0  0.05490  0.29596  0.03426  1.0000
  H   H19       1.0  0.19282  0.51246  0.30354  1.0000
  C   C12       1.0  0.42797  0.05600  0.07737  1.0000
  C   C13       1.0  0.22705  0.37909  0.05988  1.0000
  C   C14       1.0  0.29175  0.18950  0.02988  1.0000
  H   H20       1.0  0.05870  0.44547  0.13577  1.0000
  H   H21       1.0  0.46945  0.45630  0.09330  1.0000
  N   N3        1.0  0.20604  0.04862  0.05774  1.0000
  C   C15       1.0  0.20672  0.07733  0.04021  1.0000
  C   C16       1.0  0.46819  0.06577  0.11908  1.0000
  C   C17       1.0  0.46979  0.50690  0.11094  1.0000
  H   H22       1.0  0.21681  0.31388  0.08736  1.0000
  C   C18       1.0  0.37326  0.06598  0.08083  1.0000
  C   C19       1.0  0.44565  0.07608  0.13597  1.0000
  C   C20       1.0  0.16055  0.38121  0.05642  1.0000
  C   C21       1.0  0.18777  0.40345  0.03741  1.0000
  H   H23       1.0  0.24244  0.08639  0.08924  1.0000
  C   C22       1.0  0.11996  0.29459  0.02465  1.0000
  H   H24       1.0  0.18269  0.31426  0.11164  1.0000
  C   C23       1.0  0.45936  0.05572  0.08955  1.0000
  C   C24       1.0  0.50426  0.50520  0.06866  1.0000
  H   H25       1.0  0.14549  0.33989  0.09076  1.0000
  H   H26       1.0  0.31131  0.16738  0.06630  1.0000
  C   C25       1.0  0.20704  0.33233  0.09924  1.0000
  H   H27       1.0  0.11219  0.27338  0.04172  1.0000
  H   H28       1.0  0.22825  0.34927  0.11533  1.0000
  H   H29       1.0  0.39678  0.08325  0.13667  1.0000
  C   C26       1.0  0.11020  0.51340  0.24938  1.0000
  H   H30       1.0  0.49647  0.16462  0.27991  1.0000
  C   C27       1.0  0.48006  0.48647  0.09108  1.0000
  H   H31       1.0  0.02061  0.40443  0.09582  1.0000
  H   H32       1.0  0.24098  0.04065  0.08914  1.0000
  C   C28       1.0  0.22126  0.40245  0.03912  1.0000
  H   H33       1.0  0.42521  0.49978  0.33143  1.0000
  H   H34       1.0  0.20390  0.04801  0.10457  1.0000
  H   H35       1.0  0.11569  0.49751  0.29396  1.0000
  Fe  Fe4       1.0  0.51065  0.05902  0.25236  1.0000
  C   C29       1.0  0.29440  0.12877  0.02980  1.0000
  C   C30       1.0  0.22404  0.05630  0.08670  1.0000
  C   C31       1.0  0.50878  0.18198  0.26011  1.0000
  H   H36       1.0  0.48729  0.18255  0.24530  1.0000
  H   H37       1.0  0.49249  0.22796  0.29297  1.0000
  Fe  Fe5       1.0  0.45284  0.51263  0.24169  1.0000
  H   H38       1.0  0.51215  0.48910  0.05332  1.0000
  S   S10       1.0  0.40912  0.51577  0.27048  1.0000
  C   C32       1.0  0.50557  0.18997  0.68103  1.0000
  H   H39       1.0  0.50676  0.17728  0.66012  1.0000
  H   H40       1.0  0.42530  0.51269  0.36973  1.0000
  Fe  Fe6       1.0  0.44083  0.46682  0.80832  1.0000
  S   S11       1.0  0.38967  0.42223  0.82676  1.0000
  H   H41       1.0  0.33839  0.01849  0.86968  1.0000
  H   H42       1.0  0.29287  0.26654  0.88019  1.0000
  H   H43       1.0  0.32688  0.37187  0.91934  1.0000
  H   H44       1.0  0.33017  0.38575  0.86556  1.0000
  C   C33       1.0  0.36552  0.28210  0.96232  1.0000
  H   H45       1.0  0.11165  0.50100  0.75696  1.0000
  Fe  Fe7       1.0  0.27705  0.27347  0.99987  1.0000
  S   S12       1.0  0.28054  0.31262  0.96239  1.0000
  S   S13       1.0  0.26389  0.21502  0.98315  1.0000
  Fe  Fe8       1.0  0.32996  0.35284  0.98550  1.0000
  S   S14       1.0  0.38322  0.38621  0.96362  1.0000
  Fe  Fe9       1.0  0.25002  0.33435  0.99183  1.0000
  H   H46       1.0  0.34266  0.31487  0.85169  1.0000
  H   H47       1.0  0.37946  0.30831  0.97519  1.0000
  H   H48       1.0  0.05383  0.45027  0.74611  1.0000
  C   C34       1.0  0.14029  0.34928  0.98061  1.0000
  C   C35       1.0  0.07187  0.45434  0.81837  1.0000
  S   S15       1.0  0.20757  0.35195  0.97415  1.0000
  H   H49       1.0  0.14814  0.37057  0.96359  1.0000
  H   H50       1.0  0.35120  0.44974  0.78463  1.0000
  C   C36       1.0  0.37003  0.50001  0.81080  1.0000
  C   C37       1.0  0.17189  0.03327  0.00282  1.0000
  C   C38       1.0  0.35271  0.47779  0.78648  1.0000
  H   H51       1.0  0.38234  0.26628  0.96228  1.0000
  C   C39       1.0  0.10590  0.49502  0.78024  1.0000
  C   C40       1.0  0.27690  0.18292  0.00139  1.0000
  H   H52       1.0  0.02792  0.42008  0.77478  1.0000
  C   C41       1.0  0.28016  0.12253  0.00111  1.0000
  C   C42       1.0  0.27127  0.14944  0.98705  1.0000
  H   H53       1.0  0.27554  0.09676  0.98989  1.0000
  H   H54       1.0  0.25988  0.14424  0.96495  1.0000
  C   C43       1.0  0.11925  0.51419  0.83113  1.0000
  H   H55       1.0  0.38164  0.48871  0.82769  1.0000
  N   N4        1.0  0.35886  0.29091  0.93195  1.0000
  S   S16       1.0  0.43963  0.48536  0.76129  1.0000
  C   C44       1.0  0.16430  0.33423  0.98967  1.0000
  C   C45       1.0  0.31940  0.28059  0.89001  1.0000
  C   C46       1.0  0.38776  0.41603  0.86538  1.0000
  C   C47       1.0  0.41906  0.42914  0.88265  1.0000
  C   C48       1.0  0.41718  0.42080  0.91301  1.0000
  C   C49       1.0  0.38401  0.39980  0.92634  1.0000
  C   C50       1.0  0.35257  0.38793  0.90926  1.0000
  C   C51       1.0  0.35449  0.39583  0.87881  1.0000
  H   H56       1.0  0.44484  0.44478  0.87249  1.0000
  H   H57       1.0  0.44159  0.43015  0.92613  1.0000
  H   H58       1.0  0.47513  0.16687  0.75106  1.0000
  H   H59       1.0  0.47390  0.13757  0.70253  1.0000
  Fe  Fe10      1.0  0.49502  0.48682  0.75837  1.0000
  S   S17       1.0  0.49372  0.46342  0.80384  1.0000
  C   C52       1.0  0.15392  0.30666  0.01163  1.0000
  C   C53       1.0  0.48728  0.16772  0.70484  1.0000
  C   C54       1.0  0.48794  0.18423  0.73211  1.0000
  C   C55       1.0  0.38637  0.31719  0.91639  1.0000
  H   H60       1.0  0.50427  0.02847  0.92338  1.0000
  C   C56       1.0  0.34730  0.30745  0.87401  1.0000
  S   S18       1.0  0.30020  0.37850  0.01165  1.0000
  H   H61       1.0  0.30392  0.25145  0.93137  1.0000
  Fe  Fe11      1.0  0.01633  0.32134  0.02204  1.0000
  H   H62       1.0  0.05064  0.42806  0.82533  1.0000
  H   H63       1.0  0.02055  0.48501  0.91764  1.0000
  C   C57       1.0  0.32578  0.27234  0.91906  1.0000
  C   C58       1.0  0.38111  0.32565  0.88714  1.0000
  C   C59       1.0  0.10644  0.33747  0.99383  1.0000
  C   C60       1.0  0.33822  0.49231  0.76438  1.0000
  C   C61       1.0  0.09629  0.31022  0.01602  1.0000
  S   S19       1.0  0.33401  0.02811  0.00551  1.0000
  H   H64       1.0  0.08837  0.34966  0.98700  1.0000
  H   H65       1.0  0.40269  0.34735  0.87516  1.0000
  H   H66       1.0  0.34014  0.26493  0.97395  1.0000
  H   H67       1.0  0.17206  0.29473  0.01864  1.0000
  C   C62       1.0  0.05585  0.43568  0.76675  1.0000
  H   H68       1.0  0.41228  0.33267  0.92691  1.0000
  C   C63       1.0  0.50705  0.22294  0.73519  1.0000
  N   N5        1.0  0.07822  0.46246  0.78897  1.0000
  H   H69       1.0  0.50846  0.23539  0.75672  1.0000
  C   C64       1.0  0.09196  0.48021  0.83990  1.0000
  Fe  Fe12      1.0  0.49934  0.05455  0.78378  1.0000
  H   H70       1.0  0.06735  0.41559  0.76148  1.0000
  H   H71       1.0  0.15931  0.02726  0.98110  1.0000
  H   H72       1.0  0.08591  0.47410  0.86316  1.0000
  H   H73       1.0  0.32548  0.47572  0.74504  1.0000
  H   H74       1.0  0.18255  0.42041  0.02067  1.0000
  H   H75       1.0  0.19167  0.09314  0.99821  1.0000
  C   C65       1.0  0.18998  0.07014  0.01239  1.0000
  S   S20       1.0  0.32874  0.31253  0.02140  1.0000
  H   H76       1.0  0.24223  0.41861  0.02376  1.0000
  H   H77       1.0  0.37802  0.92980  0.22759  1.0000
  H   H78       1.0  0.42158  0.92965  0.22926  1.0000
  S   S21       1.0  0.40468  0.66790  0.30960  1.0000
  S   S22       1.0  0.33032  0.70494  0.30743  1.0000
  N   N6        1.0  0.16560  0.53707  0.27704  1.0000
  H   H79       1.0  0.17810  0.57651  0.20900  1.0000
  H   H80       1.0  0.11250  0.78729  0.11162  1.0000
  S   S23       1.0  0.48181  0.98166  0.19140  1.0000
  Fe  Fe13      1.0  0.49296  0.97659  0.23979  1.0000
  S   S24       1.0  0.48612  0.91900  0.25585  1.0000
  S   S25       1.0  0.03875  0.55263  0.23447  1.0000
  C   C66       1.0  0.18793  0.01238  0.04872  1.0000
  C   C67       1.0  0.39727  0.96937  0.10673  1.0000
  C   C68       1.0  0.44895  0.85309  0.28569  1.0000
  H   H81       1.0  0.11011  0.86443  0.05368  1.0000
  C   C69       1.0  0.12766  0.53572  0.22538  1.0000
  S   S26       1.0  0.35935  0.80831  0.33681  1.0000
  C   C70       1.0  0.09780  0.74025  0.08234  1.0000
  H   H82       1.0  0.38138  0.88520  0.32091  1.0000
  Fe  Fe14      1.0  0.51156  0.55177  0.19705  1.0000
  H   H83       1.0  0.16960  0.53489  0.32393  1.0000
  C   C71       1.0  0.38460  0.98955  0.15407  1.0000
  Fe  Fe15      1.0  0.45185  0.01386  0.20738  1.0000
  H   H84       1.0  0.39467  0.91528  0.19590  1.0000
  H   H85       1.0  0.35616  0.53069  0.30182  1.0000
  H   H86       1.0  0.46771  0.84396  0.27576  1.0000
  H   H87       1.0  0.07657  0.72126  0.09636  1.0000
  C   C72       1.0  0.50767  0.56350  0.08542  1.0000
  C   C73       1.0  0.11776  0.85533  0.03349  1.0000
  C   C74       1.0  0.18308  0.55882  0.25349  1.0000
  H   H88       1.0  0.01972  0.57629  0.17858  1.0000
  H   H89       1.0  0.21079  0.56273  0.30613  1.0000
  H   H90       1.0  0.04806  0.59882  0.13010  1.0000
  H   H91       1.0  0.34353  0.77511  0.26212  1.0000
  C   C75       1.0  0.18654  0.62304  0.31106  1.0000
  C   C76       1.0  0.17233  0.60758  0.33847  1.0000
  C   C77       1.0  0.13500  0.58636  0.34140  1.0000
  C   C78       1.0  0.11164  0.58045  0.31702  1.0000
  C   C79       1.0  0.12579  0.59696  0.28993  1.0000
  C   C80       1.0  0.16298  0.61822  0.28704  1.0000
  S   S27       1.0  0.27476  0.98959  0.05761  1.0000
  S   S28       1.0  0.51124  0.55123  0.24671  1.0000
  H   H92       1.0  0.10817  0.59307  0.27108  1.0000
  C   C81       1.0  0.02580  0.60473  0.13682  1.0000
  C   C82       1.0  0.40186  0.62516  0.29506  1.0000
  C   C83       1.0  0.37498  0.59066  0.30354  1.0000
  C   C84       1.0  0.37660  0.55724  0.29463  1.0000
  C   C85       1.0  0.40503  0.55801  0.27721  1.0000
  C   C86       1.0  0.43102  0.59246  0.26770  1.0000
  C   C87       1.0  0.42944  0.62583  0.27665  1.0000
  S   S29       1.0  0.23332  0.64415  0.30432  1.0000
  H   H93       1.0  0.45291  0.59345  0.25416  1.0000
  H   H94       1.0  0.45027  0.65239  0.26990  1.0000
  C   C88       1.0  0.39623  0.83930  0.31584  1.0000
  C   C89       1.0  0.40022  0.87610  0.31112  1.0000
  C   C90       1.0  0.42798  0.90107  0.29330  1.0000
  C   C91       1.0  0.45232  0.88958  0.28023  1.0000
  Fe  Fe16      1.0  0.34447  0.74625  0.34421  1.0000
  H   H95       1.0  0.11263  0.53519  0.20532  1.0000
  H   H96       1.0  0.43043  0.92914  0.28958  1.0000
  N   N7        1.0  0.13091  0.75170  0.03714  1.0000
  H   H97       1.0  0.08903  0.69906  0.04888  1.0000
  Fe  Fe17      1.0  0.28259  0.66887  0.33480  1.0000
  Fe  Fe18      1.0  0.36052  0.67798  0.33269  1.0000
  H   H98       1.0  0.41834  0.79979  0.30685  1.0000
  S   S30       1.0  0.06527  0.55118  0.32094  1.0000
  H   H99       1.0  0.31322  0.81563  0.27468  1.0000
  C   C92       1.0  0.48371  0.54567  0.10823  1.0000
  S   S31       1.0  0.03426  0.64050  0.08373  1.0000
  H   H100      1.0  0.31972  0.98048  0.10301  1.0000
  H   H101      1.0  0.35359  0.58977  0.31768  1.0000
  S   S32       1.0  0.35814  0.96295  0.05605  1.0000
  C   C93       1.0  0.42099  0.82799  0.30332  1.0000
  C   C94       1.0  0.34390  0.98005  0.11216  1.0000
  C   C95       1.0  0.16433  0.55869  0.22740  1.0000
  S   S33       1.0  0.17999  0.91942  0.03829  1.0000
  H   H102      1.0  0.43093  0.97904  0.14552  1.0000
  C   C96       1.0  0.49833  0.60327  0.31637  1.0000
  S   S34       1.0  0.39684  0.00494  0.19068  1.0000
  N   N8        1.0  0.37898  0.87575  0.23112  1.0000
  C   C97       1.0  0.34927  0.86233  0.24866  1.0000
  C   C98       1.0  0.39594  0.85360  0.22417  1.0000
  C   C99       1.0  0.33585  0.82581  0.25977  1.0000
  C   C100      1.0  0.38309  0.81687  0.23473  1.0000
  C   C101      1.0  0.35292  0.80300  0.25272  1.0000
  C   C102      1.0  0.39388  0.91445  0.22045  1.0000
  C   C103      1.0  0.36636  0.97064  0.09430  1.0000
  H   H103      1.0  0.42038  0.86482  0.21131  1.0000
  H   H104      1.0  0.47658  0.56189  0.12408  1.0000
  C   C104      1.0  0.40652  0.97905  0.13647  1.0000
  H   H105      1.0  0.18735  0.98959  0.06261  1.0000
  C   C105      1.0  0.35295  0.98937  0.14198  1.0000
  S   S35       1.0  0.45994  0.00568  0.25557  1.0000
  H   H106      1.0  0.33636  0.88015  0.25485  1.0000
  Fe  Fe19      1.0  0.02689  0.53337  0.28150  1.0000
  H   H107      1.0  0.17368  0.63035  0.26582  1.0000
  C   C106      1.0  0.15158  0.78766  0.04575  1.0000
  H   H108      1.0  0.41467  0.96191  0.09307  1.0000
  C   C107      1.0  0.14533  0.80103  0.07265  1.0000
  H   H109      1.0  0.33572  0.99715  0.15556  1.0000
  H   H110      1.0  0.21148  0.57725  0.25513  1.0000
  C   C108      1.0  0.11804  0.77718  0.09091  1.0000
  C   C109      1.0  0.10482  0.72784  0.05531  1.0000
  H   H111      1.0  0.16100  0.83000  0.07883  1.0000
  C   C110      1.0  0.47513  0.56628  0.32301  1.0000
  H   H112      1.0  0.39732  0.79982  0.23002  1.0000
  Fe  Fe20      1.0  0.31545  0.97658  0.03381  1.0000
  N   N9        1.0  0.44541  0.55849  0.33990  1.0000
  H   H113      1.0  0.48032  0.54381  0.31366  1.0000
  H   H114      1.0  0.06906  0.80419  0.03084  1.0000
  C   C111      1.0  0.18568  0.53661  0.30395  1.0000
  H   H115      1.0  0.50796  0.66106  0.32140  1.0000
  H   H116      1.0  0.19015  0.61103  0.35713  1.0000
  S   S36       1.0  0.45230  0.51737  0.19210  1.0000
  H   H117      1.0  0.17234  0.80663  0.03142  1.0000
  C   C112      1.0  0.49103  0.63231  0.32727  1.0000
  C   C113      1.0  0.43834  0.58683  0.35099  1.0000
  C   C114      1.0  0.46094  0.62412  0.34478  1.0000
  C   C115      1.0  0.42109  0.51965  0.34662  1.0000
  H   H118      1.0  0.45416  0.64641  0.35229  1.0000
  H   H119      1.0  0.23739  0.70514  0.60836  1.0000
  H   H120      1.0  0.41795  0.66376  0.64145  1.0000
  S   S37       1.0  0.37811  0.72221  0.36795  1.0000
  C   C116      1.0  0.42156  0.82055  0.39354  1.0000
  Fe  Fe21      1.0  0.32776  0.68512  0.39201  1.0000
  S   S38       1.0  0.33897  0.67668  0.44093  1.0000
  H   H121      1.0  0.39418  0.74823  0.45691  1.0000
  S   S39       1.0  0.29483  0.71241  0.37052  1.0000
  C   C117      1.0  0.43788  0.70055  0.67905  1.0000
  S   S40       1.0  0.27380  0.63283  0.64339  1.0000
  H   H122      1.0  0.12849  0.60481  0.64992  1.0000
  C   C118      1.0  0.21143  0.72760  0.65448  1.0000
  S   S41       1.0  0.35845  0.69255  0.63551  1.0000
  C   C119      1.0  0.15196  0.62688  0.64020  1.0000
  Fe  Fe22      1.0  0.30466  0.68620  0.61809  1.0000
  S   S42       1.0  0.28694  0.69423  0.57104  1.0000
  H   H123      1.0  0.21396  0.64208  0.58666  1.0000
  S   S43       1.0  0.29874  0.72282  0.65404  1.0000
  N   N10       1.0  0.19625  0.69058  0.64066  1.0000
  H   H124      1.0  0.44973  0.62480  0.65602  1.0000
  C   C120      1.0  0.43527  0.77937  0.42590  1.0000
  H   H125      1.0  0.33312  0.79331  0.44186  1.0000
  C   C121      1.0  0.16616  0.66282  0.65228  1.0000
  C   C122      1.0  0.21319  0.68337  0.61731  1.0000
  H   H126      1.0  0.22942  0.74941  0.63916  1.0000
  C   C123      1.0  0.16917  0.61927  0.61647  1.0000
  H   H127      1.0  0.15900  0.59130  0.60737  1.0000
  H   H128      1.0  0.15367  0.66804  0.67165  1.0000
  C   C124      1.0  0.32321  0.68079  0.47682  1.0000
  C   C125      1.0  0.29381  0.68933  0.48110  1.0000
  C   C126      1.0  0.28324  0.69334  0.51001  1.0000
  C   C127      1.0  0.30156  0.68853  0.53510  1.0000
  C   C128      1.0  0.33078  0.67972  0.53082  1.0000
  C   C129      1.0  0.34151  0.67598  0.50191  1.0000
  H   H129      1.0  0.27905  0.69265  0.46219  1.0000
  H   H130      1.0  0.26051  0.70001  0.51295  1.0000
  H   H131      1.0  0.34517  0.67585  0.54978  1.0000
  H   H132      1.0  0.36418  0.66919  0.49900  1.0000
  H   H133      1.0  0.34484  0.76535  0.46757  1.0000
  Fe  Fe23      1.0  0.32752  0.64199  0.66350  1.0000
  H   H134      1.0  0.12428  0.57395  0.36253  1.0000
  S   S44       1.0  0.34591  0.59529  0.66799  1.0000
  N   N11       1.0  0.37924  0.78439  0.43032  1.0000
  C   C130      1.0  0.40201  0.76910  0.43945  1.0000
  C   C131      1.0  0.38849  0.80957  0.40753  1.0000
  H   H135      1.0  0.45289  0.76662  0.43288  1.0000
  H   H136      1.0  0.42351  0.71717  0.67285  1.0000
  C   C132      1.0  0.34376  0.77174  0.44369  1.0000
  H   H137      1.0  0.36998  0.82078  0.39957  1.0000
  H   H138      1.0  0.18986  0.73578  0.66121  1.0000
  C   C133      1.0  0.44504  0.80528  0.40278  1.0000
  Fe  Fe24      1.0  0.27116  0.66947  0.68017  1.0000
  H   H139      1.0  0.32481  0.74594  0.43240  1.0000
  C   C134      1.0  0.19995  0.64768  0.60487  1.0000
  Fe  Fe25      1.0  0.35024  0.72508  0.67337  1.0000
  H   H140      1.0  0.22730  0.72711  0.67444  1.0000
  C   C135      1.0  0.45290  0.64885  0.66922  1.0000
  H   H141      1.0  0.19367  0.58754  0.68301  1.0000
  H   H142      1.0  0.47041  0.81300  0.39164  1.0000
  H   H143      1.0  0.37859  0.54517  0.68018  1.0000
  C   C136      1.0  0.43500  0.67073  0.66105  1.0000
  H   H144      1.0  0.41435  0.58068  0.36378  1.0000
  S   S45       1.0  0.31227  0.63890  0.35782  1.0000
  H   H145      1.0  0.42840  0.84001  0.37508  1.0000
  H   H146      1.0  0.13345  0.53444  0.68757  1.0000
  C   C137      1.0  0.40217  0.81507  0.70813  1.0000
  H   H147      1.0  0.39449  0.54246  0.85704  1.0000
  C   C138      1.0  0.36142  0.98638  0.93282  1.0000
  H   H148      1.0  0.15691  0.97531  0.01389  1.0000
  S   S46       1.0  0.45098  0.59148  0.77099  1.0000
  S   S47       1.0  0.47350  0.95456  0.81594  1.0000
  Fe  Fe26      1.0  0.45687  0.97068  0.77262  1.0000
  S   S48       1.0  0.41245  0.92843  0.74392  1.0000
  C   C139      1.0  0.47346  0.65703  0.69515  1.0000
  H   H149      1.0  0.45602  0.83144  0.72491  1.0000
  C   C140      1.0  0.35852  0.55005  0.79160  1.0000
  H   H150      1.0  0.35686  0.92052  0.78683  1.0000
  C   C141      1.0  0.38753  0.88994  0.84654  1.0000
  S   S49       1.0  0.44317  0.98969  0.88254  1.0000
  C   C142      1.0  0.38191  0.89635  0.81696  1.0000
  H   H151      1.0  0.18603  0.88242  0.98428  1.0000
  S   S50       1.0  0.27583  0.93941  0.00017  1.0000
  H   H152      1.0  0.11250  0.71701  0.99908  1.0000
  C   C143      1.0  0.13959  0.55984  0.69987  1.0000
  H   H153      1.0  0.47842  0.74442  0.74205  1.0000
  H   H154      1.0  0.43180  0.73132  0.73281  1.0000
  N   N12       1.0  0.34355  0.92520  0.83167  1.0000
  S   S51       1.0  0.03018  0.66519  0.00421  1.0000
  H   H155      1.0  0.39508  0.88813  0.79956  1.0000
  C   C144      1.0  0.36009  0.91457  0.80988  1.0000
  C   C145      1.0  0.13704  0.83166  0.98136  1.0000
  H   H156      1.0  0.46192  0.89221  0.74509  1.0000
  S   S52       1.0  0.46458  0.52484  0.82689  1.0000
  S   S53       1.0  0.07637  0.76595  0.97790  1.0000
  C   C146      1.0  0.43385  0.83926  0.72271  1.0000
  H   H157      1.0  0.30414  0.93227  0.80459  1.0000
  C   C147      1.0  0.12153  0.59555  0.73382  1.0000
  C   C148      1.0  0.16059  0.86552  0.99448  1.0000
  H   H158      1.0  0.35214  0.97786  0.95510  1.0000
  N   N13       1.0  0.45788  0.70823  0.70454  1.0000
  H   H159      1.0  0.34018  0.97495  0.81781  1.0000
  H   H160      1.0  0.33049  0.54051  0.74957  1.0000
  H   H161      1.0  0.14848  0.76113  0.99240  1.0000
  H   H162      1.0  0.41548  0.63910  0.76031  1.0000
  H   H163      1.0  0.38053  0.57780  0.84512  1.0000
  C   C149      1.0  0.11322  0.56263  0.71796  1.0000
  C   C150      1.0  0.13782  0.73810  0.00891  1.0000
  C   C151      1.0  0.47553  0.68690  0.71275  1.0000
  C   C152      1.0  0.34145  0.99814  0.91348  1.0000
  C   C153      1.0  0.32208  0.94568  0.82371  1.0000
  C   C154      1.0  0.18174  0.62316  0.71255  1.0000
  S   S54       1.0  0.01901  0.60217  0.83304  1.0000
  C   C155      1.0  0.40991  0.56431  0.72028  1.0000
  C   C156      1.0  0.42069  0.59098  0.74278  1.0000
  C   C157      1.0  0.40733  0.61842  0.74291  1.0000
  C   C158      1.0  0.38384  0.61964  0.72046  1.0000
  H   H164      1.0  0.46648  0.76476  0.71039  1.0000
  H   H165      1.0  0.41996  0.54300  0.71998  1.0000
  H   H166      1.0  0.40536  0.87698  0.85232  1.0000
  C   C159      1.0  0.40915  0.88466  0.73091  1.0000
  C   C160      1.0  0.43728  0.87377  0.73421  1.0000
  C   C161      1.0  0.39307  0.98480  0.92316  1.0000
  C   C162      1.0  0.45888  0.73861  0.72351  1.0000
  Fe  Fe27      1.0  0.29104  0.99248  0.97384  1.0000
  H   H167      1.0  0.10153  0.59809  0.74785  1.0000
  S   S55       1.0  0.39978  0.77248  0.69323  1.0000
  S   S56       1.0  0.32247  0.67452  0.70210  1.0000
  S   S57       1.0  0.22285  0.66321  0.70790  1.0000
  Fe  Fe28      1.0  0.46691  0.54346  0.77943  1.0000
  H   H168      1.0  0.35548  0.86851  0.71384  1.0000
  C   C163      1.0  0.37380  0.82566  0.70535  1.0000
  C   C164      1.0  0.34850  0.91852  0.86073  1.0000
  H   H169      1.0  0.37574  0.89731  0.89174  1.0000
  C   C165      1.0  0.37075  0.90109  0.86861  1.0000
  Fe  Fe29      1.0  0.46235  0.00053  0.83542  1.0000
  H   H170      1.0  0.14455  0.82270  0.96102  1.0000
  C   C166      1.0  0.38644  0.56557  0.69778  1.0000
  C   C167      1.0  0.10402  0.80921  0.99445  1.0000
  C   C168      1.0  0.34086  0.52858  0.76701  1.0000
  H   H171      1.0  0.37413  0.64118  0.72059  1.0000
  H   H172      1.0  0.30492  0.94641  0.84231  1.0000
  C   C169      1.0  0.15553  0.62569  0.73097  1.0000
  Fe  Fe30      1.0  0.02780  0.72080  0.99978  1.0000
  H   H173      1.0  0.16143  0.65132  0.74288  1.0000
  C   C170      1.0  0.37738  0.86035  0.71656  1.0000
  C   C171      1.0  0.39313  0.55940  0.83770  1.0000
  H   H174      1.0  0.33609  0.92767  0.87813  1.0000
  H   H175      1.0  0.36177  0.57873  0.79288  1.0000
  C   C172      1.0  0.37358  0.59342  0.69761  1.0000
  H   H176      1.0  0.40802  0.97500  0.93812  1.0000
  H   H177      1.0  0.42101  0.57708  0.83050  1.0000
  C   C173      1.0  0.40506  0.99522  0.89421  1.0000
  H   H178      1.0  0.34932  0.80743  0.69415  1.0000
  C   C174      1.0  0.17378  0.58986  0.69729  1.0000
  N   N14       1.0  0.37278  0.53564  0.81310  1.0000
  H   H179      1.0  0.15718  0.72551  0.01215  1.0000
  H   H180      1.0  0.03105  0.65600  0.87875  1.0000
  H   H181      1.0  0.49048  0.69208  0.73341  1.0000
  C   C175      1.0  0.17052  0.00414  0.02119  1.0000
  S   S58       1.0  0.24832  0.00717  0.99318  1.0000
  H   H182      1.0  0.14755  0.54794  0.79392  1.0000
  H   H183      1.0  0.48639  0.63933  0.70229  1.0000
  C   C176      1.0  0.15103  0.87747  0.02064  1.0000
  S   S59       1.0  0.30043  0.99774  0.92459  1.0000
  C   C177      1.0  0.09444  0.82118  0.02060  1.0000
  S   S60       1.0  0.44193  0.01440  0.79293  1.0000
  C   C178      1.0  0.38560  0.00783  0.87499  1.0000
  Fe  Fe31      1.0  0.23608  0.95646  0.02193  1.0000
  S   S61       1.0  0.07019  0.52462  0.71962  1.0000
  Fe  Fe32      1.0  0.02655  0.51990  0.75223  1.0000
  S   S62       1.0  0.03636  0.51892  0.80104  1.0000
  C   C179      1.0  0.35367  0.00904  0.88458  1.0000
  H   H184      1.0  0.13460  0.53482  0.84755  1.0000
  H   H185      1.0  0.51188  0.98252  0.89040  1.0000
  S   S63       1.0  0.51324  0.01190  0.76086  1.0000
  C   C180      1.0  0.12653  0.52158  0.80111  1.0000
  H   H186      1.0  0.39492  0.01620  0.85271  1.0000
  C   C181      1.0  0.82494  0.43554  0.23859  1.0000
  S   S64       1.0  0.52574  0.50322  0.19414  1.0000
  H   H187      1.0  0.57869  0.21920  0.24745  1.0000
  S   S65       1.0  0.67193  0.35706  0.31832  1.0000
  C   C182      1.0  0.57884  0.03663  0.12900  1.0000
  H   H188      1.0  0.61073  0.08494  0.10291  1.0000
  C   C183      1.0  0.93947  0.18187  0.05312  1.0000
  S   S66       1.0  0.58033  0.36349  0.33911  1.0000
  H   H189      1.0  0.96418  0.43169  0.18332  1.0000
  C   C184      1.0  0.52025  0.24013  0.28603  1.0000
  H   H190      1.0  0.96415  0.41937  0.32009  1.0000
  C   C185      1.0  0.67643  0.08429  0.14164  1.0000
  Fe  Fe33      1.0  0.95096  0.47465  0.26653  1.0000
  C   C186      1.0  0.84964  0.51256  0.24140  1.0000
  S   S67       1.0  0.90135  0.42587  0.28375  1.0000
  H   H191      1.0  0.75923  0.43950  0.27898  1.0000
  Fe  Fe34      1.0  0.63192  0.35810  0.35113  1.0000
  N   N15       1.0  0.53311  0.22001  0.26907  1.0000
  Fe  Fe35      1.0  0.96565  0.35011  0.04952  1.0000
  H   H192      1.0  0.78162  0.37102  0.32771  1.0000
  S   S68       1.0  0.94268  0.36737  0.08858  1.0000
  H   H193      1.0  0.64411  0.19531  0.26685  1.0000
  S   S69       1.0  0.56875  0.06338  0.15531  1.0000
  H   H194      1.0  0.92280  0.39326  0.33803  1.0000
  C   C187      1.0  0.99129  0.48761  0.02895  1.0000
  S   S70       1.0  0.78381  0.10727  0.04133  1.0000
  C   C188      1.0  0.97955  0.48350  0.34912  1.0000
  H   H195      1.0  0.53265  0.29264  0.30830  1.0000
  C   C189      1.0  0.69803  0.11120  0.12145  1.0000
  H   H196      1.0  0.53810  0.16126  0.33089  1.0000
  H   H197      1.0  0.83788  0.17724  0.06180  1.0000
  C   C190      1.0  0.97086  0.39533  0.11680  1.0000
  C   C191      1.0  0.95517  0.40329  0.14155  1.0000
  C   C192      1.0  0.97663  0.42636  0.16416  1.0000
  C   C193      1.0  0.81556  0.48887  0.25176  1.0000
  Fe  Fe36      1.0  0.66381  0.30213  0.33910  1.0000
  S   S71       1.0  0.65953  0.25596  0.30727  1.0000
  H   H198      1.0  0.52077  0.37261  0.31228  1.0000
  C   C194      1.0  0.57854  0.29227  0.28622  1.0000
  H   H199      1.0  0.88793  0.13571  0.06026  1.0000
  C   C195      1.0  0.98500  0.49981  0.11030  1.0000
  H   H200      1.0  0.63478  0.43620  0.32019  1.0000
  N   N16       1.0  0.98672  0.50706  0.07838  1.0000
  C   C196      1.0  0.71651  0.10118  0.10005  1.0000
  C   C197      1.0  0.62158  0.21249  0.30349  1.0000
  C   C198      1.0  0.59152  0.20265  0.32149  1.0000
  C   C199      1.0  0.56121  0.16865  0.31683  1.0000
  C   C200      1.0  0.56046  0.14425  0.29406  1.0000
  C   C201      1.0  0.59052  0.15407  0.27606  1.0000
  S   S72       1.0  0.95729  0.48835  0.21808  1.0000
  C   C202      1.0  0.56818  0.23532  0.26038  1.0000
  C   C203      1.0  0.57819  0.40073  0.31815  1.0000
  C   C204      1.0  0.60882  0.43344  0.31230  1.0000
  C   C205      1.0  0.60577  0.46308  0.29673  1.0000
  C   C206      1.0  0.57223  0.46018  0.28649  1.0000
  C   C207      1.0  0.54168  0.42719  0.29189  1.0000
  C   C208      1.0  0.54466  0.39775  0.30784  1.0000
  C   C209      1.0  0.96299  0.20505  0.03189  1.0000
  C   C210      1.0  0.60158  0.05506  0.10553  1.0000
  H   H201      1.0  0.72748  0.05667  0.08249  1.0000
  H   H202      1.0  0.00452  0.48342  0.34164  1.0000
  C   C211      1.0  0.80362  0.43107  0.32847  1.0000
  C   C212      1.0  0.80439  0.39678  0.32220  1.0000
  C   C213      1.0  0.83458  0.39576  0.30855  1.0000
  C   C214      1.0  0.86418  0.42891  0.30089  1.0000
  C   C215      1.0  0.86354  0.46324  0.30727  1.0000
  C   C216      1.0  0.83344  0.46427  0.32112  1.0000
  H   H203      1.0  0.83484  0.36904  0.30374  1.0000
  H   H204      1.0  0.88618  0.48897  0.30151  1.0000
  H   H205      1.0  0.70030  0.13957  0.12234  1.0000
  H   H206      1.0  0.59627  0.32037  0.29312  1.0000
  S   S73       1.0  0.96170  0.29219  0.04241  1.0000
  H   H207      1.0  0.98921  0.45549  0.06810  1.0000
  H   H208      1.0  0.52305  0.16764  0.24836  1.0000
  C   C217      1.0  0.98907  0.48124  0.05952  1.0000
  H   H209      1.0  0.74800  0.42068  0.24199  1.0000
  H   H210      1.0  0.59161  0.22122  0.33895  1.0000
  N   N17       1.0  0.94889  0.45103  0.35013  1.0000
  C   C218      1.0  0.69088  0.03820  0.11922  1.0000
  C   C219      1.0  0.87150  0.49716  0.22949  1.0000
  H   H211      1.0  0.92625  0.39140  0.14332  1.0000
  C   C220      1.0  0.62097  0.18794  0.28088  1.0000
  H   H212      1.0  0.59029  0.13559  0.25844  1.0000
  H   H213      1.0  0.73349  0.12164  0.08419  1.0000
  H   H214      1.0  0.63222  0.05006  0.06876  1.0000
  C   C221      1.0  0.54273  0.27658  0.29480  1.0000
  C   C222      1.0  0.71305  0.06453  0.09899  1.0000
  S   S74       1.0  0.54489  0.02931  0.24005  1.0000
  H   H215      1.0  0.66180  0.09216  0.15804  1.0000
  Fe  Fe37      1.0  0.53020  0.03666  0.19295  1.0000
  C   C223      1.0  0.90686  0.15346  0.04408  1.0000
  H   H216      1.0  0.89803  0.51533  0.22149  1.0000
  C   C224      1.0  0.76754  0.42649  0.26052  1.0000
  Fe  Fe38      1.0  0.01278  0.49163  0.22306  1.0000
  H   H217      1.0  0.62954  0.48852  0.29277  1.0000
  C   C225      1.0  0.83768  0.17824  0.03790  1.0000
  H   H218      1.0  0.66839  0.01975  0.18087  1.0000
  C   C226      1.0  0.61379  0.03536  0.08614  1.0000
  S   S75       1.0  0.52055  0.10320  0.28790  1.0000
  H   H219      1.0  0.81587  0.40545  0.23785  1.0000
  H   H220      1.0  0.94638  0.18626  0.07643  1.0000
  H   H221      1.0  0.87618  0.44605  0.21945  1.0000
  H   H222      1.0  0.61958  0.28305  0.26302  1.0000
  C   C227      1.0  0.85915  0.45841  0.22809  1.0000
  N   N18       1.0  0.67288  0.04825  0.14017  1.0000
  H   H223      1.0  0.76634  0.39957  0.26924  1.0000
  C   C228      1.0  0.00827  0.41053  0.11476  1.0000
  C   C229      1.0  0.59146  0.27154  0.26900  1.0000
  Fe  Fe39      1.0  0.52123  0.49938  0.24342  1.0000
  S   S76       1.0  0.56986  0.49894  0.26797  1.0000
  H   H224      1.0  0.62949  0.02768  0.17073  1.0000
  C   C230      1.0  0.95017  0.41587  0.34153  1.0000
  S   S77       1.0  0.00471  0.47237  0.27024  1.0000
  H   H225      1.0  0.98830  0.22710  0.03912  1.0000
  N   N19       1.0  0.80376  0.45087  0.25047  1.0000
  C   C231      1.0  0.01399  0.44181  0.16212  1.0000
  H   H226      1.0  0.88205  0.23293  0.03574  1.0000
  H   H227      1.0  0.96170  0.47305  0.11537  1.0000
  H   H228      1.0  0.83302  0.49092  0.32586  1.0000
  Fe  Fe40      1.0  0.71315  0.38312  0.35426  1.0000
  S   S78       1.0  0.76548  0.43380  0.34407  1.0000
  H   H229      1.0  0.00992  0.49786  0.11811  1.0000
  H   H230      1.0  0.51570  0.42458  0.28418  1.0000
  H   H231      1.0  0.79877  0.50102  0.26116  1.0000
  C   C232      1.0  0.65118  0.02071  0.16209  1.0000
  H   H232      1.0  0.54010  0.24534  0.66668  1.0000
  S   S79       1.0  0.67331  0.38859  0.38607  1.0000
  N   N20       1.0  0.76221  0.37656  0.60285  1.0000
  Fe  Fe41      1.0  0.70544  0.34729  0.67877  1.0000
  C   C233      1.0  0.74088  0.34070  0.55836  1.0000
  Fe  Fe42      1.0  0.66577  0.33179  0.40254  1.0000
  S   S80       1.0  0.65596  0.30871  0.45003  1.0000
  H   H233      1.0  0.61216  0.43130  0.44433  1.0000
  Fe  Fe43      1.0  0.65987  0.35083  0.62548  1.0000
  S   S81       1.0  0.68246  0.31024  0.63912  1.0000
  S   S82       1.0  0.66794  0.37804  0.57947  1.0000
  H   H234      1.0  0.89090  0.48474  0.37481  1.0000
  H   H235      1.0  0.79545  0.43286  0.61390  1.0000
  H   H236      1.0  0.74759  0.42010  0.61560  1.0000
  Fe  Fe44      1.0  0.63238  0.28178  0.66611  1.0000
  C   C234      1.0  0.59000  0.38086  0.41850  1.0000
  S   S83       1.0  0.68600  0.39002  0.66381  1.0000
  S   S84       1.0  0.60759  0.31972  0.64948  1.0000
  C   C235      1.0  0.56590  0.28316  0.44488  1.0000
  N   N21       1.0  0.57855  0.32389  0.44484  1.0000
  H   H237      1.0  0.78328  0.35274  0.63629  1.0000
  H   H238      1.0  0.74249  0.28685  0.55810  1.0000
  C   C236      1.0  0.74808  0.37293  0.57490  1.0000
  C   C237      1.0  0.60228  0.40111  0.44458  1.0000
  S   S85       1.0  0.62128  0.30140  0.36971  1.0000
  H   H239      1.0  0.53617  0.26939  0.44545  1.0000
  C   C238      1.0  0.66120  0.32895  0.48584  1.0000
  C   C239      1.0  0.67454  0.36754  0.49023  1.0000
  C   C240      1.0  0.67621  0.38196  0.51898  1.0000
  C   C241      1.0  0.66491  0.35812  0.54375  1.0000
  C   C242      1.0  0.65200  0.31957  0.53939  1.0000
  C   C243      1.0  0.65011  0.30515  0.51064  1.0000
  H   H240      1.0  0.68321  0.38625  0.47144  1.0000
  H   H241      1.0  0.68638  0.41185  0.52205  1.0000
  H   H242      1.0  0.64327  0.30083  0.55816  1.0000
  H   H243      1.0  0.63973  0.27524  0.50757  1.0000
  Fe  Fe45      1.0  0.63533  0.35565  0.68864  1.0000
  C   C244      1.0  0.74859  0.31228  0.57049  1.0000
  C   C245      1.0  0.77117  0.34948  0.61446  1.0000
  C   C246      1.0  0.76902  0.41039  0.61987  1.0000
  H   H244      1.0  0.74153  0.39469  0.56547  1.0000
  H   H245      1.0  0.77022  0.29487  0.60839  1.0000
  C   C247      1.0  0.57801  0.34201  0.41906  1.0000
  C   C248      1.0  0.76410  0.31675  0.59864  1.0000
  H   H246      1.0  0.56553  0.13869  0.67270  1.0000
  H   H247      1.0  0.56862  0.32654  0.39863  1.0000
  S   S86       1.0  0.60172  0.21833  0.66569  1.0000
  H   H248      1.0  0.59009  0.39515  0.39786  1.0000
  H   H249      1.0  0.72883  0.33761  0.53647  1.0000
  H   H250      1.0  0.58989  0.32911  0.49119  1.0000
  H   H251      1.0  0.61164  0.39770  0.49135  1.0000
  H   H252      1.0  0.55117  0.44606  0.67289  1.0000
  C   C249      1.0  0.58958  0.34342  0.47068  1.0000
  C   C250      1.0  0.60189  0.38231  0.47091  1.0000
  C   C251      1.0  0.91610  0.48468  0.36796  1.0000
  H   H253      1.0  0.76901  0.40503  0.64404  1.0000
  H   H254      1.0  0.58779  0.40937  0.67482  1.0000
  S   S87       1.0  0.70819  0.32815  0.37293  1.0000
  H   H255      1.0  0.57698  0.27357  0.46414  1.0000
  C   C252      1.0  0.52447  0.22855  0.68490  1.0000
  H   H256      1.0  0.57552  0.27394  0.42496  1.0000
  H   H257      1.0  0.96436  0.40690  0.35876  1.0000
  H   H258      1.0  0.89312  0.42554  0.36046  1.0000
  C   C253      1.0  0.91753  0.45121  0.35979  1.0000
  S   S88       1.0  0.65695  0.31553  0.70648  1.0000
  H   H259      1.0  0.96410  0.23723  0.96587  1.0000
  Fe  Fe46      1.0  0.67686  0.03746  0.97318  1.0000
  H   H260      1.0  0.98998  0.36678  0.92235  1.0000
  C   C254      1.0  0.63111  0.13464  0.82598  1.0000
  H   H261      1.0  0.60911  0.08174  0.89983  1.0000
  S   S89       1.0  0.01197  0.42996  0.96219  1.0000
  C   C255      1.0  0.92198  0.17268  0.99347  1.0000
  H   H262      1.0  0.53644  0.29628  0.73395  1.0000
  C   C256      1.0  0.54649  0.28470  0.71569  1.0000
  H   H263      1.0  0.92513  0.32938  0.93622  1.0000
  S   S90       1.0  0.68333  0.06007  0.01937  1.0000
  C   C257      1.0  0.55431  0.43375  0.69357  1.0000
  S   S91       1.0  0.89605  0.24907  0.97280  1.0000
  H   H264      1.0  0.98897  0.20866  0.96651  1.0000
  C   C258      1.0  0.65088  0.11323  0.82814  1.0000
  H   H265      1.0  0.63603  0.15732  0.84131  1.0000
  S   S92       1.0  0.99510  0.32156  0.97607  1.0000
  H   H266      1.0  0.57785  0.09035  0.76759  1.0000
  C   C259      1.0  0.59843  0.09698  0.78463  1.0000
  C   C260      1.0  0.53886  0.02288  0.95778  1.0000
  H   H267      1.0  0.92293  0.39645  0.95956  1.0000
  H   H268      1.0  0.92569  0.46348  0.88378  1.0000
  C   C261      1.0  0.66575  0.06254  0.81156  1.0000
  H   H269      1.0  0.88485  0.32671  0.95360  1.0000
  H   H270      1.0  0.79360  0.12619  0.97849  1.0000
  N   N22       1.0  0.52473  0.24458  0.71166  1.0000
  C   C262      1.0  0.89988  0.36972  0.88919  1.0000
  C   C263      1.0  0.85886  0.42538  0.72756  1.0000
  C   C264      1.0  0.99374  0.39144  0.90966  1.0000
  H   H271      1.0  0.99352  0.46722  0.01406  1.0000
  H   H272      1.0  0.91436  0.16968  0.97026  1.0000
  C   C265      1.0  0.57500  0.41289  0.69458  1.0000
  H   H273      1.0  0.61540  0.46346  0.82990  1.0000
  S   S93       1.0  0.60832  0.37434  0.72481  1.0000
  C   C266      1.0  0.56300  0.40240  0.74682  1.0000
  H   H274      1.0  0.57659  0.47333  0.82725  1.0000
  N   N23       1.0  0.90492  0.36699  0.91893  1.0000
  H   H275      1.0  0.53594  0.04353  0.97184  1.0000
  H   H276      1.0  0.53302  0.09806  0.71474  1.0000
  C   C267      1.0  0.62997  0.47716  0.77430  1.0000
  C   C268      1.0  0.59749  0.51455  0.77716  1.0000
  C   C269      1.0  0.60475  0.12641  0.80405  1.0000
  S   S94       1.0  0.93976  0.35148  0.00590  1.0000
  C   C270      1.0  0.63486  0.48421  0.74395  1.0000
  H   H277      1.0  0.87249  0.12708  0.00688  1.0000
  C   C271      1.0  0.59441  0.04079  0.86519  1.0000
  S   S95       1.0  0.73293  0.04143  0.97085  1.0000
  C   C272      1.0  0.58388  0.20564  0.72505  1.0000
  C   C273      1.0  0.56520  0.18259  0.74876  1.0000
  C   C274      1.0  0.54638  0.14372  0.74517  1.0000
  C   C275      1.0  0.54754  0.12789  0.71789  1.0000
  H   H278      1.0  0.59753  0.23557  0.72794  1.0000
  H   H279      1.0  0.56449  0.19511  0.76979  1.0000
  H   H280      1.0  0.69117  0.07692  0.79931  1.0000
  C   C276      1.0  0.53843  0.43957  0.71926  1.0000
  C   C277      1.0  0.54255  0.42342  0.74584  1.0000
  H   H281      1.0  0.61989  0.51058  0.83493  1.0000
  C   C278      1.0  0.57977  0.39752  0.72134  1.0000
  C   C279      1.0  0.81267  0.14945  0.99105  1.0000
  H   H282      1.0  0.90385  0.40656  0.85245  1.0000
  S   S96       1.0  0.97730  0.41532  0.82528  1.0000
  S   S97       1.0  0.95051  0.49960  0.81014  1.0000
  C   C280      1.0  0.91906  0.43630  0.89376  1.0000
  H   H283      1.0  0.53034  0.42749  0.76571  1.0000
  C   C281      1.0  0.85696  0.45988  0.72916  1.0000
  C   C282      1.0  0.82515  0.46230  0.71996  1.0000
  C   C283      1.0  0.92448  0.43333  0.92399  1.0000
  C   C284      1.0  0.97842  0.22486  0.98029  1.0000
  H   H284      1.0  0.58905  0.14263  0.80216  1.0000
  C   C285      1.0  0.99027  0.42033  0.86271  1.0000
  H   H285      1.0  0.58046  0.05383  0.85270  1.0000
  C   C286      1.0  0.83784  0.18102  0.97630  1.0000
  C   C287      1.0  0.90667  0.40433  0.87620  1.0000
  C   C288      1.0  0.61846  0.07593  0.78756  1.0000
  Fe  Fe47      1.0  0.94069  0.29605  0.99727  1.0000
  H   H286      1.0  0.83787  0.18183  0.95240  1.0000
  C   C289      1.0  0.79749  0.39613  0.70762  1.0000
  H   H287      1.0  0.56647  0.39054  0.76760  1.0000
  C   C290      1.0  0.61138  0.05709  0.89174  1.0000
  Fe  Fe48      1.0  0.98395  0.46820  0.80157  1.0000
  H   H288      1.0  0.88231  0.30698  0.91780  1.0000
  S   S98       1.0  0.97571  0.46641  0.75236  1.0000
  Fe  Fe49      1.0  0.99584  0.37681  0.98878  1.0000
  H   H289      1.0  0.60462  0.03994  0.99255  1.0000
  C   C291      1.0  0.89902  0.33083  0.93218  1.0000
  Fe  Fe50      1.0  0.94611  0.50205  0.76067  1.0000
  C   C292      1.0  0.91739  0.39827  0.93625  1.0000
  H   H290      1.0  0.89149  0.34529  0.87515  1.0000
  H   H291      1.0  0.93537  0.45818  0.93767  1.0000
  S   S99       1.0  0.65068  0.06304  0.94153  1.0000
  C   C293      1.0  0.86320  0.21120  0.99226  1.0000
  C   C294      1.0  0.98610  0.38858  0.87922  1.0000
  C   C295      1.0  0.01120  0.45809  0.90690  1.0000
  H   H292      1.0  0.67112  0.11954  0.84543  1.0000
  S   S100      1.0  0.51780  0.04426  0.82844  1.0000
  H   H293      1.0  0.82342  0.48886  0.72111  1.0000
  N   N24       1.0  0.95388  0.20047  0.00251  1.0000
  C   C296      1.0  0.58359  0.19004  0.69734  1.0000
  C   C297      1.0  0.00340  0.45523  0.87647  1.0000
  C   C298      1.0  0.82932  0.39376  0.71675  1.0000
  H   H294      1.0  0.88313  0.42307  0.73449  1.0000
  N   N25       1.0  0.64416  0.08407  0.80924  1.0000
  C   C299      1.0  0.60568  0.48436  0.82216  1.0000
  H   H295      1.0  0.00171  0.24831  0.99056  1.0000
  H   H296      1.0  0.97622  0.36158  0.86856  1.0000
  H   H297      1.0  0.64840  0.47103  0.73101  1.0000
  C   C300      1.0  0.63110  0.04172  0.90793  1.0000
  H   H298      1.0  0.54618  0.30073  0.69545  1.0000
  C   C301      1.0  0.79551  0.43060  0.70930  1.0000
  S   S101      1.0  0.89362  0.50062  0.74231  1.0000
  H   H299      1.0  0.61282  0.05257  0.77275  1.0000
  C   C302      1.0  0.89817  0.14854  0.01405  1.0000
  H   H300      1.0  0.67190  0.05898  0.83509  1.0000
  C   C303      1.0  0.00575  0.42611  0.92365  1.0000
  S   S102      1.0  0.51878  0.11701  0.77434  1.0000
  H   H301      1.0  0.00674  0.47988  0.86387  1.0000
  H   H302      1.0  0.57473  0.28994  0.72081  1.0000
  N   N26       1.0  0.61126  0.49211  0.79044  1.0000
  H   H303      1.0  0.64039  0.45880  0.78458  1.0000
  H   H304      1.0  0.83115  0.36725  0.71551  1.0000
  H   H305      1.0  0.77120  0.43287  0.70241  1.0000
  Fe  Fe51      1.0  0.73777  0.05968  0.01828  1.0000
  S   S103      1.0  0.76155  0.35543  0.69359  1.0000
  C   C304      1.0  0.56589  0.15101  0.69406  1.0000
  C   C305      1.0  0.81273  0.14775  0.02194  1.0000
  C   C306      1.0  0.62037  0.50656  0.73016  1.0000
  H   H306      1.0  0.62254  0.51089  0.70643  1.0000
  H   H307      1.0  0.65096  0.03388  0.80249  1.0000
  H   H308      1.0  0.56255  0.02078  0.01210  1.0000
  C   C307      1.0  0.86280  0.20984  0.02316  1.0000
  S   S104      1.0  0.51546  0.46882  0.71755  1.0000
  C   C308      1.0  0.62121  0.61017  0.19951  1.0000
  S   S105      1.0  0.53993  0.60539  0.17128  1.0000
  C   C309      1.0  0.64326  0.61828  0.17471  1.0000
  C   C310      1.0  0.96877  0.62033  0.15467  1.0000
  H   H309      1.0  0.97440  0.64810  0.11238  1.0000
  H   H310      1.0  0.77702  0.78423  0.04596  1.0000
  C   C311      1.0  0.98157  0.60018  0.17358  1.0000
  S   S106      1.0  0.63949  0.60520  0.06584  1.0000
  H   H311      1.0  0.83843  0.79780  0.06233  1.0000
  S   S107      1.0  0.71723  0.70164  0.03915  1.0000
  C   C312      1.0  0.00980  0.59198  0.16435  1.0000
  S   S108      1.0  0.96225  0.58561  0.20867  1.0000
  H   H312      1.0  0.85923  0.54270  0.24264  1.0000
  H   H313      1.0  0.78817  0.69703  0.03408  1.0000
  C   C313      1.0  0.98437  0.63253  0.12681  1.0000
  S   S109      1.0  0.97220  0.53421  0.28134  1.0000
  H   H314      1.0  0.98431  0.55989  0.08241  1.0000
  H   H315      1.0  0.57039  0.94850  0.11563  1.0000
  H   H316      1.0  0.98776  0.57221  0.02870  1.0000
  C   C314      1.0  0.70324  0.86231  0.03673  1.0000
  S   S110      1.0  0.70054  0.79220  0.04389  1.0000
  H   H317      1.0  0.69562  0.85997  0.05972  1.0000
  H   H318      1.0  0.70483  0.60549  0.14480  1.0000
  N   N27       1.0  0.65389  0.59233  0.16380  1.0000
  C   C315      1.0  0.62164  0.54933  0.20226  1.0000
  Fe  Fe52      1.0  0.95388  0.69138  0.02729  1.0000
  Fe  Fe53      1.0  0.66261  0.65407  0.03426  1.0000
  C   C316      1.0  0.61073  0.60572  0.09400  1.0000
  C   C317      1.0  0.59198  0.57279  0.10998  1.0000
  C   C318      1.0  0.56982  0.57234  0.13339  1.0000
  C   C319      1.0  0.56638  0.60487  0.14115  1.0000
  C   C320      1.0  0.58484  0.63778  0.12493  1.0000
  C   C321      1.0  0.60695  0.63821  0.10132  1.0000
  H   H319      1.0  0.59463  0.54749  0.10426  1.0000
  H   H320      1.0  0.55535  0.54673  0.14527  1.0000
  H   H321      1.0  0.58227  0.66307  0.13081  1.0000
  H   H322      1.0  0.62147  0.66378  0.08913  1.0000
  C   C322      1.0  0.84084  0.69789  0.03916  1.0000
  S   S111      1.0  0.71783  0.00103  0.03657  1.0000
  S   S112      1.0  0.91016  0.70611  0.04534  1.0000
  S   S113      1.0  0.00997  0.72049  0.04649  1.0000
  H   H323      1.0  0.84187  0.70200  0.06282  1.0000
  H   H324      1.0  0.61156  0.63017  0.20738  1.0000
  C   C323      1.0  0.87042  0.69656  0.02486  1.0000
  C   C324      1.0  0.57896  0.97825  0.11263  1.0000
  H   H325      1.0  0.55683  0.59284  0.04572  1.0000
  C   C325      1.0  0.54323  0.56208  0.04244  1.0000
  C   C326      1.0  0.60310  0.99700  0.09004  1.0000
  H   H326      1.0  0.52111  0.60923  0.30211  1.0000
  H   H327      1.0  0.94685  0.62665  0.16162  1.0000
  Fe  Fe54      1.0  0.98228  0.54792  0.23289  1.0000
  C   C327      1.0  0.61047  0.57550  0.21337  1.0000
  H   H328      1.0  0.65082  0.64504  0.16375  1.0000
  C   C328      1.0  0.87566  0.78921  0.03387  1.0000
  C   C329      1.0  0.56689  0.99800  0.13213  1.0000
  H   H329      1.0  0.56486  0.55215  0.04184  1.0000
  Fe  Fe55      1.0  0.66294  0.00043  0.03370  1.0000
  H   H330      1.0  0.59306  0.56863  0.23245  1.0000
  C   C330      1.0  0.98621  0.53936  0.06758  1.0000
  S   S114      1.0  0.62105  0.97205  0.06850  1.0000
  C   C331      1.0  0.67731  0.60110  0.13797  1.0000
  H   H331      1.0  0.54927  0.98352  0.15011  1.0000
  C   C332      1.0  0.84414  0.79332  0.03974  1.0000
  H   H332      1.0  0.70286  0.91659  0.03108  1.0000
  H   H333      1.0  0.61296  0.52213  0.21284  1.0000
  Fe  Fe56      1.0  0.00795  0.66282  0.04947  1.0000
  H   H334      1.0  0.65173  0.53759  0.16858  1.0000
  S   S115      1.0  0.95085  0.63363  0.03442  1.0000
  C   C333      1.0  0.64345  0.55823  0.17727  1.0000
  H   H335      1.0  0.66664  0.57803  0.12157  1.0000
  H   H336      1.0  0.00347  0.54319  0.35596  1.0000
  C   C334      1.0  0.98816  0.54652  0.03716  1.0000
  H   H337      1.0  0.62289  0.76248  0.02774  1.0000
  H   H338      1.0  0.67888  0.62662  0.12623  1.0000
  H   H339      1.0  0.62688  0.80842  0.03415  1.0000
  N   N28       1.0  0.51796  0.54327  0.06621  1.0000
  C   C335      1.0  0.01324  0.62511  0.11803  1.0000
  H   H340      1.0  0.98209  0.52227  0.12316  1.0000
  H   H341      1.0  0.68774  0.00953  0.11776  1.0000
  H   H342      1.0  0.63780  0.99244  0.15208  1.0000
  H   H343      1.0  0.89371  0.78948  0.05169  1.0000
  H   H344      1.0  0.51874  0.59371  0.08379  1.0000
  C   C336      1.0  0.97914  0.51743  0.35729  1.0000
  H   H345      1.0  0.94638  0.54425  0.37249  1.0000
  C   C337      1.0  0.94713  0.51800  0.36657  1.0000
  C   C338      1.0  0.81039  0.69509  0.02293  1.0000
  H   H346      1.0  0.52898  0.55643  0.02076  1.0000
  H   H347      1.0  0.93488  0.62098  0.77441  1.0000
  N   N29       1.0  0.82041  0.79075  0.01743  1.0000
  H   H348      1.0  0.86359  0.77435  0.95992  1.0000
  C   C339      1.0  0.92476  0.60455  0.86446  1.0000
  Fe  Fe57      1.0  0.70844  0.98258  0.98923  1.0000
  S   S116      1.0  0.72028  0.93642  0.96922  1.0000
  C   C340      1.0  0.71823  0.83631  0.99353  1.0000
  H   H349      1.0  0.89155  0.69017  0.98305  1.0000
  Fe  Fe58      1.0  0.72383  0.69161  0.99131  1.0000
  S   S117      1.0  0.70124  0.73114  0.97416  1.0000
  H   H350      1.0  0.93537  0.62412  0.88263  1.0000
  C   C341      1.0  0.52513  0.98868  0.91190  1.0000
  Fe  Fe59      1.0  0.64797  0.68120  0.97459  1.0000
  S   S118      1.0  0.60535  0.67378  0.93996  1.0000
  S   S119      1.0  0.67121  0.64099  0.98753  1.0000
  C   C342      1.0  0.72330  0.86889  0.97758  1.0000
  S   S120      1.0  0.97186  0.69572  0.98000  1.0000
  C   C343      1.0  0.00359  0.59705  0.86964  1.0000
  C   C344      1.0  0.83857  0.68870  0.97801  1.0000
  C   C345      1.0  0.86889  0.69116  0.99428  1.0000
  C   C346      1.0  0.89709  0.56934  0.86934  1.0000
  S   S121      1.0  0.65193  0.97757  0.98757  1.0000
  Fe  Fe60      1.0  0.00231  0.55048  0.80512  1.0000
  C   C347      1.0  0.96562  0.55944  0.90906  1.0000
  C   C348      1.0  0.71735  0.89782  0.99088  1.0000
  Fe  Fe61      1.0  0.97321  0.63999  0.98865  1.0000
  H   H351      1.0  0.73103  0.87134  0.95461  1.0000
  H   H352      1.0  0.65251  0.86780  0.94202  1.0000
  H   H353      1.0  0.72219  0.81396  0.98286  1.0000
  C   C349      1.0  0.97440  0.59152  0.92636  1.0000
  N   N30       1.0  0.92719  0.58882  0.81357  1.0000
  C   C350      1.0  0.01297  0.62896  0.88724  1.0000
  C   C351      1.0  0.61741  0.99391  0.87025  1.0000
  H   H354      1.0  0.99243  0.52590  0.99412  1.0000
  H   H355      1.0  0.80840  0.78184  0.97131  1.0000
  H   H356      1.0  0.58920  0.53830  0.73617  1.0000
  S   S122      1.0  0.95340  0.58773  0.96061  1.0000
  C   C352      1.0  0.89959  0.55441  0.81799  1.0000
  S   S123      1.0  0.77441  0.69356  0.97052  1.0000
  C   C353      1.0  0.57616  0.57735  0.87398  1.0000
  C   C354      1.0  0.60531  0.58590  0.89353  1.0000
  C   C355      1.0  0.61436  0.61530  0.91386  1.0000
  C   C356      1.0  0.59438  0.63648  0.91475  1.0000
  C   C357      1.0  0.56529  0.62806  0.89510  1.0000
  C   C358      1.0  0.55612  0.59851  0.87480  1.0000
  H   H357      1.0  0.62100  0.56974  0.89296  1.0000
  H   H358      1.0  0.63702  0.62172  0.92862  1.0000
  S   S124      1.0  0.99632  0.55562  0.75608  1.0000
  C   C359      1.0  0.56442  0.98018  0.94840  1.0000
  C   C360      1.0  0.80946  0.69122  0.99220  1.0000
  H   H359      1.0  0.97268  0.61155  0.78581  1.0000
  H   H360      1.0  0.86278  0.51660  0.84947  1.0000
  C   C361      1.0  0.62476  0.76678  0.96965  1.0000
  C   C362      1.0  0.70745  0.89448  0.02058  1.0000
  H   H361      1.0  0.94709  0.53257  0.91742  1.0000
  C   C363      1.0  0.64487  0.81203  0.93010  1.0000
  H   H362      1.0  0.88603  0.56165  0.89134  1.0000
  H   H363      1.0  0.88950  0.53461  0.79989  1.0000
  H   H364      1.0  0.58227  0.96749  0.95479  1.0000
  S   S125      1.0  0.57665  0.98932  0.82028  1.0000
  C   C364      1.0  0.98030  0.56216  0.88079  1.0000
  Fe  Fe62      1.0  0.69074  0.73751  0.02172  1.0000
  C   C365      1.0  0.82757  0.78487  0.98895  1.0000
  N   N31       1.0  0.55978  0.00526  0.96665  1.0000
  H   H365      1.0  0.97316  0.53743  0.86747  1.0000
  S   S126      1.0  0.56604  0.54035  0.84869  1.0000
  H   H366      1.0  0.93406  0.57552  0.76888  1.0000
  C   C366      1.0  0.64402  0.83908  0.94937  1.0000
  S   S127      1.0  0.63542  0.69063  0.02119  1.0000
  H   H367      1.0  0.83801  0.68569  0.95424  1.0000
  H   H368      1.0  0.00547  0.65106  0.92885  1.0000
  H   H369      1.0  0.62005  0.96961  0.86182  1.0000
  C   C367      1.0  0.88429  0.54407  0.84597  1.0000
  H   H370      1.0  0.58266  0.52631  0.78998  1.0000
  H   H371      1.0  0.96218  0.64073  0.83297  1.0000
  C   C368      1.0  0.85891  0.78084  0.98229  1.0000
  H   H372      1.0  0.65341  0.81936  0.90744  1.0000
  C   C369      1.0  0.99851  0.62622  0.91559  1.0000
  C   C370      1.0  0.93972  0.61382  0.83631  1.0000
  C   C371      1.0  0.63369  0.82930  0.97870  1.0000
  H   H373      1.0  0.55109  0.95186  0.90624  1.0000
  H   H374      1.0  0.53368  0.59221  0.85976  1.0000
  H   H375      1.0  0.64977  0.99825  0.90947  1.0000
  N   N32       1.0  0.62489  0.79369  0.98861  1.0000
  H   H376      1.0  0.63525  0.75409  0.92545  1.0000
  C   C372      1.0  0.63427  0.01009  0.89717  1.0000
  C   C373      1.0  0.54694  0.97129  0.92089  1.0000
  C   C374      1.0  0.57882  0.01487  0.99518  1.0000
  C   C375      1.0  0.63496  0.77556  0.94021  1.0000
  H   H377      1.0  0.54976  0.64438  0.89562  1.0000
  C   C376      1.0  0.94290  0.59974  0.78420  1.0000
  H   H378      1.0  0.63397  0.85076  0.99369  1.0000
  Fe  Fe63      1.0  0.52815  0.99935  0.80659  1.0000
  C   C377      1.0  0.52105  0.01468  0.93039  1.0000
  H   H379      1.0  0.61696  0.73831  0.97723  1.0000
  S   S128      1.0  0.52242  0.54696  0.77258  1.0000
  C   C378      1.0  0.60163  0.52193  0.74684  1.0000
  C   C379      1.0  0.59696  0.00897  0.85438  1.0000
  H   H380      1.0  0.90658  0.77806  0.00033  1.0000
  C   C380      1.0  0.88299  0.78290  0.00494  1.0000
  Fe  Fe64      1.0  0.51766  0.52347  0.81846  1.0000
  H   H381      1.0  0.76627  0.78133  0.00756  1.0000
  H   H382      1.0  0.58467  0.99159  0.00398  1.0000
  H   H383      1.0  0.58443  0.77279  0.02111  1.0000
  C   C381      1.0  0.61402  0.78384  0.01937  1.0000
  C   C382      1.0  0.70808  0.83290  0.02317  1.0000
  C   C383      1.0  0.99078  0.52048  0.01776  1.0000
  H   H384      1.0  0.79380  0.82612  0.02355  1.0000
  C   C384      1.0  0.78793  0.79595  0.02394  1.0000
